data_str_m2_o2_o10_pcu_sym.104
_audit_creation_date              2020-01-03
_audit_creation_method            'Materials Studio'
_symmetry_space_group_name_H-M    'P1'
_symmetry_Int_Tables_number       1
_symmetry_cell_setting            triclinic
loop_
_symmetry_equiv_pos_as_xyz
  x,y,z
_cell_length_a                    26.2005
_cell_length_b                    30.1913
_cell_length_c                    27.7406
_cell_angle_alpha                 89.7873
_cell_angle_beta                  97.9231
_cell_angle_gamma                 90.1530
loop_
_atom_site_label
_atom_site_type_symbol
_atom_site_fract_x
_atom_site_fract_y
_atom_site_fract_z
_atom_site_U_iso_or_equiv
_atom_site_adp_type
_atom_site_occupancy
C1     C     0.16629   0.16494   0.25005   0.00000  Uiso   1.00
C2     C     0.20808   0.26748   0.45154   0.00000  Uiso   1.00
C3     C     0.16645   0.25041   0.02726   0.00000  Uiso   1.00
C4     C     0.16624   0.25024   0.47263   0.00000  Uiso   1.00
C5     C     0.06790   0.24998   0.23756   0.00000  Uiso   1.00
C6     C     0.26543   0.25001   0.26245   0.00000  Uiso   1.00
C7     C     0.01264   0.24999   0.23070   0.00000  Uiso   1.00
C8     C     0.32070   0.25000   0.26932   0.00000  Uiso   1.00
C9     C     0.13343   0.04832   0.28311   0.00000  Uiso   1.00
C10    C     0.13495   0.45162   0.20735   0.00000  Uiso   1.00
C11    C     0.13759   0.09460   0.28364   0.00000  Uiso   1.00
C12    C     0.16633   0.33507   0.24985   0.00000  Uiso   1.00
C13    C     0.13910   0.40536   0.20805   0.00000  Uiso   1.00
C14    C     0.16404   0.11670   0.25008   0.00000  Uiso   1.00
C15    C     0.16412   0.38333   0.24917   0.00000  Uiso   1.00
C16    C     0.18726   0.09267   0.21606   0.00000  Uiso   1.00
C17    C     0.18597   0.40747   0.28977   0.00000  Uiso   1.00
C18    C     0.18491   0.04675   0.21611   0.00000  Uiso   1.00
C19    C     0.18358   0.45339   0.28905   0.00000  Uiso   1.00
C20    C     0.15793   0.02432   0.24909   0.00000  Uiso   1.00
C21    C     0.15797   0.47571   0.24837   0.00000  Uiso   1.00
C22    C     0.10233   0.02578   0.31693   0.00000  Uiso   1.00
C23    C     0.18566   0.28671   0.05629   0.00000  Uiso   1.00
C24    C     0.10540   0.47404   0.16456   0.00000  Uiso   1.00
C25    C     0.12453   0.23271   0.44063   0.00000  Uiso   1.00
C26    C     0.18584   0.28556   0.10707   0.00000  Uiso   1.00
C27    C     0.12586   0.23254   0.39005   0.00000  Uiso   1.00
C28    C     0.14748   0.21463   0.10210   0.00000  Uiso   1.00
C29    C     0.20731   0.26746   0.40070   0.00000  Uiso   1.00
C30    C     0.14754   0.21398   0.05138   0.00000  Uiso   1.00
Cu31   Cu    0.16667   0.24999   0.29821   0.00000  Uiso   1.00
Cu32   Cu    0.16667   0.25000   0.20178   0.00000  Uiso   1.00
F33    F     0.20286   0.32378   0.03582   0.00000  Uiso   1.00
F34    F     0.08189   0.21694   0.45772   0.00000  Uiso   1.00
H35    H     0.32600   0.24999   0.19364   0.00000  Uiso   1.00
H36    H     0.09373   0.21853   0.36632   0.00000  Uiso   1.00
H37    H     0.13209   0.18647   0.11953   0.00000  Uiso   1.00
H38    H     0.23961   0.28140   0.38544   0.00000  Uiso   1.00
H39    H     0.13330   0.18477   0.03134   0.00000  Uiso   1.00
H40    H     0.24167   0.28052   0.47415   0.00000  Uiso   1.00
H41    H     0.09477   0.49050   0.31409   0.00000  Uiso   1.00
H42    H     0.09762   0.00927   0.16521   0.00000  Uiso   1.00
H43    H     0.00733   0.25001   0.30638   0.00000  Uiso   1.00
H44    H     0.11897   0.11366   0.30927   0.00000  Uiso   1.00
H45    H     0.12156   0.38626   0.17709   0.00000  Uiso   1.00
H46    H     0.20794   0.10940   0.19004   0.00000  Uiso   1.00
H47    H     0.20561   0.39084   0.32170   0.00000  Uiso   1.00
H48    H     0.20413   0.02850   0.19029   0.00000  Uiso   1.00
H49    H     0.20171   0.47172   0.32035   0.00000  Uiso   1.00
H50    H     0.20117   0.31357   0.12857   0.00000  Uiso   1.00
N51    N     0.16667   0.25001   0.12934   0.00000  Uiso   1.00
N52    N     0.16667   0.24999   0.37065   0.00000  Uiso   1.00
O53    O     0.16667   0.18572   0.29071   0.00000  Uiso   1.00
O54    O     0.08895   0.45331   0.12796   0.00000  Uiso   1.00
O55    O     0.16666   0.31427   0.20928   0.00000  Uiso   1.00
O56    O     0.16667   0.18573   0.20928   0.00000  Uiso   1.00
O57    O     0.16666   0.31427   0.29072   0.00000  Uiso   1.00
O58    O     0.09161   0.24999   0.28132   0.00000  Uiso   1.00
O59    O     0.24172   0.25000   0.21868   0.00000  Uiso   1.00
O60    O     0.09161   0.25000   0.19988   0.00000  Uiso   1.00
O61    O     0.24172   0.25000   0.30011   0.00000  Uiso   1.00
O62    O     0.08430   0.04649   0.34832   0.00000  Uiso   1.00
C63    C     0.49962   0.16494   0.25005   0.00000  Uiso   1.00
C64    C     0.54141   0.26748   0.45154   0.00000  Uiso   1.00
C65    C     0.49978   0.25041   0.02726   0.00000  Uiso   1.00
C66    C     0.49957   0.25024   0.47263   0.00000  Uiso   1.00
C67    C     0.40123   0.24998   0.23756   0.00000  Uiso   1.00
C68    C     0.59877   0.25001   0.26245   0.00000  Uiso   1.00
C69    C     0.34597   0.24999   0.23070   0.00000  Uiso   1.00
C70    C     0.65403   0.25000   0.26932   0.00000  Uiso   1.00
C71    C     0.46677   0.04832   0.28311   0.00000  Uiso   1.00
C72    C     0.46829   0.45162   0.20735   0.00000  Uiso   1.00
C73    C     0.47092   0.09460   0.28364   0.00000  Uiso   1.00
C74    C     0.49966   0.33507   0.24985   0.00000  Uiso   1.00
C75    C     0.47243   0.40536   0.20805   0.00000  Uiso   1.00
C76    C     0.49737   0.11670   0.25008   0.00000  Uiso   1.00
C77    C     0.49745   0.38333   0.24917   0.00000  Uiso   1.00
C78    C     0.52059   0.09267   0.21606   0.00000  Uiso   1.00
C79    C     0.51930   0.40747   0.28977   0.00000  Uiso   1.00
C80    C     0.51825   0.04675   0.21611   0.00000  Uiso   1.00
C81    C     0.51691   0.45339   0.28905   0.00000  Uiso   1.00
C82    C     0.49127   0.02432   0.24909   0.00000  Uiso   1.00
C83    C     0.49130   0.47571   0.24837   0.00000  Uiso   1.00
C84    C     0.43566   0.02578   0.31693   0.00000  Uiso   1.00
C85    C     0.51900   0.28671   0.05629   0.00000  Uiso   1.00
C86    C     0.43873   0.47404   0.16456   0.00000  Uiso   1.00
C87    C     0.45787   0.23271   0.44063   0.00000  Uiso   1.00
C88    C     0.51917   0.28556   0.10707   0.00000  Uiso   1.00
C89    C     0.45920   0.23254   0.39005   0.00000  Uiso   1.00
C90    C     0.48082   0.21463   0.10210   0.00000  Uiso   1.00
C91    C     0.54064   0.26746   0.40070   0.00000  Uiso   1.00
C92    C     0.48087   0.21398   0.05138   0.00000  Uiso   1.00
Cu93   Cu    0.50000   0.24999   0.29821   0.00000  Uiso   1.00
Cu94   Cu    0.50000   0.25000   0.20178   0.00000  Uiso   1.00
F95    F     0.53619   0.32378   0.03582   0.00000  Uiso   1.00
F96    F     0.41523   0.21694   0.45772   0.00000  Uiso   1.00
H97    H     0.65933   0.24999   0.19364   0.00000  Uiso   1.00
H98    H     0.42706   0.21853   0.36632   0.00000  Uiso   1.00
H99    H     0.46542   0.18647   0.11953   0.00000  Uiso   1.00
H100   H     0.57295   0.28140   0.38544   0.00000  Uiso   1.00
H101   H     0.46663   0.18477   0.03134   0.00000  Uiso   1.00
H102   H     0.57501   0.28052   0.47415   0.00000  Uiso   1.00
H103   H     0.42811   0.49050   0.31409   0.00000  Uiso   1.00
H104   H     0.43095   0.00927   0.16521   0.00000  Uiso   1.00
H105   H     0.34066   0.25001   0.30638   0.00000  Uiso   1.00
H106   H     0.45230   0.11366   0.30927   0.00000  Uiso   1.00
H107   H     0.45489   0.38626   0.17709   0.00000  Uiso   1.00
H108   H     0.54128   0.10940   0.19004   0.00000  Uiso   1.00
H109   H     0.53894   0.39084   0.32170   0.00000  Uiso   1.00
H110   H     0.53747   0.02850   0.19029   0.00000  Uiso   1.00
H111   H     0.53504   0.47172   0.32035   0.00000  Uiso   1.00
H112   H     0.53451   0.31357   0.12857   0.00000  Uiso   1.00
N113   N     0.50000   0.25001   0.12934   0.00000  Uiso   1.00
N114   N     0.50000   0.24999   0.37065   0.00000  Uiso   1.00
O115   O     0.50000   0.18572   0.29071   0.00000  Uiso   1.00
O116   O     0.42228   0.45331   0.12796   0.00000  Uiso   1.00
O117   O     0.50000   0.31427   0.20928   0.00000  Uiso   1.00
O118   O     0.50000   0.18573   0.20928   0.00000  Uiso   1.00
O119   O     0.50000   0.31427   0.29072   0.00000  Uiso   1.00
O120   O     0.42495   0.24999   0.28132   0.00000  Uiso   1.00
O121   O     0.57505   0.25000   0.21868   0.00000  Uiso   1.00
O122   O     0.42495   0.25000   0.19988   0.00000  Uiso   1.00
O123   O     0.57505   0.25000   0.30011   0.00000  Uiso   1.00
O124   O     0.41763   0.04649   0.34832   0.00000  Uiso   1.00
C125   C     0.83295   0.16494   0.25005   0.00000  Uiso   1.00
C126   C     0.87475   0.26748   0.45154   0.00000  Uiso   1.00
C127   C     0.83312   0.25041   0.02726   0.00000  Uiso   1.00
C128   C     0.83290   0.25024   0.47263   0.00000  Uiso   1.00
C129   C     0.73457   0.24998   0.23756   0.00000  Uiso   1.00
C130   C     0.93210   0.25001   0.26245   0.00000  Uiso   1.00
C131   C     0.67930   0.24999   0.23070   0.00000  Uiso   1.00
C132   C     0.98736   0.25000   0.26932   0.00000  Uiso   1.00
C133   C     0.80010   0.04832   0.28311   0.00000  Uiso   1.00
C134   C     0.80162   0.45162   0.20735   0.00000  Uiso   1.00
C135   C     0.80426   0.09460   0.28364   0.00000  Uiso   1.00
C136   C     0.83300   0.33507   0.24985   0.00000  Uiso   1.00
C137   C     0.80576   0.40536   0.20805   0.00000  Uiso   1.00
C138   C     0.83070   0.11670   0.25008   0.00000  Uiso   1.00
C139   C     0.83079   0.38333   0.24917   0.00000  Uiso   1.00
C140   C     0.85392   0.09267   0.21606   0.00000  Uiso   1.00
C141   C     0.85263   0.40747   0.28977   0.00000  Uiso   1.00
C142   C     0.85158   0.04675   0.21611   0.00000  Uiso   1.00
C143   C     0.85025   0.45339   0.28905   0.00000  Uiso   1.00
C144   C     0.82460   0.02432   0.24909   0.00000  Uiso   1.00
C145   C     0.82463   0.47571   0.24837   0.00000  Uiso   1.00
C146   C     0.76900   0.02578   0.31693   0.00000  Uiso   1.00
C147   C     0.85233   0.28671   0.05629   0.00000  Uiso   1.00
C148   C     0.77207   0.47404   0.16456   0.00000  Uiso   1.00
C149   C     0.79120   0.23271   0.44063   0.00000  Uiso   1.00
C150   C     0.85250   0.28556   0.10707   0.00000  Uiso   1.00
C151   C     0.79253   0.23254   0.39005   0.00000  Uiso   1.00
C152   C     0.81415   0.21463   0.10210   0.00000  Uiso   1.00
C153   C     0.87397   0.26746   0.40070   0.00000  Uiso   1.00
C154   C     0.81420   0.21398   0.05138   0.00000  Uiso   1.00
Cu155  Cu    0.83333   0.24999   0.29821   0.00000  Uiso   1.00
Cu156  Cu    0.83333   0.25000   0.20178   0.00000  Uiso   1.00
F157   F     0.86952   0.32378   0.03582   0.00000  Uiso   1.00
F158   F     0.74856   0.21694   0.45772   0.00000  Uiso   1.00
H159   H     0.99267   0.24999   0.19364   0.00000  Uiso   1.00
H160   H     0.76040   0.21853   0.36632   0.00000  Uiso   1.00
H161   H     0.79876   0.18647   0.11953   0.00000  Uiso   1.00
H162   H     0.90628   0.28140   0.38544   0.00000  Uiso   1.00
H163   H     0.79997   0.18477   0.03134   0.00000  Uiso   1.00
H164   H     0.90834   0.28052   0.47415   0.00000  Uiso   1.00
H165   H     0.76144   0.49050   0.31409   0.00000  Uiso   1.00
H166   H     0.76429   0.00927   0.16521   0.00000  Uiso   1.00
H167   H     0.67399   0.25001   0.30638   0.00000  Uiso   1.00
H168   H     0.78564   0.11366   0.30927   0.00000  Uiso   1.00
H169   H     0.78823   0.38626   0.17709   0.00000  Uiso   1.00
H170   H     0.87461   0.10940   0.19004   0.00000  Uiso   1.00
H171   H     0.87227   0.39084   0.32170   0.00000  Uiso   1.00
H172   H     0.87080   0.02850   0.19029   0.00000  Uiso   1.00
H173   H     0.86837   0.47172   0.32035   0.00000  Uiso   1.00
H174   H     0.86784   0.31357   0.12857   0.00000  Uiso   1.00
N175   N     0.83333   0.25001   0.12934   0.00000  Uiso   1.00
N176   N     0.83333   0.24999   0.37065   0.00000  Uiso   1.00
O177   O     0.83334   0.18572   0.29071   0.00000  Uiso   1.00
O178   O     0.75561   0.45331   0.12796   0.00000  Uiso   1.00
O179   O     0.83333   0.31427   0.20928   0.00000  Uiso   1.00
O180   O     0.83334   0.18573   0.20928   0.00000  Uiso   1.00
O181   O     0.83333   0.31427   0.29072   0.00000  Uiso   1.00
O182   O     0.75828   0.24999   0.28132   0.00000  Uiso   1.00
O183   O     0.90839   0.25000   0.21868   0.00000  Uiso   1.00
O184   O     0.75828   0.25000   0.19988   0.00000  Uiso   1.00
O185   O     0.90839   0.25000   0.30011   0.00000  Uiso   1.00
O186   O     0.75097   0.04649   0.34832   0.00000  Uiso   1.00
C187   C     0.16629   0.66494   0.25005   0.00000  Uiso   1.00
C188   C     0.20808   0.76748   0.45154   0.00000  Uiso   1.00
C189   C     0.16645   0.75041   0.02726   0.00000  Uiso   1.00
C190   C     0.16624   0.75024   0.47263   0.00000  Uiso   1.00
C191   C     0.06790   0.74998   0.23756   0.00000  Uiso   1.00
C192   C     0.26543   0.75001   0.26245   0.00000  Uiso   1.00
C193   C     0.01264   0.74999   0.23070   0.00000  Uiso   1.00
C194   C     0.32070   0.75000   0.26932   0.00000  Uiso   1.00
C195   C     0.13343   0.54832   0.28311   0.00000  Uiso   1.00
C196   C     0.13495   0.95162   0.20735   0.00000  Uiso   1.00
C197   C     0.13759   0.59460   0.28364   0.00000  Uiso   1.00
C198   C     0.16633   0.83507   0.24985   0.00000  Uiso   1.00
C199   C     0.13910   0.90536   0.20805   0.00000  Uiso   1.00
C200   C     0.16404   0.61670   0.25008   0.00000  Uiso   1.00
C201   C     0.16412   0.88333   0.24917   0.00000  Uiso   1.00
C202   C     0.18726   0.59267   0.21606   0.00000  Uiso   1.00
C203   C     0.18597   0.90747   0.28977   0.00000  Uiso   1.00
C204   C     0.18491   0.54675   0.21611   0.00000  Uiso   1.00
C205   C     0.18358   0.95339   0.28905   0.00000  Uiso   1.00
C206   C     0.15793   0.52432   0.24909   0.00000  Uiso   1.00
C207   C     0.15797   0.97571   0.24837   0.00000  Uiso   1.00
C208   C     0.10233   0.52578   0.31693   0.00000  Uiso   1.00
C209   C     0.18566   0.78671   0.05629   0.00000  Uiso   1.00
C210   C     0.10540   0.97404   0.16456   0.00000  Uiso   1.00
C211   C     0.12453   0.73271   0.44063   0.00000  Uiso   1.00
C212   C     0.18584   0.78556   0.10707   0.00000  Uiso   1.00
C213   C     0.12586   0.73254   0.39005   0.00000  Uiso   1.00
C214   C     0.14748   0.71463   0.10210   0.00000  Uiso   1.00
C215   C     0.20731   0.76746   0.40070   0.00000  Uiso   1.00
C216   C     0.14754   0.71398   0.05138   0.00000  Uiso   1.00
Cu217  Cu    0.16667   0.74999   0.29821   0.00000  Uiso   1.00
Cu218  Cu    0.16667   0.75000   0.20178   0.00000  Uiso   1.00
F219   F     0.20286   0.82378   0.03582   0.00000  Uiso   1.00
F220   F     0.08189   0.71694   0.45772   0.00000  Uiso   1.00
H221   H     0.32600   0.74999   0.19364   0.00000  Uiso   1.00
H222   H     0.09373   0.71853   0.36632   0.00000  Uiso   1.00
H223   H     0.13209   0.68647   0.11953   0.00000  Uiso   1.00
H224   H     0.23961   0.78140   0.38544   0.00000  Uiso   1.00
H225   H     0.13330   0.68477   0.03134   0.00000  Uiso   1.00
H226   H     0.24167   0.78052   0.47415   0.00000  Uiso   1.00
H227   H     0.09477   0.99050   0.31409   0.00000  Uiso   1.00
H228   H     0.09762   0.50927   0.16521   0.00000  Uiso   1.00
H229   H     0.00733   0.75001   0.30638   0.00000  Uiso   1.00
H230   H     0.11897   0.61366   0.30927   0.00000  Uiso   1.00
H231   H     0.12156   0.88626   0.17709   0.00000  Uiso   1.00
H232   H     0.20794   0.60940   0.19004   0.00000  Uiso   1.00
H233   H     0.20561   0.89084   0.32170   0.00000  Uiso   1.00
H234   H     0.20413   0.52850   0.19029   0.00000  Uiso   1.00
H235   H     0.20171   0.97172   0.32035   0.00000  Uiso   1.00
H236   H     0.20117   0.81357   0.12857   0.00000  Uiso   1.00
N237   N     0.16667   0.75001   0.12934   0.00000  Uiso   1.00
N238   N     0.16667   0.74999   0.37065   0.00000  Uiso   1.00
O239   O     0.16667   0.68572   0.29071   0.00000  Uiso   1.00
O240   O     0.08895   0.95331   0.12796   0.00000  Uiso   1.00
O241   O     0.16666   0.81427   0.20928   0.00000  Uiso   1.00
O242   O     0.16667   0.68573   0.20928   0.00000  Uiso   1.00
O243   O     0.16666   0.81427   0.29072   0.00000  Uiso   1.00
O244   O     0.09161   0.74999   0.28132   0.00000  Uiso   1.00
O245   O     0.24172   0.75000   0.21868   0.00000  Uiso   1.00
O246   O     0.09161   0.75000   0.19988   0.00000  Uiso   1.00
O247   O     0.24172   0.75000   0.30011   0.00000  Uiso   1.00
O248   O     0.08430   0.54649   0.34832   0.00000  Uiso   1.00
C249   C     0.49962   0.66494   0.25005   0.00000  Uiso   1.00
C250   C     0.54141   0.76748   0.45154   0.00000  Uiso   1.00
C251   C     0.49978   0.75041   0.02726   0.00000  Uiso   1.00
C252   C     0.49957   0.75024   0.47263   0.00000  Uiso   1.00
C253   C     0.40123   0.74998   0.23756   0.00000  Uiso   1.00
C254   C     0.59877   0.75001   0.26245   0.00000  Uiso   1.00
C255   C     0.34597   0.74999   0.23070   0.00000  Uiso   1.00
C256   C     0.65403   0.75000   0.26932   0.00000  Uiso   1.00
C257   C     0.46677   0.54832   0.28311   0.00000  Uiso   1.00
C258   C     0.46829   0.95162   0.20735   0.00000  Uiso   1.00
C259   C     0.47092   0.59460   0.28364   0.00000  Uiso   1.00
C260   C     0.49966   0.83507   0.24985   0.00000  Uiso   1.00
C261   C     0.47243   0.90536   0.20805   0.00000  Uiso   1.00
C262   C     0.49737   0.61670   0.25008   0.00000  Uiso   1.00
C263   C     0.49745   0.88333   0.24917   0.00000  Uiso   1.00
C264   C     0.52059   0.59267   0.21606   0.00000  Uiso   1.00
C265   C     0.51930   0.90747   0.28977   0.00000  Uiso   1.00
C266   C     0.51825   0.54675   0.21611   0.00000  Uiso   1.00
C267   C     0.51691   0.95339   0.28905   0.00000  Uiso   1.00
C268   C     0.49127   0.52432   0.24909   0.00000  Uiso   1.00
C269   C     0.49130   0.97571   0.24837   0.00000  Uiso   1.00
C270   C     0.43566   0.52578   0.31693   0.00000  Uiso   1.00
C271   C     0.51900   0.78671   0.05629   0.00000  Uiso   1.00
C272   C     0.43873   0.97404   0.16456   0.00000  Uiso   1.00
C273   C     0.45787   0.73271   0.44063   0.00000  Uiso   1.00
C274   C     0.51917   0.78556   0.10707   0.00000  Uiso   1.00
C275   C     0.45920   0.73254   0.39005   0.00000  Uiso   1.00
C276   C     0.48082   0.71463   0.10210   0.00000  Uiso   1.00
C277   C     0.54064   0.76746   0.40070   0.00000  Uiso   1.00
C278   C     0.48087   0.71398   0.05138   0.00000  Uiso   1.00
Cu279  Cu    0.50000   0.74999   0.29821   0.00000  Uiso   1.00
Cu280  Cu    0.50000   0.75000   0.20178   0.00000  Uiso   1.00
F281   F     0.53619   0.82378   0.03582   0.00000  Uiso   1.00
F282   F     0.41523   0.71694   0.45772   0.00000  Uiso   1.00
H283   H     0.65933   0.74999   0.19364   0.00000  Uiso   1.00
H284   H     0.42706   0.71853   0.36632   0.00000  Uiso   1.00
H285   H     0.46542   0.68647   0.11953   0.00000  Uiso   1.00
H286   H     0.57295   0.78140   0.38544   0.00000  Uiso   1.00
H287   H     0.46663   0.68477   0.03134   0.00000  Uiso   1.00
H288   H     0.57501   0.78052   0.47415   0.00000  Uiso   1.00
H289   H     0.42811   0.99050   0.31409   0.00000  Uiso   1.00
H290   H     0.43095   0.50927   0.16521   0.00000  Uiso   1.00
H291   H     0.34066   0.75001   0.30638   0.00000  Uiso   1.00
H292   H     0.45230   0.61366   0.30927   0.00000  Uiso   1.00
H293   H     0.45489   0.88626   0.17709   0.00000  Uiso   1.00
H294   H     0.54128   0.60940   0.19004   0.00000  Uiso   1.00
H295   H     0.53894   0.89084   0.32170   0.00000  Uiso   1.00
H296   H     0.53747   0.52850   0.19029   0.00000  Uiso   1.00
H297   H     0.53504   0.97172   0.32035   0.00000  Uiso   1.00
H298   H     0.53451   0.81357   0.12857   0.00000  Uiso   1.00
N299   N     0.50000   0.75001   0.12934   0.00000  Uiso   1.00
N300   N     0.50000   0.74999   0.37065   0.00000  Uiso   1.00
O301   O     0.50000   0.68572   0.29071   0.00000  Uiso   1.00
O302   O     0.42228   0.95331   0.12796   0.00000  Uiso   1.00
O303   O     0.50000   0.81427   0.20928   0.00000  Uiso   1.00
O304   O     0.50000   0.68573   0.20928   0.00000  Uiso   1.00
O305   O     0.50000   0.81427   0.29072   0.00000  Uiso   1.00
O306   O     0.42495   0.74999   0.28132   0.00000  Uiso   1.00
O307   O     0.57505   0.75000   0.21868   0.00000  Uiso   1.00
O308   O     0.42495   0.75000   0.19988   0.00000  Uiso   1.00
O309   O     0.57505   0.75000   0.30011   0.00000  Uiso   1.00
O310   O     0.41763   0.54649   0.34832   0.00000  Uiso   1.00
C311   C     0.83295   0.66494   0.25005   0.00000  Uiso   1.00
C312   C     0.87475   0.76748   0.45154   0.00000  Uiso   1.00
C313   C     0.83312   0.75041   0.02726   0.00000  Uiso   1.00
C314   C     0.83290   0.75024   0.47263   0.00000  Uiso   1.00
C315   C     0.73457   0.74998   0.23756   0.00000  Uiso   1.00
C316   C     0.93210   0.75001   0.26245   0.00000  Uiso   1.00
C317   C     0.67930   0.74999   0.23070   0.00000  Uiso   1.00
C318   C     0.98736   0.75000   0.26932   0.00000  Uiso   1.00
C319   C     0.80010   0.54832   0.28311   0.00000  Uiso   1.00
C320   C     0.80162   0.95162   0.20735   0.00000  Uiso   1.00
C321   C     0.80426   0.59460   0.28364   0.00000  Uiso   1.00
C322   C     0.83300   0.83507   0.24985   0.00000  Uiso   1.00
C323   C     0.80576   0.90536   0.20805   0.00000  Uiso   1.00
C324   C     0.83070   0.61670   0.25008   0.00000  Uiso   1.00
C325   C     0.83079   0.88333   0.24917   0.00000  Uiso   1.00
C326   C     0.85392   0.59267   0.21606   0.00000  Uiso   1.00
C327   C     0.85263   0.90747   0.28977   0.00000  Uiso   1.00
C328   C     0.85158   0.54675   0.21611   0.00000  Uiso   1.00
C329   C     0.85025   0.95339   0.28905   0.00000  Uiso   1.00
C330   C     0.82460   0.52432   0.24909   0.00000  Uiso   1.00
C331   C     0.82463   0.97571   0.24837   0.00000  Uiso   1.00
C332   C     0.76900   0.52578   0.31693   0.00000  Uiso   1.00
C333   C     0.85233   0.78671   0.05629   0.00000  Uiso   1.00
C334   C     0.77207   0.97404   0.16456   0.00000  Uiso   1.00
C335   C     0.79120   0.73271   0.44063   0.00000  Uiso   1.00
C336   C     0.85250   0.78556   0.10707   0.00000  Uiso   1.00
C337   C     0.79253   0.73254   0.39005   0.00000  Uiso   1.00
C338   C     0.81415   0.71463   0.10210   0.00000  Uiso   1.00
C339   C     0.87397   0.76746   0.40070   0.00000  Uiso   1.00
C340   C     0.81420   0.71398   0.05138   0.00000  Uiso   1.00
Cu341  Cu    0.83333   0.74999   0.29821   0.00000  Uiso   1.00
Cu342  Cu    0.83333   0.75000   0.20178   0.00000  Uiso   1.00
F343   F     0.86952   0.82378   0.03582   0.00000  Uiso   1.00
F344   F     0.74856   0.71694   0.45772   0.00000  Uiso   1.00
H345   H     0.99267   0.74999   0.19364   0.00000  Uiso   1.00
H346   H     0.76040   0.71853   0.36632   0.00000  Uiso   1.00
H347   H     0.79876   0.68647   0.11953   0.00000  Uiso   1.00
H348   H     0.90628   0.78140   0.38544   0.00000  Uiso   1.00
H349   H     0.79997   0.68477   0.03134   0.00000  Uiso   1.00
H350   H     0.90834   0.78052   0.47415   0.00000  Uiso   1.00
H351   H     0.76144   0.99050   0.31409   0.00000  Uiso   1.00
H352   H     0.76429   0.50927   0.16521   0.00000  Uiso   1.00
H353   H     0.67399   0.75001   0.30638   0.00000  Uiso   1.00
H354   H     0.78564   0.61366   0.30927   0.00000  Uiso   1.00
H355   H     0.78823   0.88626   0.17709   0.00000  Uiso   1.00
H356   H     0.87461   0.60940   0.19004   0.00000  Uiso   1.00
H357   H     0.87227   0.89084   0.32170   0.00000  Uiso   1.00
H358   H     0.87080   0.52850   0.19029   0.00000  Uiso   1.00
H359   H     0.86837   0.97172   0.32035   0.00000  Uiso   1.00
H360   H     0.86784   0.81357   0.12857   0.00000  Uiso   1.00
N361   N     0.83333   0.75001   0.12934   0.00000  Uiso   1.00
N362   N     0.83333   0.74999   0.37065   0.00000  Uiso   1.00
O363   O     0.83334   0.68572   0.29071   0.00000  Uiso   1.00
O364   O     0.75561   0.95331   0.12796   0.00000  Uiso   1.00
O365   O     0.83333   0.81427   0.20928   0.00000  Uiso   1.00
O366   O     0.83334   0.68573   0.20928   0.00000  Uiso   1.00
O367   O     0.83333   0.81427   0.29072   0.00000  Uiso   1.00
O368   O     0.75828   0.74999   0.28132   0.00000  Uiso   1.00
O369   O     0.90839   0.75000   0.21868   0.00000  Uiso   1.00
O370   O     0.75828   0.75000   0.19988   0.00000  Uiso   1.00
O371   O     0.90839   0.75000   0.30011   0.00000  Uiso   1.00
O372   O     0.75097   0.54649   0.34832   0.00000  Uiso   1.00
C373   C     0.16629   0.16494   0.75005   0.00000  Uiso   1.00
C374   C     0.20808   0.26748   0.95154   0.00000  Uiso   1.00
C375   C     0.16645   0.25041   0.52726   0.00000  Uiso   1.00
C376   C     0.16624   0.25024   0.97263   0.00000  Uiso   1.00
C377   C     0.06790   0.24998   0.73756   0.00000  Uiso   1.00
C378   C     0.26543   0.25001   0.76245   0.00000  Uiso   1.00
C379   C     0.01264   0.24999   0.73070   0.00000  Uiso   1.00
C380   C     0.32070   0.25000   0.76932   0.00000  Uiso   1.00
C381   C     0.13343   0.04832   0.78311   0.00000  Uiso   1.00
C382   C     0.13495   0.45162   0.70735   0.00000  Uiso   1.00
C383   C     0.13759   0.09460   0.78364   0.00000  Uiso   1.00
C384   C     0.16633   0.33507   0.74985   0.00000  Uiso   1.00
C385   C     0.13910   0.40536   0.70805   0.00000  Uiso   1.00
C386   C     0.16404   0.11670   0.75008   0.00000  Uiso   1.00
C387   C     0.16412   0.38333   0.74917   0.00000  Uiso   1.00
C388   C     0.18726   0.09267   0.71606   0.00000  Uiso   1.00
C389   C     0.18597   0.40747   0.78977   0.00000  Uiso   1.00
C390   C     0.18491   0.04675   0.71611   0.00000  Uiso   1.00
C391   C     0.18358   0.45339   0.78905   0.00000  Uiso   1.00
C392   C     0.15793   0.02432   0.74909   0.00000  Uiso   1.00
C393   C     0.15797   0.47571   0.74837   0.00000  Uiso   1.00
C394   C     0.10233   0.02578   0.81693   0.00000  Uiso   1.00
C395   C     0.18566   0.28671   0.55629   0.00000  Uiso   1.00
C396   C     0.10540   0.47404   0.66456   0.00000  Uiso   1.00
C397   C     0.12453   0.23271   0.94063   0.00000  Uiso   1.00
C398   C     0.18584   0.28556   0.60707   0.00000  Uiso   1.00
C399   C     0.12586   0.23254   0.89005   0.00000  Uiso   1.00
C400   C     0.14748   0.21463   0.60210   0.00000  Uiso   1.00
C401   C     0.20731   0.26746   0.90070   0.00000  Uiso   1.00
C402   C     0.14754   0.21398   0.55138   0.00000  Uiso   1.00
Cu403  Cu    0.16667   0.24999   0.79821   0.00000  Uiso   1.00
Cu404  Cu    0.16667   0.25000   0.70178   0.00000  Uiso   1.00
F405   F     0.20286   0.32378   0.53582   0.00000  Uiso   1.00
F406   F     0.08189   0.21694   0.95772   0.00000  Uiso   1.00
H407   H     0.32600   0.24999   0.69364   0.00000  Uiso   1.00
H408   H     0.09373   0.21853   0.86632   0.00000  Uiso   1.00
H409   H     0.13209   0.18647   0.61953   0.00000  Uiso   1.00
H410   H     0.23961   0.28140   0.88544   0.00000  Uiso   1.00
H411   H     0.13330   0.18477   0.53134   0.00000  Uiso   1.00
H412   H     0.24167   0.28052   0.97415   0.00000  Uiso   1.00
H413   H     0.09477   0.49050   0.81409   0.00000  Uiso   1.00
H414   H     0.09762   0.00927   0.66521   0.00000  Uiso   1.00
H415   H     0.00733   0.25001   0.80638   0.00000  Uiso   1.00
H416   H     0.11897   0.11366   0.80927   0.00000  Uiso   1.00
H417   H     0.12156   0.38626   0.67709   0.00000  Uiso   1.00
H418   H     0.20794   0.10940   0.69004   0.00000  Uiso   1.00
H419   H     0.20561   0.39084   0.82170   0.00000  Uiso   1.00
H420   H     0.20413   0.02850   0.69029   0.00000  Uiso   1.00
H421   H     0.20171   0.47172   0.82035   0.00000  Uiso   1.00
H422   H     0.20117   0.31357   0.62857   0.00000  Uiso   1.00
N423   N     0.16667   0.25001   0.62934   0.00000  Uiso   1.00
N424   N     0.16667   0.24999   0.87065   0.00000  Uiso   1.00
O425   O     0.16667   0.18572   0.79071   0.00000  Uiso   1.00
O426   O     0.08895   0.45331   0.62796   0.00000  Uiso   1.00
O427   O     0.16666   0.31427   0.70928   0.00000  Uiso   1.00
O428   O     0.16667   0.18573   0.70928   0.00000  Uiso   1.00
O429   O     0.16666   0.31427   0.79072   0.00000  Uiso   1.00
O430   O     0.09161   0.24999   0.78132   0.00000  Uiso   1.00
O431   O     0.24172   0.25000   0.71868   0.00000  Uiso   1.00
O432   O     0.09161   0.25000   0.69988   0.00000  Uiso   1.00
O433   O     0.24172   0.25000   0.80011   0.00000  Uiso   1.00
O434   O     0.08430   0.04649   0.84832   0.00000  Uiso   1.00
C435   C     0.49962   0.16494   0.75005   0.00000  Uiso   1.00
C436   C     0.54141   0.26748   0.95154   0.00000  Uiso   1.00
C437   C     0.49978   0.25041   0.52726   0.00000  Uiso   1.00
C438   C     0.49957   0.25024   0.97263   0.00000  Uiso   1.00
C439   C     0.40123   0.24998   0.73756   0.00000  Uiso   1.00
C440   C     0.59877   0.25001   0.76245   0.00000  Uiso   1.00
C441   C     0.34597   0.24999   0.73070   0.00000  Uiso   1.00
C442   C     0.65403   0.25000   0.76932   0.00000  Uiso   1.00
C443   C     0.46677   0.04832   0.78311   0.00000  Uiso   1.00
C444   C     0.46829   0.45162   0.70735   0.00000  Uiso   1.00
C445   C     0.47092   0.09460   0.78364   0.00000  Uiso   1.00
C446   C     0.49966   0.33507   0.74985   0.00000  Uiso   1.00
C447   C     0.47243   0.40536   0.70805   0.00000  Uiso   1.00
C448   C     0.49737   0.11670   0.75008   0.00000  Uiso   1.00
C449   C     0.49745   0.38333   0.74917   0.00000  Uiso   1.00
C450   C     0.52059   0.09267   0.71606   0.00000  Uiso   1.00
C451   C     0.51930   0.40747   0.78977   0.00000  Uiso   1.00
C452   C     0.51825   0.04675   0.71611   0.00000  Uiso   1.00
C453   C     0.51691   0.45339   0.78905   0.00000  Uiso   1.00
C454   C     0.49127   0.02432   0.74909   0.00000  Uiso   1.00
C455   C     0.49130   0.47571   0.74837   0.00000  Uiso   1.00
C456   C     0.43566   0.02578   0.81693   0.00000  Uiso   1.00
C457   C     0.51900   0.28671   0.55629   0.00000  Uiso   1.00
C458   C     0.43873   0.47404   0.66456   0.00000  Uiso   1.00
C459   C     0.45787   0.23271   0.94063   0.00000  Uiso   1.00
C460   C     0.51917   0.28556   0.60707   0.00000  Uiso   1.00
C461   C     0.45920   0.23254   0.89005   0.00000  Uiso   1.00
C462   C     0.48082   0.21463   0.60210   0.00000  Uiso   1.00
C463   C     0.54064   0.26746   0.90070   0.00000  Uiso   1.00
C464   C     0.48087   0.21398   0.55138   0.00000  Uiso   1.00
Cu465  Cu    0.50000   0.24999   0.79821   0.00000  Uiso   1.00
Cu466  Cu    0.50000   0.25000   0.70178   0.00000  Uiso   1.00
F467   F     0.53619   0.32378   0.53582   0.00000  Uiso   1.00
F468   F     0.41523   0.21694   0.95772   0.00000  Uiso   1.00
H469   H     0.65933   0.24999   0.69364   0.00000  Uiso   1.00
H470   H     0.42706   0.21853   0.86632   0.00000  Uiso   1.00
H471   H     0.46542   0.18647   0.61953   0.00000  Uiso   1.00
H472   H     0.57295   0.28140   0.88544   0.00000  Uiso   1.00
H473   H     0.46663   0.18477   0.53134   0.00000  Uiso   1.00
H474   H     0.57501   0.28052   0.97415   0.00000  Uiso   1.00
H475   H     0.42811   0.49050   0.81409   0.00000  Uiso   1.00
H476   H     0.43095   0.00927   0.66521   0.00000  Uiso   1.00
H477   H     0.34066   0.25001   0.80638   0.00000  Uiso   1.00
H478   H     0.45230   0.11366   0.80927   0.00000  Uiso   1.00
H479   H     0.45489   0.38626   0.67709   0.00000  Uiso   1.00
H480   H     0.54128   0.10940   0.69004   0.00000  Uiso   1.00
H481   H     0.53894   0.39084   0.82170   0.00000  Uiso   1.00
H482   H     0.53747   0.02850   0.69029   0.00000  Uiso   1.00
H483   H     0.53504   0.47172   0.82035   0.00000  Uiso   1.00
H484   H     0.53451   0.31357   0.62857   0.00000  Uiso   1.00
N485   N     0.50000   0.25001   0.62934   0.00000  Uiso   1.00
N486   N     0.50000   0.24999   0.87065   0.00000  Uiso   1.00
O487   O     0.50000   0.18572   0.79071   0.00000  Uiso   1.00
O488   O     0.42228   0.45331   0.62796   0.00000  Uiso   1.00
O489   O     0.50000   0.31427   0.70928   0.00000  Uiso   1.00
O490   O     0.50000   0.18573   0.70928   0.00000  Uiso   1.00
O491   O     0.50000   0.31427   0.79072   0.00000  Uiso   1.00
O492   O     0.42495   0.24999   0.78132   0.00000  Uiso   1.00
O493   O     0.57505   0.25000   0.71868   0.00000  Uiso   1.00
O494   O     0.42495   0.25000   0.69988   0.00000  Uiso   1.00
O495   O     0.57505   0.25000   0.80011   0.00000  Uiso   1.00
O496   O     0.41763   0.04649   0.84832   0.00000  Uiso   1.00
C497   C     0.83295   0.16494   0.75005   0.00000  Uiso   1.00
C498   C     0.87475   0.26748   0.95154   0.00000  Uiso   1.00
C499   C     0.83312   0.25041   0.52726   0.00000  Uiso   1.00
C500   C     0.83290   0.25024   0.97263   0.00000  Uiso   1.00
C501   C     0.73457   0.24998   0.73756   0.00000  Uiso   1.00
C502   C     0.93210   0.25001   0.76245   0.00000  Uiso   1.00
C503   C     0.67930   0.24999   0.73070   0.00000  Uiso   1.00
C504   C     0.98736   0.25000   0.76932   0.00000  Uiso   1.00
C505   C     0.80010   0.04832   0.78311   0.00000  Uiso   1.00
C506   C     0.80162   0.45162   0.70735   0.00000  Uiso   1.00
C507   C     0.80426   0.09460   0.78364   0.00000  Uiso   1.00
C508   C     0.83300   0.33507   0.74985   0.00000  Uiso   1.00
C509   C     0.80576   0.40536   0.70805   0.00000  Uiso   1.00
C510   C     0.83070   0.11670   0.75008   0.00000  Uiso   1.00
C511   C     0.83079   0.38333   0.74917   0.00000  Uiso   1.00
C512   C     0.85392   0.09267   0.71606   0.00000  Uiso   1.00
C513   C     0.85263   0.40747   0.78977   0.00000  Uiso   1.00
C514   C     0.85158   0.04675   0.71611   0.00000  Uiso   1.00
C515   C     0.85025   0.45339   0.78905   0.00000  Uiso   1.00
C516   C     0.82460   0.02432   0.74909   0.00000  Uiso   1.00
C517   C     0.82463   0.47571   0.74837   0.00000  Uiso   1.00
C518   C     0.76900   0.02578   0.81693   0.00000  Uiso   1.00
C519   C     0.85233   0.28671   0.55629   0.00000  Uiso   1.00
C520   C     0.77207   0.47404   0.66456   0.00000  Uiso   1.00
C521   C     0.79120   0.23271   0.94063   0.00000  Uiso   1.00
C522   C     0.85250   0.28556   0.60707   0.00000  Uiso   1.00
C523   C     0.79253   0.23254   0.89005   0.00000  Uiso   1.00
C524   C     0.81415   0.21463   0.60210   0.00000  Uiso   1.00
C525   C     0.87397   0.26746   0.90070   0.00000  Uiso   1.00
C526   C     0.81420   0.21398   0.55138   0.00000  Uiso   1.00
Cu527  Cu    0.83333   0.24999   0.79821   0.00000  Uiso   1.00
Cu528  Cu    0.83333   0.25000   0.70178   0.00000  Uiso   1.00
F529   F     0.86952   0.32378   0.53582   0.00000  Uiso   1.00
F530   F     0.74856   0.21694   0.95772   0.00000  Uiso   1.00
H531   H     0.99267   0.24999   0.69364   0.00000  Uiso   1.00
H532   H     0.76040   0.21853   0.86632   0.00000  Uiso   1.00
H533   H     0.79876   0.18647   0.61953   0.00000  Uiso   1.00
H534   H     0.90628   0.28140   0.88544   0.00000  Uiso   1.00
H535   H     0.79997   0.18477   0.53134   0.00000  Uiso   1.00
H536   H     0.90834   0.28052   0.97415   0.00000  Uiso   1.00
H537   H     0.76144   0.49050   0.81409   0.00000  Uiso   1.00
H538   H     0.76429   0.00927   0.66521   0.00000  Uiso   1.00
H539   H     0.67399   0.25001   0.80638   0.00000  Uiso   1.00
H540   H     0.78564   0.11366   0.80927   0.00000  Uiso   1.00
H541   H     0.78823   0.38626   0.67709   0.00000  Uiso   1.00
H542   H     0.87461   0.10940   0.69004   0.00000  Uiso   1.00
H543   H     0.87227   0.39084   0.82170   0.00000  Uiso   1.00
H544   H     0.87080   0.02850   0.69029   0.00000  Uiso   1.00
H545   H     0.86837   0.47172   0.82035   0.00000  Uiso   1.00
H546   H     0.86784   0.31357   0.62857   0.00000  Uiso   1.00
N547   N     0.83333   0.25001   0.62934   0.00000  Uiso   1.00
N548   N     0.83333   0.24999   0.87065   0.00000  Uiso   1.00
O549   O     0.83334   0.18572   0.79071   0.00000  Uiso   1.00
O550   O     0.75561   0.45331   0.62796   0.00000  Uiso   1.00
O551   O     0.83333   0.31427   0.70928   0.00000  Uiso   1.00
O552   O     0.83334   0.18573   0.70928   0.00000  Uiso   1.00
O553   O     0.83333   0.31427   0.79072   0.00000  Uiso   1.00
O554   O     0.75828   0.24999   0.78132   0.00000  Uiso   1.00
O555   O     0.90839   0.25000   0.71868   0.00000  Uiso   1.00
O556   O     0.75828   0.25000   0.69988   0.00000  Uiso   1.00
O557   O     0.90839   0.25000   0.80011   0.00000  Uiso   1.00
O558   O     0.75097   0.04649   0.84832   0.00000  Uiso   1.00
C559   C     0.16629   0.66494   0.75005   0.00000  Uiso   1.00
C560   C     0.20808   0.76748   0.95154   0.00000  Uiso   1.00
C561   C     0.16645   0.75041   0.52726   0.00000  Uiso   1.00
C562   C     0.16624   0.75024   0.97263   0.00000  Uiso   1.00
C563   C     0.06790   0.74998   0.73756   0.00000  Uiso   1.00
C564   C     0.26543   0.75001   0.76245   0.00000  Uiso   1.00
C565   C     0.01264   0.74999   0.73070   0.00000  Uiso   1.00
C566   C     0.32070   0.75000   0.76932   0.00000  Uiso   1.00
C567   C     0.13343   0.54832   0.78311   0.00000  Uiso   1.00
C568   C     0.13495   0.95162   0.70735   0.00000  Uiso   1.00
C569   C     0.13759   0.59460   0.78364   0.00000  Uiso   1.00
C570   C     0.16633   0.83507   0.74985   0.00000  Uiso   1.00
C571   C     0.13910   0.90536   0.70805   0.00000  Uiso   1.00
C572   C     0.16404   0.61670   0.75008   0.00000  Uiso   1.00
C573   C     0.16412   0.88333   0.74917   0.00000  Uiso   1.00
C574   C     0.18726   0.59267   0.71606   0.00000  Uiso   1.00
C575   C     0.18597   0.90747   0.78977   0.00000  Uiso   1.00
C576   C     0.18491   0.54675   0.71611   0.00000  Uiso   1.00
C577   C     0.18358   0.95339   0.78905   0.00000  Uiso   1.00
C578   C     0.15793   0.52432   0.74909   0.00000  Uiso   1.00
C579   C     0.15797   0.97571   0.74837   0.00000  Uiso   1.00
C580   C     0.10233   0.52578   0.81693   0.00000  Uiso   1.00
C581   C     0.18566   0.78671   0.55629   0.00000  Uiso   1.00
C582   C     0.10540   0.97404   0.66456   0.00000  Uiso   1.00
C583   C     0.12453   0.73271   0.94063   0.00000  Uiso   1.00
C584   C     0.18584   0.78556   0.60707   0.00000  Uiso   1.00
C585   C     0.12586   0.73254   0.89005   0.00000  Uiso   1.00
C586   C     0.14748   0.71463   0.60210   0.00000  Uiso   1.00
C587   C     0.20731   0.76746   0.90070   0.00000  Uiso   1.00
C588   C     0.14754   0.71398   0.55138   0.00000  Uiso   1.00
Cu589  Cu    0.16667   0.74999   0.79821   0.00000  Uiso   1.00
Cu590  Cu    0.16667   0.75000   0.70178   0.00000  Uiso   1.00
F591   F     0.20286   0.82378   0.53582   0.00000  Uiso   1.00
F592   F     0.08189   0.71694   0.95772   0.00000  Uiso   1.00
H593   H     0.32600   0.74999   0.69364   0.00000  Uiso   1.00
H594   H     0.09373   0.71853   0.86632   0.00000  Uiso   1.00
H595   H     0.13209   0.68647   0.61953   0.00000  Uiso   1.00
H596   H     0.23961   0.78140   0.88544   0.00000  Uiso   1.00
H597   H     0.13330   0.68477   0.53134   0.00000  Uiso   1.00
H598   H     0.24167   0.78052   0.97415   0.00000  Uiso   1.00
H599   H     0.09477   0.99050   0.81409   0.00000  Uiso   1.00
H600   H     0.09762   0.50927   0.66521   0.00000  Uiso   1.00
H601   H     0.00733   0.75001   0.80638   0.00000  Uiso   1.00
H602   H     0.11897   0.61366   0.80927   0.00000  Uiso   1.00
H603   H     0.12156   0.88626   0.67709   0.00000  Uiso   1.00
H604   H     0.20794   0.60940   0.69004   0.00000  Uiso   1.00
H605   H     0.20561   0.89084   0.82170   0.00000  Uiso   1.00
H606   H     0.20413   0.52850   0.69029   0.00000  Uiso   1.00
H607   H     0.20171   0.97172   0.82035   0.00000  Uiso   1.00
H608   H     0.20117   0.81357   0.62857   0.00000  Uiso   1.00
N609   N     0.16667   0.75001   0.62934   0.00000  Uiso   1.00
N610   N     0.16667   0.74999   0.87065   0.00000  Uiso   1.00
O611   O     0.16667   0.68572   0.79071   0.00000  Uiso   1.00
O612   O     0.08895   0.95331   0.62796   0.00000  Uiso   1.00
O613   O     0.16666   0.81427   0.70928   0.00000  Uiso   1.00
O614   O     0.16667   0.68573   0.70928   0.00000  Uiso   1.00
O615   O     0.16666   0.81427   0.79072   0.00000  Uiso   1.00
O616   O     0.09161   0.74999   0.78132   0.00000  Uiso   1.00
O617   O     0.24172   0.75000   0.71868   0.00000  Uiso   1.00
O618   O     0.09161   0.75000   0.69988   0.00000  Uiso   1.00
O619   O     0.24172   0.75000   0.80011   0.00000  Uiso   1.00
O620   O     0.08430   0.54649   0.84832   0.00000  Uiso   1.00
C621   C     0.49962   0.66494   0.75005   0.00000  Uiso   1.00
C622   C     0.54141   0.76748   0.95154   0.00000  Uiso   1.00
C623   C     0.49978   0.75041   0.52726   0.00000  Uiso   1.00
C624   C     0.49957   0.75024   0.97263   0.00000  Uiso   1.00
C625   C     0.40123   0.74998   0.73756   0.00000  Uiso   1.00
C626   C     0.59877   0.75001   0.76245   0.00000  Uiso   1.00
C627   C     0.34597   0.74999   0.73070   0.00000  Uiso   1.00
C628   C     0.65403   0.75000   0.76932   0.00000  Uiso   1.00
C629   C     0.46677   0.54832   0.78311   0.00000  Uiso   1.00
C630   C     0.46829   0.95162   0.70735   0.00000  Uiso   1.00
C631   C     0.47092   0.59460   0.78364   0.00000  Uiso   1.00
C632   C     0.49966   0.83507   0.74985   0.00000  Uiso   1.00
C633   C     0.47243   0.90536   0.70805   0.00000  Uiso   1.00
C634   C     0.49737   0.61670   0.75008   0.00000  Uiso   1.00
C635   C     0.49745   0.88333   0.74917   0.00000  Uiso   1.00
C636   C     0.52059   0.59267   0.71606   0.00000  Uiso   1.00
C637   C     0.51930   0.90747   0.78977   0.00000  Uiso   1.00
C638   C     0.51825   0.54675   0.71611   0.00000  Uiso   1.00
C639   C     0.51691   0.95339   0.78905   0.00000  Uiso   1.00
C640   C     0.49127   0.52432   0.74909   0.00000  Uiso   1.00
C641   C     0.49130   0.97571   0.74837   0.00000  Uiso   1.00
C642   C     0.43566   0.52578   0.81693   0.00000  Uiso   1.00
C643   C     0.51900   0.78671   0.55629   0.00000  Uiso   1.00
C644   C     0.43873   0.97404   0.66456   0.00000  Uiso   1.00
C645   C     0.45787   0.73271   0.94063   0.00000  Uiso   1.00
C646   C     0.51917   0.78556   0.60707   0.00000  Uiso   1.00
C647   C     0.45920   0.73254   0.89005   0.00000  Uiso   1.00
C648   C     0.48082   0.71463   0.60210   0.00000  Uiso   1.00
C649   C     0.54064   0.76746   0.90070   0.00000  Uiso   1.00
C650   C     0.48087   0.71398   0.55138   0.00000  Uiso   1.00
Cu651  Cu    0.50000   0.74999   0.79821   0.00000  Uiso   1.00
Cu652  Cu    0.50000   0.75000   0.70178   0.00000  Uiso   1.00
F653   F     0.53619   0.82378   0.53582   0.00000  Uiso   1.00
F654   F     0.41523   0.71694   0.95772   0.00000  Uiso   1.00
H655   H     0.65933   0.74999   0.69364   0.00000  Uiso   1.00
H656   H     0.42706   0.71853   0.86632   0.00000  Uiso   1.00
H657   H     0.46542   0.68647   0.61953   0.00000  Uiso   1.00
H658   H     0.57295   0.78140   0.88544   0.00000  Uiso   1.00
H659   H     0.46663   0.68477   0.53134   0.00000  Uiso   1.00
H660   H     0.57501   0.78052   0.97415   0.00000  Uiso   1.00
H661   H     0.42811   0.99050   0.81409   0.00000  Uiso   1.00
H662   H     0.43095   0.50927   0.66521   0.00000  Uiso   1.00
H663   H     0.34066   0.75001   0.80638   0.00000  Uiso   1.00
H664   H     0.45230   0.61366   0.80927   0.00000  Uiso   1.00
H665   H     0.45489   0.88626   0.67709   0.00000  Uiso   1.00
H666   H     0.54128   0.60940   0.69004   0.00000  Uiso   1.00
H667   H     0.53894   0.89084   0.82170   0.00000  Uiso   1.00
H668   H     0.53747   0.52850   0.69029   0.00000  Uiso   1.00
H669   H     0.53504   0.97172   0.82035   0.00000  Uiso   1.00
H670   H     0.53451   0.81357   0.62857   0.00000  Uiso   1.00
N671   N     0.50000   0.75001   0.62934   0.00000  Uiso   1.00
N672   N     0.50000   0.74999   0.87065   0.00000  Uiso   1.00
O673   O     0.50000   0.68572   0.79071   0.00000  Uiso   1.00
O674   O     0.42228   0.95331   0.62796   0.00000  Uiso   1.00
O675   O     0.50000   0.81427   0.70928   0.00000  Uiso   1.00
O676   O     0.50000   0.68573   0.70928   0.00000  Uiso   1.00
O677   O     0.50000   0.81427   0.79072   0.00000  Uiso   1.00
O678   O     0.42495   0.74999   0.78132   0.00000  Uiso   1.00
O679   O     0.57505   0.75000   0.71868   0.00000  Uiso   1.00
O680   O     0.42495   0.75000   0.69988   0.00000  Uiso   1.00
O681   O     0.57505   0.75000   0.80011   0.00000  Uiso   1.00
O682   O     0.41763   0.54649   0.84832   0.00000  Uiso   1.00
C683   C     0.83295   0.66494   0.75005   0.00000  Uiso   1.00
C684   C     0.87475   0.76748   0.95154   0.00000  Uiso   1.00
C685   C     0.83312   0.75041   0.52726   0.00000  Uiso   1.00
C686   C     0.83290   0.75024   0.97263   0.00000  Uiso   1.00
C687   C     0.73457   0.74998   0.73756   0.00000  Uiso   1.00
C688   C     0.93210   0.75001   0.76245   0.00000  Uiso   1.00
C689   C     0.67930   0.74999   0.73070   0.00000  Uiso   1.00
C690   C     0.98736   0.75000   0.76932   0.00000  Uiso   1.00
C691   C     0.80010   0.54832   0.78311   0.00000  Uiso   1.00
C692   C     0.80162   0.95162   0.70735   0.00000  Uiso   1.00
C693   C     0.80426   0.59460   0.78364   0.00000  Uiso   1.00
C694   C     0.83300   0.83507   0.74985   0.00000  Uiso   1.00
C695   C     0.80576   0.90536   0.70805   0.00000  Uiso   1.00
C696   C     0.83070   0.61670   0.75008   0.00000  Uiso   1.00
C697   C     0.83079   0.88333   0.74917   0.00000  Uiso   1.00
C698   C     0.85392   0.59267   0.71606   0.00000  Uiso   1.00
C699   C     0.85263   0.90747   0.78977   0.00000  Uiso   1.00
C700   C     0.85158   0.54675   0.71611   0.00000  Uiso   1.00
C701   C     0.85025   0.95339   0.78905   0.00000  Uiso   1.00
C702   C     0.82460   0.52432   0.74909   0.00000  Uiso   1.00
C703   C     0.82463   0.97571   0.74837   0.00000  Uiso   1.00
C704   C     0.76900   0.52578   0.81693   0.00000  Uiso   1.00
C705   C     0.85233   0.78671   0.55629   0.00000  Uiso   1.00
C706   C     0.77207   0.97404   0.66456   0.00000  Uiso   1.00
C707   C     0.79120   0.73271   0.94063   0.00000  Uiso   1.00
C708   C     0.85250   0.78556   0.60707   0.00000  Uiso   1.00
C709   C     0.79253   0.73254   0.89005   0.00000  Uiso   1.00
C710   C     0.81415   0.71463   0.60210   0.00000  Uiso   1.00
C711   C     0.87397   0.76746   0.90070   0.00000  Uiso   1.00
C712   C     0.81420   0.71398   0.55138   0.00000  Uiso   1.00
Cu713  Cu    0.83333   0.74999   0.79821   0.00000  Uiso   1.00
Cu714  Cu    0.83333   0.75000   0.70178   0.00000  Uiso   1.00
F715   F     0.86952   0.82378   0.53582   0.00000  Uiso   1.00
F716   F     0.74856   0.71694   0.95772   0.00000  Uiso   1.00
H717   H     0.99267   0.74999   0.69364   0.00000  Uiso   1.00
H718   H     0.76040   0.71853   0.86632   0.00000  Uiso   1.00
H719   H     0.79876   0.68647   0.61953   0.00000  Uiso   1.00
H720   H     0.90628   0.78140   0.88544   0.00000  Uiso   1.00
H721   H     0.79997   0.68477   0.53134   0.00000  Uiso   1.00
H722   H     0.90834   0.78052   0.97415   0.00000  Uiso   1.00
H723   H     0.76144   0.99050   0.81409   0.00000  Uiso   1.00
H724   H     0.76429   0.50927   0.66521   0.00000  Uiso   1.00
H725   H     0.67399   0.75001   0.80638   0.00000  Uiso   1.00
H726   H     0.78564   0.61366   0.80927   0.00000  Uiso   1.00
H727   H     0.78823   0.88626   0.67709   0.00000  Uiso   1.00
H728   H     0.87461   0.60940   0.69004   0.00000  Uiso   1.00
H729   H     0.87227   0.89084   0.82170   0.00000  Uiso   1.00
H730   H     0.87080   0.52850   0.69029   0.00000  Uiso   1.00
H731   H     0.86837   0.97172   0.82035   0.00000  Uiso   1.00
H732   H     0.86784   0.81357   0.62857   0.00000  Uiso   1.00
N733   N     0.83333   0.75001   0.62934   0.00000  Uiso   1.00
N734   N     0.83333   0.74999   0.87065   0.00000  Uiso   1.00
O735   O     0.83334   0.68572   0.79071   0.00000  Uiso   1.00
O736   O     0.75561   0.95331   0.62796   0.00000  Uiso   1.00
O737   O     0.83333   0.81427   0.70928   0.00000  Uiso   1.00
O738   O     0.83334   0.68573   0.70928   0.00000  Uiso   1.00
O739   O     0.83333   0.81427   0.79072   0.00000  Uiso   1.00
O740   O     0.75828   0.74999   0.78132   0.00000  Uiso   1.00
O741   O     0.90839   0.75000   0.71868   0.00000  Uiso   1.00
O742   O     0.75828   0.75000   0.69988   0.00000  Uiso   1.00
O743   O     0.90839   0.75000   0.80011   0.00000  Uiso   1.00
O744   O     0.75097   0.54649   0.84832   0.00000  Uiso   1.00
loop_
_geom_bond_atom_site_label_1
_geom_bond_atom_site_label_2
_geom_bond_distance
_geom_bond_site_symmetry_2
_ccdc_geom_bond_type
C1     O56     1.293   .     A
C1     O53     1.292   .     A
C1     C14     1.457   .     S
C2     C4      1.410   .     A
C2     C29     1.408   .     A
C2     H40     1.082   .     S
C3     C30     1.409   .     A
C3     C23     1.412   .     A
C3     C376    1.515   1_554 S
C4     C25     1.412   .     A
C4     C375    1.515   .     S
C5     C7      1.434   .     S
C5     O58     1.285   .     A
C5     O60     1.287   .     A
C6     O61     1.287   .     A
C6     C8      1.434   .     S
C6     O59     1.285   .     A
C7     C132    1.335   1_455 S
C7     H159    1.087   1_455 S
C8     C69     1.335   .     S
C8     H105    1.087   .     S
C9     C20     1.415   .     A
C9     C11     1.401   .     A
C9     C22     1.487   .     S
C10    C24     1.487   .     S
C10    C13     1.401   .     A
C10    C21     1.415   .     A
C11    H44     1.084   .     S
C11    C14     1.401   .     A
C12    C15     1.458   .     S
C12    O57     1.293   .     A
C12    O55     1.292   .     A
C13    C15     1.401   .     A
C13    H45     1.084   .     S
C14    C16     1.397   .     A
C15    C17     1.398   .     A
C16    C18     1.388   .     A
C16    H46     1.083   .     S
C17    C19     1.388   .     A
C17    H47     1.083   .     S
C18    C20     1.402   .     A
C18    H48     1.084   .     S
C19    C21     1.402   .     A
C19    H49     1.084   .     S
C20    C207    1.468   1_545 S
C21    C206    1.468   .     S
C22    O62     1.221   .     D
C22    H227    1.084   1_545 S
C23    C26     1.409   .     A
C23    F33     1.357   .     S
C24    O54     1.221   .     D
C24    H228    1.084   .     S
C25    C27     1.408   .     A
C25    F34     1.357   .     S
C26    N51     1.365   .     A
C26    H50     1.081   .     S
C27    H36     1.081   .     S
C27    N52     1.365   .     A
C28    C30     1.407   .     A
C28    H37     1.081   .     S
C28    N51     1.365   .     A
C29    H38     1.081   .     S
C29    N52     1.365   .     A
C30    H39     1.082   .     S
Cu31   O61     1.960   .     S
Cu31   Cu32    2.675   .     S
Cu31   N52     2.010   .     S
Cu31   O57     1.951   .     S
Cu31   O53     1.952   .     S
Cu31   O58     1.958   .     S
Cu32   N51     2.010   .     S
Cu32   O59     1.958   .     S
Cu32   O60     1.960   .     S
Cu32   O55     1.952   .     S
Cu32   O56     1.951   .     S
H35    C69     1.087   .     S
H41    C208    1.084   .     S
H42    C210    1.084   1_545 S
H43    C132    1.087   1_455 S
C63    O118    1.293   .     A
C63    O115    1.292   .     A
C63    C76     1.457   .     S
C64    C66     1.410   .     A
C64    C91     1.408   .     A
C64    H102    1.082   .     S
C65    C92     1.409   .     A
C65    C85     1.412   .     A
C65    C438    1.515   1_554 S
C66    C87     1.412   .     A
C66    C437    1.515   .     S
C67    C69     1.434   .     S
C67    O120    1.285   .     A
C67    O122    1.287   .     A
C68    O123    1.287   .     A
C68    C70     1.434   .     S
C68    O121    1.285   .     A
C70    C131    1.335   .     S
C70    H167    1.087   .     S
C71    C82     1.415   .     A
C71    C73     1.401   .     A
C71    C84     1.487   .     S
C72    C86     1.487   .     S
C72    C75     1.401   .     A
C72    C83     1.415   .     A
C73    H106    1.084   .     S
C73    C76     1.401   .     A
C74    C77     1.458   .     S
C74    O119    1.293   .     A
C74    O117    1.292   .     A
C75    C77     1.401   .     A
C75    H107    1.084   .     S
C76    C78     1.397   .     A
C77    C79     1.398   .     A
C78    C80     1.388   .     A
C78    H108    1.083   .     S
C79    C81     1.388   .     A
C79    H109    1.083   .     S
C80    C82     1.402   .     A
C80    H110    1.084   .     S
C81    C83     1.402   .     A
C81    H111    1.084   .     S
C82    C269    1.468   1_545 S
C83    C268    1.468   .     S
C84    O124    1.221   .     D
C84    H289    1.084   1_545 S
C85    C88     1.409   .     A
C85    F95     1.357   .     S
C86    O116    1.221   .     D
C86    H290    1.084   .     S
C87    C89     1.408   .     A
C87    F96     1.357   .     S
C88    N113    1.365   .     A
C88    H112    1.081   .     S
C89    H98     1.081   .     S
C89    N114    1.365   .     A
C90    C92     1.407   .     A
C90    H99     1.081   .     S
C90    N113    1.365   .     A
C91    H100    1.081   .     S
C91    N114    1.365   .     A
C92    H101    1.082   .     S
Cu93   O123    1.960   .     S
Cu93   Cu94    2.675   .     S
Cu93   N114    2.010   .     S
Cu93   O119    1.951   .     S
Cu93   O115    1.952   .     S
Cu93   O120    1.958   .     S
Cu94   N113    2.010   .     S
Cu94   O121    1.958   .     S
Cu94   O122    1.960   .     S
Cu94   O117    1.952   .     S
Cu94   O118    1.951   .     S
H97    C131    1.087   .     S
H103   C270    1.084   .     S
H104   C272    1.084   1_545 S
C125   O180    1.293   .     A
C125   O177    1.292   .     A
C125   C138    1.457   .     S
C126   C128    1.410   .     A
C126   C153    1.408   .     A
C126   H164    1.082   .     S
C127   C154    1.409   .     A
C127   C147    1.412   .     A
C127   C500    1.515   1_554 S
C128   C149    1.412   .     A
C128   C499    1.515   .     S
C129   C131    1.434   .     S
C129   O182    1.285   .     A
C129   O184    1.287   .     A
C130   O185    1.287   .     A
C130   C132    1.434   .     S
C130   O183    1.285   .     A
C132   C7      1.335   1_655 S
C132   H43     1.087   1_655 S
C133   C144    1.415   .     A
C133   C135    1.401   .     A
C133   C146    1.487   .     S
C134   C148    1.487   .     S
C134   C137    1.401   .     A
C134   C145    1.415   .     A
C135   H168    1.084   .     S
C135   C138    1.401   .     A
C136   C139    1.458   .     S
C136   O181    1.293   .     A
C136   O179    1.292   .     A
C137   C139    1.401   .     A
C137   H169    1.084   .     S
C138   C140    1.397   .     A
C139   C141    1.398   .     A
C140   C142    1.388   .     A
C140   H170    1.083   .     S
C141   C143    1.388   .     A
C141   H171    1.083   .     S
C142   C144    1.402   .     A
C142   H172    1.084   .     S
C143   C145    1.402   .     A
C143   H173    1.084   .     S
C144   C331    1.468   1_545 S
C145   C330    1.468   .     S
C146   O186    1.221   .     D
C146   H351    1.084   1_545 S
C147   C150    1.409   .     A
C147   F157    1.357   .     S
C148   O178    1.221   .     D
C148   H352    1.084   .     S
C149   C151    1.408   .     A
C149   F158    1.357   .     S
C150   N175    1.365   .     A
C150   H174    1.081   .     S
C151   H160    1.081   .     S
C151   N176    1.365   .     A
C152   C154    1.407   .     A
C152   H161    1.081   .     S
C152   N175    1.365   .     A
C153   H162    1.081   .     S
C153   N176    1.365   .     A
C154   H163    1.082   .     S
Cu155  O185    1.960   .     S
Cu155  Cu156   2.675   .     S
Cu155  N176    2.010   .     S
Cu155  O181    1.951   .     S
Cu155  O177    1.952   .     S
Cu155  O182    1.958   .     S
Cu156  N175    2.010   .     S
Cu156  O183    1.958   .     S
Cu156  O184    1.960   .     S
Cu156  O179    1.952   .     S
Cu156  O180    1.951   .     S
H159   C7      1.087   1_655 S
H165   C332    1.084   .     S
H166   C334    1.084   1_545 S
C187   O242    1.293   .     A
C187   O239    1.292   .     A
C187   C200    1.457   .     S
C188   C190    1.410   .     A
C188   C215    1.408   .     A
C188   H226    1.082   .     S
C189   C216    1.409   .     A
C189   C209    1.412   .     A
C189   C562    1.515   1_554 S
C190   C211    1.412   .     A
C190   C561    1.515   .     S
C191   C193    1.434   .     S
C191   O244    1.285   .     A
C191   O246    1.287   .     A
C192   O247    1.287   .     A
C192   C194    1.434   .     S
C192   O245    1.285   .     A
C193   C318    1.335   1_455 S
C193   H345    1.087   1_455 S
C194   C255    1.335   .     S
C194   H291    1.087   .     S
C195   C206    1.415   .     A
C195   C197    1.401   .     A
C195   C208    1.487   .     S
C196   C210    1.487   .     S
C196   C199    1.401   .     A
C196   C207    1.415   .     A
C197   H230    1.084   .     S
C197   C200    1.401   .     A
C198   C201    1.458   .     S
C198   O243    1.293   .     A
C198   O241    1.292   .     A
C199   C201    1.401   .     A
C199   H231    1.084   .     S
C200   C202    1.397   .     A
C201   C203    1.398   .     A
C202   C204    1.388   .     A
C202   H232    1.083   .     S
C203   C205    1.388   .     A
C203   H233    1.083   .     S
C204   C206    1.402   .     A
C204   H234    1.084   .     S
C205   C207    1.402   .     A
C205   H235    1.084   .     S
C207   C20     1.468   1_565 S
C208   O248    1.221   .     D
C209   C212    1.409   .     A
C209   F219    1.357   .     S
C210   O240    1.221   .     D
C210   H42     1.084   1_565 S
C211   C213    1.408   .     A
C211   F220    1.357   .     S
C212   N237    1.365   .     A
C212   H236    1.081   .     S
C213   H222    1.081   .     S
C213   N238    1.365   .     A
C214   C216    1.407   .     A
C214   H223    1.081   .     S
C214   N237    1.365   .     A
C215   H224    1.081   .     S
C215   N238    1.365   .     A
C216   H225    1.082   .     S
Cu217  O247    1.960   .     S
Cu217  Cu218   2.675   .     S
Cu217  N238    2.010   .     S
Cu217  O243    1.951   .     S
Cu217  O239    1.952   .     S
Cu217  O244    1.958   .     S
Cu218  N237    2.010   .     S
Cu218  O245    1.958   .     S
Cu218  O246    1.960   .     S
Cu218  O241    1.952   .     S
Cu218  O242    1.951   .     S
H221   C255    1.087   .     S
H227   C22     1.084   1_565 S
H229   C318    1.087   1_455 S
C249   O304    1.293   .     A
C249   O301    1.292   .     A
C249   C262    1.457   .     S
C250   C252    1.410   .     A
C250   C277    1.408   .     A
C250   H288    1.082   .     S
C251   C278    1.409   .     A
C251   C271    1.412   .     A
C251   C624    1.515   1_554 S
C252   C273    1.412   .     A
C252   C623    1.515   .     S
C253   C255    1.434   .     S
C253   O306    1.285   .     A
C253   O308    1.287   .     A
C254   O309    1.287   .     A
C254   C256    1.434   .     S
C254   O307    1.285   .     A
C256   C317    1.335   .     S
C256   H353    1.087   .     S
C257   C268    1.415   .     A
C257   C259    1.401   .     A
C257   C270    1.487   .     S
C258   C272    1.487   .     S
C258   C261    1.401   .     A
C258   C269    1.415   .     A
C259   H292    1.084   .     S
C259   C262    1.401   .     A
C260   C263    1.458   .     S
C260   O305    1.293   .     A
C260   O303    1.292   .     A
C261   C263    1.401   .     A
C261   H293    1.084   .     S
C262   C264    1.397   .     A
C263   C265    1.398   .     A
C264   C266    1.388   .     A
C264   H294    1.083   .     S
C265   C267    1.388   .     A
C265   H295    1.083   .     S
C266   C268    1.402   .     A
C266   H296    1.084   .     S
C267   C269    1.402   .     A
C267   H297    1.084   .     S
C269   C82     1.468   1_565 S
C270   O310    1.221   .     D
C271   C274    1.409   .     A
C271   F281    1.357   .     S
C272   O302    1.221   .     D
C272   H104    1.084   1_565 S
C273   C275    1.408   .     A
C273   F282    1.357   .     S
C274   N299    1.365   .     A
C274   H298    1.081   .     S
C275   H284    1.081   .     S
C275   N300    1.365   .     A
C276   C278    1.407   .     A
C276   H285    1.081   .     S
C276   N299    1.365   .     A
C277   H286    1.081   .     S
C277   N300    1.365   .     A
C278   H287    1.082   .     S
Cu279  O309    1.960   .     S
Cu279  Cu280   2.675   .     S
Cu279  N300    2.010   .     S
Cu279  O305    1.951   .     S
Cu279  O301    1.952   .     S
Cu279  O306    1.958   .     S
Cu280  N299    2.010   .     S
Cu280  O307    1.958   .     S
Cu280  O308    1.960   .     S
Cu280  O303    1.952   .     S
Cu280  O304    1.951   .     S
H283   C317    1.087   .     S
H289   C84     1.084   1_565 S
C311   O366    1.293   .     A
C311   O363    1.292   .     A
C311   C324    1.457   .     S
C312   C314    1.410   .     A
C312   C339    1.408   .     A
C312   H350    1.082   .     S
C313   C340    1.409   .     A
C313   C333    1.412   .     A
C313   C686    1.515   1_554 S
C314   C335    1.412   .     A
C314   C685    1.515   .     S
C315   C317    1.434   .     S
C315   O368    1.285   .     A
C315   O370    1.287   .     A
C316   O371    1.287   .     A
C316   C318    1.434   .     S
C316   O369    1.285   .     A
C318   C193    1.335   1_655 S
C318   H229    1.087   1_655 S
C319   C330    1.415   .     A
C319   C321    1.401   .     A
C319   C332    1.487   .     S
C320   C334    1.487   .     S
C320   C323    1.401   .     A
C320   C331    1.415   .     A
C321   H354    1.084   .     S
C321   C324    1.401   .     A
C322   C325    1.458   .     S
C322   O367    1.293   .     A
C322   O365    1.292   .     A
C323   C325    1.401   .     A
C323   H355    1.084   .     S
C324   C326    1.397   .     A
C325   C327    1.398   .     A
C326   C328    1.388   .     A
C326   H356    1.083   .     S
C327   C329    1.388   .     A
C327   H357    1.083   .     S
C328   C330    1.402   .     A
C328   H358    1.084   .     S
C329   C331    1.402   .     A
C329   H359    1.084   .     S
C331   C144    1.468   1_565 S
C332   O372    1.221   .     D
C333   C336    1.409   .     A
C333   F343    1.357   .     S
C334   O364    1.221   .     D
C334   H166    1.084   1_565 S
C335   C337    1.408   .     A
C335   F344    1.357   .     S
C336   N361    1.365   .     A
C336   H360    1.081   .     S
C337   H346    1.081   .     S
C337   N362    1.365   .     A
C338   C340    1.407   .     A
C338   H347    1.081   .     S
C338   N361    1.365   .     A
C339   H348    1.081   .     S
C339   N362    1.365   .     A
C340   H349    1.082   .     S
Cu341  O371    1.960   .     S
Cu341  Cu342   2.675   .     S
Cu341  N362    2.010   .     S
Cu341  O367    1.951   .     S
Cu341  O363    1.952   .     S
Cu341  O368    1.958   .     S
Cu342  N361    2.010   .     S
Cu342  O369    1.958   .     S
Cu342  O370    1.960   .     S
Cu342  O365    1.952   .     S
Cu342  O366    1.951   .     S
H345   C193    1.087   1_655 S
H351   C146    1.084   1_565 S
C373   O428    1.293   .     A
C373   O425    1.292   .     A
C373   C386    1.457   .     S
C374   C376    1.410   .     A
C374   C401    1.408   .     A
C374   H412    1.082   .     S
C375   C402    1.409   .     A
C375   C395    1.412   .     A
C376   C397    1.412   .     A
C376   C3      1.515   1_556 S
C377   C379    1.434   .     S
C377   O430    1.285   .     A
C377   O432    1.287   .     A
C378   O433    1.287   .     A
C378   C380    1.434   .     S
C378   O431    1.285   .     A
C379   C504    1.335   1_455 S
C379   H531    1.087   1_455 S
C380   C441    1.335   .     S
C380   H477    1.087   .     S
C381   C392    1.415   .     A
C381   C383    1.401   .     A
C381   C394    1.487   .     S
C382   C396    1.487   .     S
C382   C385    1.401   .     A
C382   C393    1.415   .     A
C383   H416    1.084   .     S
C383   C386    1.401   .     A
C384   C387    1.458   .     S
C384   O429    1.293   .     A
C384   O427    1.292   .     A
C385   C387    1.401   .     A
C385   H417    1.084   .     S
C386   C388    1.397   .     A
C387   C389    1.398   .     A
C388   C390    1.388   .     A
C388   H418    1.083   .     S
C389   C391    1.388   .     A
C389   H419    1.083   .     S
C390   C392    1.402   .     A
C390   H420    1.084   .     S
C391   C393    1.402   .     A
C391   H421    1.084   .     S
C392   C579    1.468   1_545 S
C393   C578    1.468   .     S
C394   O434    1.221   .     D
C394   H599    1.084   1_545 S
C395   C398    1.409   .     A
C395   F405    1.357   .     S
C396   O426    1.221   .     D
C396   H600    1.084   .     S
C397   C399    1.408   .     A
C397   F406    1.357   .     S
C398   N423    1.365   .     A
C398   H422    1.081   .     S
C399   H408    1.081   .     S
C399   N424    1.365   .     A
C400   C402    1.407   .     A
C400   H409    1.081   .     S
C400   N423    1.365   .     A
C401   H410    1.081   .     S
C401   N424    1.365   .     A
C402   H411    1.082   .     S
Cu403  O433    1.960   .     S
Cu403  Cu404   2.675   .     S
Cu403  N424    2.010   .     S
Cu403  O429    1.951   .     S
Cu403  O425    1.952   .     S
Cu403  O430    1.958   .     S
Cu404  N423    2.010   .     S
Cu404  O431    1.958   .     S
Cu404  O432    1.960   .     S
Cu404  O427    1.952   .     S
Cu404  O428    1.951   .     S
H407   C441    1.087   .     S
H413   C580    1.084   .     S
H414   C582    1.084   1_545 S
H415   C504    1.087   1_455 S
C435   O490    1.293   .     A
C435   O487    1.292   .     A
C435   C448    1.457   .     S
C436   C438    1.410   .     A
C436   C463    1.408   .     A
C436   H474    1.082   .     S
C437   C464    1.409   .     A
C437   C457    1.412   .     A
C438   C459    1.412   .     A
C438   C65     1.515   1_556 S
C439   C441    1.434   .     S
C439   O492    1.285   .     A
C439   O494    1.287   .     A
C440   O495    1.287   .     A
C440   C442    1.434   .     S
C440   O493    1.285   .     A
C442   C503    1.335   .     S
C442   H539    1.087   .     S
C443   C454    1.415   .     A
C443   C445    1.401   .     A
C443   C456    1.487   .     S
C444   C458    1.487   .     S
C444   C447    1.401   .     A
C444   C455    1.415   .     A
C445   H478    1.084   .     S
C445   C448    1.401   .     A
C446   C449    1.458   .     S
C446   O491    1.293   .     A
C446   O489    1.292   .     A
C447   C449    1.401   .     A
C447   H479    1.084   .     S
C448   C450    1.397   .     A
C449   C451    1.398   .     A
C450   C452    1.388   .     A
C450   H480    1.083   .     S
C451   C453    1.388   .     A
C451   H481    1.083   .     S
C452   C454    1.402   .     A
C452   H482    1.084   .     S
C453   C455    1.402   .     A
C453   H483    1.084   .     S
C454   C641    1.468   1_545 S
C455   C640    1.468   .     S
C456   O496    1.221   .     D
C456   H661    1.084   1_545 S
C457   C460    1.409   .     A
C457   F467    1.357   .     S
C458   O488    1.221   .     D
C458   H662    1.084   .     S
C459   C461    1.408   .     A
C459   F468    1.357   .     S
C460   N485    1.365   .     A
C460   H484    1.081   .     S
C461   H470    1.081   .     S
C461   N486    1.365   .     A
C462   C464    1.407   .     A
C462   H471    1.081   .     S
C462   N485    1.365   .     A
C463   H472    1.081   .     S
C463   N486    1.365   .     A
C464   H473    1.082   .     S
Cu465  O495    1.960   .     S
Cu465  Cu466   2.675   .     S
Cu465  N486    2.010   .     S
Cu465  O491    1.951   .     S
Cu465  O487    1.952   .     S
Cu465  O492    1.958   .     S
Cu466  N485    2.010   .     S
Cu466  O493    1.958   .     S
Cu466  O494    1.960   .     S
Cu466  O489    1.952   .     S
Cu466  O490    1.951   .     S
H469   C503    1.087   .     S
H475   C642    1.084   .     S
H476   C644    1.084   1_545 S
C497   O552    1.293   .     A
C497   O549    1.292   .     A
C497   C510    1.457   .     S
C498   C500    1.410   .     A
C498   C525    1.408   .     A
C498   H536    1.082   .     S
C499   C526    1.409   .     A
C499   C519    1.412   .     A
C500   C521    1.412   .     A
C500   C127    1.515   1_556 S
C501   C503    1.434   .     S
C501   O554    1.285   .     A
C501   O556    1.287   .     A
C502   O557    1.287   .     A
C502   C504    1.434   .     S
C502   O555    1.285   .     A
C504   C379    1.335   1_655 S
C504   H415    1.087   1_655 S
C505   C516    1.415   .     A
C505   C507    1.401   .     A
C505   C518    1.487   .     S
C506   C520    1.487   .     S
C506   C509    1.401   .     A
C506   C517    1.415   .     A
C507   H540    1.084   .     S
C507   C510    1.401   .     A
C508   C511    1.458   .     S
C508   O553    1.293   .     A
C508   O551    1.292   .     A
C509   C511    1.401   .     A
C509   H541    1.084   .     S
C510   C512    1.397   .     A
C511   C513    1.398   .     A
C512   C514    1.388   .     A
C512   H542    1.083   .     S
C513   C515    1.388   .     A
C513   H543    1.083   .     S
C514   C516    1.402   .     A
C514   H544    1.084   .     S
C515   C517    1.402   .     A
C515   H545    1.084   .     S
C516   C703    1.468   1_545 S
C517   C702    1.468   .     S
C518   O558    1.221   .     D
C518   H723    1.084   1_545 S
C519   C522    1.409   .     A
C519   F529    1.357   .     S
C520   O550    1.221   .     D
C520   H724    1.084   .     S
C521   C523    1.408   .     A
C521   F530    1.357   .     S
C522   N547    1.365   .     A
C522   H546    1.081   .     S
C523   H532    1.081   .     S
C523   N548    1.365   .     A
C524   C526    1.407   .     A
C524   H533    1.081   .     S
C524   N547    1.365   .     A
C525   H534    1.081   .     S
C525   N548    1.365   .     A
C526   H535    1.082   .     S
Cu527  O557    1.960   .     S
Cu527  Cu528   2.675   .     S
Cu527  N548    2.010   .     S
Cu527  O553    1.951   .     S
Cu527  O549    1.952   .     S
Cu527  O554    1.958   .     S
Cu528  N547    2.010   .     S
Cu528  O555    1.958   .     S
Cu528  O556    1.960   .     S
Cu528  O551    1.952   .     S
Cu528  O552    1.951   .     S
H531   C379    1.087   1_655 S
H537   C704    1.084   .     S
H538   C706    1.084   1_545 S
C559   O614    1.293   .     A
C559   O611    1.292   .     A
C559   C572    1.457   .     S
C560   C562    1.410   .     A
C560   C587    1.408   .     A
C560   H598    1.082   .     S
C561   C588    1.409   .     A
C561   C581    1.412   .     A
C562   C583    1.412   .     A
C562   C189    1.515   1_556 S
C563   C565    1.434   .     S
C563   O616    1.285   .     A
C563   O618    1.287   .     A
C564   O619    1.287   .     A
C564   C566    1.434   .     S
C564   O617    1.285   .     A
C565   C690    1.335   1_455 S
C565   H717    1.087   1_455 S
C566   C627    1.335   .     S
C566   H663    1.087   .     S
C567   C578    1.415   .     A
C567   C569    1.401   .     A
C567   C580    1.487   .     S
C568   C582    1.487   .     S
C568   C571    1.401   .     A
C568   C579    1.415   .     A
C569   H602    1.084   .     S
C569   C572    1.401   .     A
C570   C573    1.458   .     S
C570   O615    1.293   .     A
C570   O613    1.292   .     A
C571   C573    1.401   .     A
C571   H603    1.084   .     S
C572   C574    1.397   .     A
C573   C575    1.398   .     A
C574   C576    1.388   .     A
C574   H604    1.083   .     S
C575   C577    1.388   .     A
C575   H605    1.083   .     S
C576   C578    1.402   .     A
C576   H606    1.084   .     S
C577   C579    1.402   .     A
C577   H607    1.084   .     S
C579   C392    1.468   1_565 S
C580   O620    1.221   .     D
C581   C584    1.409   .     A
C581   F591    1.357   .     S
C582   O612    1.221   .     D
C582   H414    1.084   1_565 S
C583   C585    1.408   .     A
C583   F592    1.357   .     S
C584   N609    1.365   .     A
C584   H608    1.081   .     S
C585   H594    1.081   .     S
C585   N610    1.365   .     A
C586   C588    1.407   .     A
C586   H595    1.081   .     S
C586   N609    1.365   .     A
C587   H596    1.081   .     S
C587   N610    1.365   .     A
C588   H597    1.082   .     S
Cu589  O619    1.960   .     S
Cu589  Cu590   2.675   .     S
Cu589  N610    2.010   .     S
Cu589  O615    1.951   .     S
Cu589  O611    1.952   .     S
Cu589  O616    1.958   .     S
Cu590  N609    2.010   .     S
Cu590  O617    1.958   .     S
Cu590  O618    1.960   .     S
Cu590  O613    1.952   .     S
Cu590  O614    1.951   .     S
H593   C627    1.087   .     S
H599   C394    1.084   1_565 S
H601   C690    1.087   1_455 S
C621   O676    1.293   .     A
C621   O673    1.292   .     A
C621   C634    1.457   .     S
C622   C624    1.410   .     A
C622   C649    1.408   .     A
C622   H660    1.082   .     S
C623   C650    1.409   .     A
C623   C643    1.412   .     A
C624   C645    1.412   .     A
C624   C251    1.515   1_556 S
C625   C627    1.434   .     S
C625   O678    1.285   .     A
C625   O680    1.287   .     A
C626   O681    1.287   .     A
C626   C628    1.434   .     S
C626   O679    1.285   .     A
C628   C689    1.335   .     S
C628   H725    1.087   .     S
C629   C640    1.415   .     A
C629   C631    1.401   .     A
C629   C642    1.487   .     S
C630   C644    1.487   .     S
C630   C633    1.401   .     A
C630   C641    1.415   .     A
C631   H664    1.084   .     S
C631   C634    1.401   .     A
C632   C635    1.458   .     S
C632   O677    1.293   .     A
C632   O675    1.292   .     A
C633   C635    1.401   .     A
C633   H665    1.084   .     S
C634   C636    1.397   .     A
C635   C637    1.398   .     A
C636   C638    1.388   .     A
C636   H666    1.083   .     S
C637   C639    1.388   .     A
C637   H667    1.083   .     S
C638   C640    1.402   .     A
C638   H668    1.084   .     S
C639   C641    1.402   .     A
C639   H669    1.084   .     S
C641   C454    1.468   1_565 S
C642   O682    1.221   .     D
C643   C646    1.409   .     A
C643   F653    1.357   .     S
C644   O674    1.221   .     D
C644   H476    1.084   1_565 S
C645   C647    1.408   .     A
C645   F654    1.357   .     S
C646   N671    1.365   .     A
C646   H670    1.081   .     S
C647   H656    1.081   .     S
C647   N672    1.365   .     A
C648   C650    1.407   .     A
C648   H657    1.081   .     S
C648   N671    1.365   .     A
C649   H658    1.081   .     S
C649   N672    1.365   .     A
C650   H659    1.082   .     S
Cu651  O681    1.960   .     S
Cu651  Cu652   2.675   .     S
Cu651  N672    2.010   .     S
Cu651  O677    1.951   .     S
Cu651  O673    1.952   .     S
Cu651  O678    1.958   .     S
Cu652  N671    2.010   .     S
Cu652  O679    1.958   .     S
Cu652  O680    1.960   .     S
Cu652  O675    1.952   .     S
Cu652  O676    1.951   .     S
H655   C689    1.087   .     S
H661   C456    1.084   1_565 S
C683   O738    1.293   .     A
C683   O735    1.292   .     A
C683   C696    1.457   .     S
C684   C686    1.410   .     A
C684   C711    1.408   .     A
C684   H722    1.082   .     S
C685   C712    1.409   .     A
C685   C705    1.412   .     A
C686   C707    1.412   .     A
C686   C313    1.515   1_556 S
C687   C689    1.434   .     S
C687   O740    1.285   .     A
C687   O742    1.287   .     A
C688   O743    1.287   .     A
C688   C690    1.434   .     S
C688   O741    1.285   .     A
C690   C565    1.335   1_655 S
C690   H601    1.087   1_655 S
C691   C702    1.415   .     A
C691   C693    1.401   .     A
C691   C704    1.487   .     S
C692   C706    1.487   .     S
C692   C695    1.401   .     A
C692   C703    1.415   .     A
C693   H726    1.084   .     S
C693   C696    1.401   .     A
C694   C697    1.458   .     S
C694   O739    1.293   .     A
C694   O737    1.292   .     A
C695   C697    1.401   .     A
C695   H727    1.084   .     S
C696   C698    1.397   .     A
C697   C699    1.398   .     A
C698   C700    1.388   .     A
C698   H728    1.083   .     S
C699   C701    1.388   .     A
C699   H729    1.083   .     S
C700   C702    1.402   .     A
C700   H730    1.084   .     S
C701   C703    1.402   .     A
C701   H731    1.084   .     S
C703   C516    1.468   1_565 S
C704   O744    1.221   .     D
C705   C708    1.409   .     A
C705   F715    1.357   .     S
C706   O736    1.221   .     D
C706   H538    1.084   1_565 S
C707   C709    1.408   .     A
C707   F716    1.357   .     S
C708   N733    1.365   .     A
C708   H732    1.081   .     S
C709   H718    1.081   .     S
C709   N734    1.365   .     A
C710   C712    1.407   .     A
C710   H719    1.081   .     S
C710   N733    1.365   .     A
C711   H720    1.081   .     S
C711   N734    1.365   .     A
C712   H721    1.082   .     S
Cu713  O743    1.960   .     S
Cu713  Cu714   2.675   .     S
Cu713  N734    2.010   .     S
Cu713  O739    1.951   .     S
Cu713  O735    1.952   .     S
Cu713  O740    1.958   .     S
Cu714  N733    2.010   .     S
Cu714  O741    1.958   .     S
Cu714  O742    1.960   .     S
Cu714  O737    1.952   .     S
Cu714  O738    1.951   .     S
H717   C565    1.087   1_655 S
H723   C518    1.084   1_565 S
