data_str_m2_o10_o16_pcu_sym.11
_audit_creation_date              2020-01-03
_audit_creation_method            'Materials Studio'
_symmetry_space_group_name_H-M    'P1'
_symmetry_Int_Tables_number       1
_symmetry_cell_setting            triclinic
loop_
_symmetry_equiv_pos_as_xyz
  x,y,z
_cell_length_a                    22.3259
_cell_length_b                    26.0789
_cell_length_c                    26.8061
_cell_angle_alpha                 94.2654
_cell_angle_beta                  77.4054
_cell_angle_gamma                 103.2392
loop_
_atom_site_label
_atom_site_type_symbol
_atom_site_fract_x
_atom_site_fract_y
_atom_site_fract_z
_atom_site_U_iso_or_equiv
_atom_site_adp_type
_atom_site_occupancy
C1     C     0.18178   0.26674   0.25157   0.00000  Uiso   1.00
C2     C     0.11210   0.16445   0.40354   0.00000  Uiso   1.00
C3     C     0.19025   0.32273   0.25236   0.00000  Uiso   1.00
C4     C     0.13309   0.16570   0.34730   0.00000  Uiso   1.00
C5     C     0.14301   0.01060   0.24784   0.00000  Uiso   1.00
C6     C     0.15152   0.06660   0.24852   0.00000  Uiso   1.00
C7     C     0.20053   0.17037   0.15297   0.00000  Uiso   1.00
C8     C     0.29292   0.22596   0.02684   0.00000  Uiso   1.00
C9     C     0.22084   0.17891   0.09793   0.00000  Uiso   1.00
C10    C     0.05037   0.13796   0.42487   0.00000  Uiso   1.00
C11    C     0.03279   0.12819   0.47678   0.00000  Uiso   1.00
C12    C     0.13923   0.16872   0.48797   0.00000  Uiso   1.00
C13    C     0.07655   0.14223   0.00789   0.00000  Uiso   1.00
C14    C     0.15513   0.18412   0.43623   0.00000  Uiso   1.00
C15    C     0.18640   0.18116   0.01789   0.00000  Uiso   1.00
C16    C     0.24627   0.21299   0.49750   0.00000  Uiso   1.00
C17    C     0.25837   0.23275   0.44863   0.00000  Uiso   1.00
C18    C     0.21327   0.21928   0.41877   0.00000  Uiso   1.00
C19    C     0.17593   0.16287   0.06761   0.00000  Uiso   1.00
C20    C     0.28012   0.20930   0.07703   0.00000  Uiso   1.00
Cu21   Cu    0.10710   0.16105   0.24435   0.00000  Uiso   1.00
Cu22   Cu    0.22623   0.17228   0.25564   0.00000  Uiso   1.00
F23    F     0.00777   0.21198   0.29937   0.00000  Uiso   1.00
F24    F     0.00718   0.11988   0.39542   0.00000  Uiso   1.00
H25    H     0.31539   0.22208   0.10006   0.00000  Uiso   1.00
H26    H     0.23574   0.01328   0.25664   0.00000  Uiso   1.00
H27    H     0.09751   0.32005   0.24358   0.00000  Uiso   1.00
H28    H     0.33020   0.12823   0.20946   0.00000  Uiso   1.00
H29    H     0.30294   0.25891   0.43338   0.00000  Uiso   1.00
H30    H     0.00538   0.25023   0.01140   0.00000  Uiso   1.00
H31    H     0.13248   0.13676   0.08436   0.00000  Uiso   1.00
H32    H     0.05918   0.13299   0.04765   0.00000  Uiso   1.00
H33    H     0.31838   0.10820   0.49293   0.00000  Uiso   1.00
H34    H     0.22420   0.23808   0.38232   0.00000  Uiso   1.00
N35    N     0.31574   0.18074   0.26416   0.00000  Uiso   1.00
N36    N     0.01759   0.15259   0.23584   0.00000  Uiso   1.00
O37    O     0.12797   0.23807   0.24633   0.00000  Uiso   1.00
O38    O     0.22858   0.24755   0.25586   0.00000  Uiso   1.00
O39    O     0.09181   0.15960   0.31839   0.00000  Uiso   1.00
O40    O     0.19242   0.16908   0.32793   0.00000  Uiso   1.00
O41    O     0.10476   0.08578   0.24414   0.00000  Uiso   1.00
O42    O     0.20536   0.09526   0.25367   0.00000  Uiso   1.00
O43    O     0.14092   0.16425   0.17207   0.00000  Uiso   1.00
O44    O     0.24152   0.17373   0.18160   0.00000  Uiso   1.00
C45    C     0.51511   0.26674   0.25157   0.00000  Uiso   1.00
C46    C     0.44543   0.16445   0.40354   0.00000  Uiso   1.00
C47    C     0.52358   0.32273   0.25236   0.00000  Uiso   1.00
C48    C     0.46642   0.16570   0.34730   0.00000  Uiso   1.00
C49    C     0.47634   0.01060   0.24784   0.00000  Uiso   1.00
C50    C     0.48485   0.06660   0.24852   0.00000  Uiso   1.00
C51    C     0.53387   0.17037   0.15297   0.00000  Uiso   1.00
C52    C     0.62626   0.22596   0.02684   0.00000  Uiso   1.00
C53    C     0.55417   0.17891   0.09793   0.00000  Uiso   1.00
C54    C     0.38370   0.13796   0.42487   0.00000  Uiso   1.00
C55    C     0.36612   0.12819   0.47678   0.00000  Uiso   1.00
C56    C     0.47256   0.16872   0.48797   0.00000  Uiso   1.00
C57    C     0.40988   0.14223   0.00789   0.00000  Uiso   1.00
C58    C     0.48847   0.18412   0.43623   0.00000  Uiso   1.00
C59    C     0.51973   0.18116   0.01789   0.00000  Uiso   1.00
C60    C     0.57961   0.21299   0.49750   0.00000  Uiso   1.00
C61    C     0.59171   0.23275   0.44863   0.00000  Uiso   1.00
C62    C     0.54660   0.21928   0.41877   0.00000  Uiso   1.00
C63    C     0.50927   0.16287   0.06761   0.00000  Uiso   1.00
C64    C     0.61346   0.20930   0.07703   0.00000  Uiso   1.00
Cu65   Cu    0.44043   0.16105   0.24435   0.00000  Uiso   1.00
Cu66   Cu    0.55957   0.17228   0.25564   0.00000  Uiso   1.00
F67    F     0.34110   0.21198   0.29937   0.00000  Uiso   1.00
F68    F     0.34051   0.11988   0.39542   0.00000  Uiso   1.00
H69    H     0.64872   0.22208   0.10006   0.00000  Uiso   1.00
H70    H     0.56908   0.01328   0.25664   0.00000  Uiso   1.00
H71    H     0.43085   0.32005   0.24358   0.00000  Uiso   1.00
H72    H     0.66353   0.12823   0.20946   0.00000  Uiso   1.00
H73    H     0.63627   0.25891   0.43338   0.00000  Uiso   1.00
H74    H     0.33872   0.25023   0.01140   0.00000  Uiso   1.00
H75    H     0.46581   0.13676   0.08436   0.00000  Uiso   1.00
H76    H     0.39251   0.13299   0.04765   0.00000  Uiso   1.00
H77    H     0.65171   0.10820   0.49293   0.00000  Uiso   1.00
H78    H     0.55753   0.23808   0.38232   0.00000  Uiso   1.00
N79    N     0.64908   0.18074   0.26416   0.00000  Uiso   1.00
N80    N     0.35092   0.15259   0.23584   0.00000  Uiso   1.00
O81    O     0.46131   0.23807   0.24633   0.00000  Uiso   1.00
O82    O     0.56191   0.24755   0.25586   0.00000  Uiso   1.00
O83    O     0.42515   0.15960   0.31839   0.00000  Uiso   1.00
O84    O     0.52575   0.16908   0.32793   0.00000  Uiso   1.00
O85    O     0.43809   0.08578   0.24414   0.00000  Uiso   1.00
O86    O     0.53869   0.09526   0.25367   0.00000  Uiso   1.00
O87    O     0.47425   0.16425   0.17207   0.00000  Uiso   1.00
O88    O     0.57485   0.17373   0.18160   0.00000  Uiso   1.00
C89    C     0.84845   0.26674   0.25157   0.00000  Uiso   1.00
C90    C     0.77877   0.16445   0.40354   0.00000  Uiso   1.00
C91    C     0.85692   0.32273   0.25236   0.00000  Uiso   1.00
C92    C     0.79976   0.16570   0.34730   0.00000  Uiso   1.00
C93    C     0.80968   0.01060   0.24784   0.00000  Uiso   1.00
C94    C     0.81819   0.06660   0.24852   0.00000  Uiso   1.00
C95    C     0.86720   0.17037   0.15297   0.00000  Uiso   1.00
C96    C     0.95959   0.22596   0.02684   0.00000  Uiso   1.00
C97    C     0.88751   0.17891   0.09793   0.00000  Uiso   1.00
C98    C     0.71704   0.13796   0.42487   0.00000  Uiso   1.00
C99    C     0.69945   0.12819   0.47678   0.00000  Uiso   1.00
C100   C     0.80589   0.16872   0.48797   0.00000  Uiso   1.00
C101   C     0.74322   0.14223   0.00789   0.00000  Uiso   1.00
C102   C     0.82180   0.18412   0.43623   0.00000  Uiso   1.00
C103   C     0.85306   0.18116   0.01789   0.00000  Uiso   1.00
C104   C     0.91294   0.21299   0.49750   0.00000  Uiso   1.00
C105   C     0.92504   0.23275   0.44863   0.00000  Uiso   1.00
C106   C     0.87993   0.21928   0.41877   0.00000  Uiso   1.00
C107   C     0.84260   0.16287   0.06761   0.00000  Uiso   1.00
C108   C     0.94679   0.20930   0.07703   0.00000  Uiso   1.00
Cu109  Cu    0.77377   0.16105   0.24435   0.00000  Uiso   1.00
Cu110  Cu    0.89290   0.17228   0.25564   0.00000  Uiso   1.00
F111   F     0.67444   0.21198   0.29937   0.00000  Uiso   1.00
F112   F     0.67385   0.11988   0.39542   0.00000  Uiso   1.00
H113   H     0.98205   0.22208   0.10006   0.00000  Uiso   1.00
H114   H     0.90241   0.01328   0.25664   0.00000  Uiso   1.00
H115   H     0.76418   0.32005   0.24358   0.00000  Uiso   1.00
H116   H     0.99686   0.12823   0.20946   0.00000  Uiso   1.00
H117   H     0.96960   0.25891   0.43338   0.00000  Uiso   1.00
H118   H     0.67205   0.25023   0.01140   0.00000  Uiso   1.00
H119   H     0.79914   0.13676   0.08436   0.00000  Uiso   1.00
H120   H     0.72584   0.13299   0.04765   0.00000  Uiso   1.00
H121   H     0.98505   0.10820   0.49293   0.00000  Uiso   1.00
H122   H     0.89087   0.23808   0.38232   0.00000  Uiso   1.00
N123   N     0.98241   0.18074   0.26416   0.00000  Uiso   1.00
N124   N     0.68426   0.15259   0.23584   0.00000  Uiso   1.00
O125   O     0.79464   0.23807   0.24633   0.00000  Uiso   1.00
O126   O     0.89524   0.24755   0.25586   0.00000  Uiso   1.00
O127   O     0.75848   0.15960   0.31839   0.00000  Uiso   1.00
O128   O     0.85908   0.16908   0.32793   0.00000  Uiso   1.00
O129   O     0.77142   0.08578   0.24414   0.00000  Uiso   1.00
O130   O     0.87203   0.09526   0.25367   0.00000  Uiso   1.00
O131   O     0.80758   0.16425   0.17207   0.00000  Uiso   1.00
O132   O     0.90819   0.17373   0.18160   0.00000  Uiso   1.00
C133   C     0.18178   0.60007   0.25157   0.00000  Uiso   1.00
C134   C     0.11210   0.49778   0.40354   0.00000  Uiso   1.00
C135   C     0.19025   0.65606   0.25236   0.00000  Uiso   1.00
C136   C     0.13309   0.49903   0.34730   0.00000  Uiso   1.00
C137   C     0.14301   0.34393   0.24784   0.00000  Uiso   1.00
C138   C     0.15152   0.39993   0.24852   0.00000  Uiso   1.00
C139   C     0.20053   0.50370   0.15297   0.00000  Uiso   1.00
C140   C     0.29292   0.55929   0.02684   0.00000  Uiso   1.00
C141   C     0.22084   0.51225   0.09793   0.00000  Uiso   1.00
C142   C     0.05037   0.47130   0.42487   0.00000  Uiso   1.00
C143   C     0.03279   0.46153   0.47678   0.00000  Uiso   1.00
C144   C     0.13923   0.50205   0.48797   0.00000  Uiso   1.00
C145   C     0.07655   0.47556   0.00789   0.00000  Uiso   1.00
C146   C     0.15513   0.51745   0.43623   0.00000  Uiso   1.00
C147   C     0.18640   0.51449   0.01789   0.00000  Uiso   1.00
C148   C     0.24627   0.54632   0.49750   0.00000  Uiso   1.00
C149   C     0.25837   0.56608   0.44863   0.00000  Uiso   1.00
C150   C     0.21327   0.55261   0.41877   0.00000  Uiso   1.00
C151   C     0.17593   0.49621   0.06761   0.00000  Uiso   1.00
C152   C     0.28012   0.54263   0.07703   0.00000  Uiso   1.00
Cu153  Cu    0.10710   0.49439   0.24435   0.00000  Uiso   1.00
Cu154  Cu    0.22623   0.50561   0.25564   0.00000  Uiso   1.00
F155   F     0.00777   0.54532   0.29937   0.00000  Uiso   1.00
F156   F     0.00718   0.45321   0.39542   0.00000  Uiso   1.00
H157   H     0.31539   0.55541   0.10006   0.00000  Uiso   1.00
H158   H     0.23574   0.34661   0.25664   0.00000  Uiso   1.00
H159   H     0.09751   0.65339   0.24358   0.00000  Uiso   1.00
H160   H     0.33020   0.46157   0.20946   0.00000  Uiso   1.00
H161   H     0.30294   0.59225   0.43338   0.00000  Uiso   1.00
H162   H     0.00538   0.58357   0.01140   0.00000  Uiso   1.00
H163   H     0.13248   0.47009   0.08436   0.00000  Uiso   1.00
H164   H     0.05918   0.46632   0.04765   0.00000  Uiso   1.00
H165   H     0.31838   0.44154   0.49293   0.00000  Uiso   1.00
H166   H     0.22420   0.57142   0.38232   0.00000  Uiso   1.00
N167   N     0.31574   0.51407   0.26416   0.00000  Uiso   1.00
N168   N     0.01759   0.48593   0.23584   0.00000  Uiso   1.00
O169   O     0.12797   0.57141   0.24633   0.00000  Uiso   1.00
O170   O     0.22858   0.58089   0.25586   0.00000  Uiso   1.00
O171   O     0.09181   0.49293   0.31839   0.00000  Uiso   1.00
O172   O     0.19242   0.50241   0.32793   0.00000  Uiso   1.00
O173   O     0.10476   0.41911   0.24414   0.00000  Uiso   1.00
O174   O     0.20536   0.42859   0.25367   0.00000  Uiso   1.00
O175   O     0.14092   0.49759   0.17207   0.00000  Uiso   1.00
O176   O     0.24152   0.50707   0.18160   0.00000  Uiso   1.00
C177   C     0.51511   0.60007   0.25157   0.00000  Uiso   1.00
C178   C     0.44543   0.49778   0.40354   0.00000  Uiso   1.00
C179   C     0.52358   0.65606   0.25236   0.00000  Uiso   1.00
C180   C     0.46642   0.49903   0.34730   0.00000  Uiso   1.00
C181   C     0.47634   0.34393   0.24784   0.00000  Uiso   1.00
C182   C     0.48485   0.39993   0.24852   0.00000  Uiso   1.00
C183   C     0.53387   0.50370   0.15297   0.00000  Uiso   1.00
C184   C     0.62626   0.55929   0.02684   0.00000  Uiso   1.00
C185   C     0.55417   0.51225   0.09793   0.00000  Uiso   1.00
C186   C     0.38370   0.47130   0.42487   0.00000  Uiso   1.00
C187   C     0.36612   0.46153   0.47678   0.00000  Uiso   1.00
C188   C     0.47256   0.50205   0.48797   0.00000  Uiso   1.00
C189   C     0.40988   0.47556   0.00789   0.00000  Uiso   1.00
C190   C     0.48847   0.51745   0.43623   0.00000  Uiso   1.00
C191   C     0.51973   0.51449   0.01789   0.00000  Uiso   1.00
C192   C     0.57961   0.54632   0.49750   0.00000  Uiso   1.00
C193   C     0.59171   0.56608   0.44863   0.00000  Uiso   1.00
C194   C     0.54660   0.55261   0.41877   0.00000  Uiso   1.00
C195   C     0.50927   0.49621   0.06761   0.00000  Uiso   1.00
C196   C     0.61346   0.54263   0.07703   0.00000  Uiso   1.00
Cu197  Cu    0.44043   0.49439   0.24435   0.00000  Uiso   1.00
Cu198  Cu    0.55957   0.50561   0.25564   0.00000  Uiso   1.00
F199   F     0.34110   0.54532   0.29937   0.00000  Uiso   1.00
F200   F     0.34051   0.45321   0.39542   0.00000  Uiso   1.00
H201   H     0.64872   0.55541   0.10006   0.00000  Uiso   1.00
H202   H     0.56908   0.34661   0.25664   0.00000  Uiso   1.00
H203   H     0.43085   0.65339   0.24358   0.00000  Uiso   1.00
H204   H     0.66353   0.46157   0.20946   0.00000  Uiso   1.00
H205   H     0.63627   0.59225   0.43338   0.00000  Uiso   1.00
H206   H     0.33872   0.58357   0.01140   0.00000  Uiso   1.00
H207   H     0.46581   0.47009   0.08436   0.00000  Uiso   1.00
H208   H     0.39251   0.46632   0.04765   0.00000  Uiso   1.00
H209   H     0.65171   0.44154   0.49293   0.00000  Uiso   1.00
H210   H     0.55753   0.57142   0.38232   0.00000  Uiso   1.00
N211   N     0.64908   0.51407   0.26416   0.00000  Uiso   1.00
N212   N     0.35092   0.48593   0.23584   0.00000  Uiso   1.00
O213   O     0.46131   0.57141   0.24633   0.00000  Uiso   1.00
O214   O     0.56191   0.58089   0.25586   0.00000  Uiso   1.00
O215   O     0.42515   0.49293   0.31839   0.00000  Uiso   1.00
O216   O     0.52575   0.50241   0.32793   0.00000  Uiso   1.00
O217   O     0.43809   0.41911   0.24414   0.00000  Uiso   1.00
O218   O     0.53869   0.42859   0.25367   0.00000  Uiso   1.00
O219   O     0.47425   0.49759   0.17207   0.00000  Uiso   1.00
O220   O     0.57485   0.50707   0.18160   0.00000  Uiso   1.00
C221   C     0.84845   0.60007   0.25157   0.00000  Uiso   1.00
C222   C     0.77877   0.49778   0.40354   0.00000  Uiso   1.00
C223   C     0.85692   0.65606   0.25236   0.00000  Uiso   1.00
C224   C     0.79976   0.49903   0.34730   0.00000  Uiso   1.00
C225   C     0.80968   0.34393   0.24784   0.00000  Uiso   1.00
C226   C     0.81819   0.39993   0.24852   0.00000  Uiso   1.00
C227   C     0.86720   0.50370   0.15297   0.00000  Uiso   1.00
C228   C     0.95959   0.55929   0.02684   0.00000  Uiso   1.00
C229   C     0.88751   0.51225   0.09793   0.00000  Uiso   1.00
C230   C     0.71704   0.47130   0.42487   0.00000  Uiso   1.00
C231   C     0.69945   0.46153   0.47678   0.00000  Uiso   1.00
C232   C     0.80589   0.50205   0.48797   0.00000  Uiso   1.00
C233   C     0.74322   0.47556   0.00789   0.00000  Uiso   1.00
C234   C     0.82180   0.51745   0.43623   0.00000  Uiso   1.00
C235   C     0.85306   0.51449   0.01789   0.00000  Uiso   1.00
C236   C     0.91294   0.54632   0.49750   0.00000  Uiso   1.00
C237   C     0.92504   0.56608   0.44863   0.00000  Uiso   1.00
C238   C     0.87993   0.55261   0.41877   0.00000  Uiso   1.00
C239   C     0.84260   0.49621   0.06761   0.00000  Uiso   1.00
C240   C     0.94679   0.54263   0.07703   0.00000  Uiso   1.00
Cu241  Cu    0.77377   0.49439   0.24435   0.00000  Uiso   1.00
Cu242  Cu    0.89290   0.50561   0.25564   0.00000  Uiso   1.00
F243   F     0.67444   0.54532   0.29937   0.00000  Uiso   1.00
F244   F     0.67385   0.45321   0.39542   0.00000  Uiso   1.00
H245   H     0.98205   0.55541   0.10006   0.00000  Uiso   1.00
H246   H     0.90241   0.34661   0.25664   0.00000  Uiso   1.00
H247   H     0.76418   0.65339   0.24358   0.00000  Uiso   1.00
H248   H     0.99686   0.46157   0.20946   0.00000  Uiso   1.00
H249   H     0.96960   0.59225   0.43338   0.00000  Uiso   1.00
H250   H     0.67205   0.58357   0.01140   0.00000  Uiso   1.00
H251   H     0.79914   0.47009   0.08436   0.00000  Uiso   1.00
H252   H     0.72584   0.46632   0.04765   0.00000  Uiso   1.00
H253   H     0.98505   0.44154   0.49293   0.00000  Uiso   1.00
H254   H     0.89087   0.57142   0.38232   0.00000  Uiso   1.00
N255   N     0.98241   0.51407   0.26416   0.00000  Uiso   1.00
N256   N     0.68426   0.48593   0.23584   0.00000  Uiso   1.00
O257   O     0.79464   0.57141   0.24633   0.00000  Uiso   1.00
O258   O     0.89524   0.58089   0.25586   0.00000  Uiso   1.00
O259   O     0.75848   0.49293   0.31839   0.00000  Uiso   1.00
O260   O     0.85908   0.50241   0.32793   0.00000  Uiso   1.00
O261   O     0.77142   0.41911   0.24414   0.00000  Uiso   1.00
O262   O     0.87203   0.42859   0.25367   0.00000  Uiso   1.00
O263   O     0.80758   0.49759   0.17207   0.00000  Uiso   1.00
O264   O     0.90819   0.50707   0.18160   0.00000  Uiso   1.00
C265   C     0.18178   0.93340   0.25157   0.00000  Uiso   1.00
C266   C     0.11210   0.83111   0.40354   0.00000  Uiso   1.00
C267   C     0.19025   0.98939   0.25236   0.00000  Uiso   1.00
C268   C     0.13309   0.83236   0.34730   0.00000  Uiso   1.00
C269   C     0.14301   0.67727   0.24784   0.00000  Uiso   1.00
C270   C     0.15152   0.73326   0.24852   0.00000  Uiso   1.00
C271   C     0.20053   0.83703   0.15297   0.00000  Uiso   1.00
C272   C     0.29292   0.89262   0.02684   0.00000  Uiso   1.00
C273   C     0.22084   0.84558   0.09793   0.00000  Uiso   1.00
C274   C     0.05037   0.80463   0.42487   0.00000  Uiso   1.00
C275   C     0.03279   0.79486   0.47678   0.00000  Uiso   1.00
C276   C     0.13923   0.83538   0.48797   0.00000  Uiso   1.00
C277   C     0.07655   0.80890   0.00789   0.00000  Uiso   1.00
C278   C     0.15513   0.85078   0.43623   0.00000  Uiso   1.00
C279   C     0.18640   0.84783   0.01789   0.00000  Uiso   1.00
C280   C     0.24627   0.87965   0.49750   0.00000  Uiso   1.00
C281   C     0.25837   0.89941   0.44863   0.00000  Uiso   1.00
C282   C     0.21327   0.88595   0.41877   0.00000  Uiso   1.00
C283   C     0.17593   0.82954   0.06761   0.00000  Uiso   1.00
C284   C     0.28012   0.87597   0.07703   0.00000  Uiso   1.00
Cu285  Cu    0.10710   0.82772   0.24435   0.00000  Uiso   1.00
Cu286  Cu    0.22623   0.83895   0.25564   0.00000  Uiso   1.00
F287   F     0.00777   0.87865   0.29937   0.00000  Uiso   1.00
F288   F     0.00718   0.78655   0.39542   0.00000  Uiso   1.00
H289   H     0.31539   0.88875   0.10006   0.00000  Uiso   1.00
H290   H     0.23574   0.67994   0.25664   0.00000  Uiso   1.00
H291   H     0.09751   0.98672   0.24358   0.00000  Uiso   1.00
H292   H     0.33020   0.79490   0.20946   0.00000  Uiso   1.00
H293   H     0.30294   0.92558   0.43338   0.00000  Uiso   1.00
H294   H     0.00538   0.91690   0.01140   0.00000  Uiso   1.00
H295   H     0.13248   0.80343   0.08436   0.00000  Uiso   1.00
H296   H     0.05918   0.79966   0.04765   0.00000  Uiso   1.00
H297   H     0.31838   0.77487   0.49293   0.00000  Uiso   1.00
H298   H     0.22420   0.90475   0.38232   0.00000  Uiso   1.00
N299   N     0.31574   0.84741   0.26416   0.00000  Uiso   1.00
N300   N     0.01759   0.81926   0.23584   0.00000  Uiso   1.00
O301   O     0.12797   0.90474   0.24633   0.00000  Uiso   1.00
O302   O     0.22858   0.91422   0.25586   0.00000  Uiso   1.00
O303   O     0.09181   0.82627   0.31839   0.00000  Uiso   1.00
O304   O     0.19242   0.83575   0.32793   0.00000  Uiso   1.00
O305   O     0.10476   0.75245   0.24414   0.00000  Uiso   1.00
O306   O     0.20536   0.76193   0.25367   0.00000  Uiso   1.00
O307   O     0.14092   0.83092   0.17207   0.00000  Uiso   1.00
O308   O     0.24152   0.84040   0.18160   0.00000  Uiso   1.00
C309   C     0.51511   0.93340   0.25157   0.00000  Uiso   1.00
C310   C     0.44543   0.83111   0.40354   0.00000  Uiso   1.00
C311   C     0.52358   0.98939   0.25236   0.00000  Uiso   1.00
C312   C     0.46642   0.83236   0.34730   0.00000  Uiso   1.00
C313   C     0.47634   0.67727   0.24784   0.00000  Uiso   1.00
C314   C     0.48485   0.73326   0.24852   0.00000  Uiso   1.00
C315   C     0.53387   0.83703   0.15297   0.00000  Uiso   1.00
C316   C     0.62626   0.89262   0.02684   0.00000  Uiso   1.00
C317   C     0.55417   0.84558   0.09793   0.00000  Uiso   1.00
C318   C     0.38370   0.80463   0.42487   0.00000  Uiso   1.00
C319   C     0.36612   0.79486   0.47678   0.00000  Uiso   1.00
C320   C     0.47256   0.83538   0.48797   0.00000  Uiso   1.00
C321   C     0.40988   0.80890   0.00789   0.00000  Uiso   1.00
C322   C     0.48847   0.85078   0.43623   0.00000  Uiso   1.00
C323   C     0.51973   0.84783   0.01789   0.00000  Uiso   1.00
C324   C     0.57961   0.87965   0.49750   0.00000  Uiso   1.00
C325   C     0.59171   0.89941   0.44863   0.00000  Uiso   1.00
C326   C     0.54660   0.88595   0.41877   0.00000  Uiso   1.00
C327   C     0.50927   0.82954   0.06761   0.00000  Uiso   1.00
C328   C     0.61346   0.87597   0.07703   0.00000  Uiso   1.00
Cu329  Cu    0.44043   0.82772   0.24435   0.00000  Uiso   1.00
Cu330  Cu    0.55957   0.83895   0.25564   0.00000  Uiso   1.00
F331   F     0.34110   0.87865   0.29937   0.00000  Uiso   1.00
F332   F     0.34051   0.78655   0.39542   0.00000  Uiso   1.00
H333   H     0.64872   0.88875   0.10006   0.00000  Uiso   1.00
H334   H     0.56908   0.67994   0.25664   0.00000  Uiso   1.00
H335   H     0.43085   0.98672   0.24358   0.00000  Uiso   1.00
H336   H     0.66353   0.79490   0.20946   0.00000  Uiso   1.00
H337   H     0.63627   0.92558   0.43338   0.00000  Uiso   1.00
H338   H     0.33872   0.91690   0.01140   0.00000  Uiso   1.00
H339   H     0.46581   0.80343   0.08436   0.00000  Uiso   1.00
H340   H     0.39251   0.79966   0.04765   0.00000  Uiso   1.00
H341   H     0.65171   0.77487   0.49293   0.00000  Uiso   1.00
H342   H     0.55753   0.90475   0.38232   0.00000  Uiso   1.00
N343   N     0.64908   0.84741   0.26416   0.00000  Uiso   1.00
N344   N     0.35092   0.81926   0.23584   0.00000  Uiso   1.00
O345   O     0.46131   0.90474   0.24633   0.00000  Uiso   1.00
O346   O     0.56191   0.91422   0.25586   0.00000  Uiso   1.00
O347   O     0.42515   0.82627   0.31839   0.00000  Uiso   1.00
O348   O     0.52575   0.83575   0.32793   0.00000  Uiso   1.00
O349   O     0.43809   0.75245   0.24414   0.00000  Uiso   1.00
O350   O     0.53869   0.76193   0.25367   0.00000  Uiso   1.00
O351   O     0.47425   0.83092   0.17207   0.00000  Uiso   1.00
O352   O     0.57485   0.84040   0.18160   0.00000  Uiso   1.00
C353   C     0.84845   0.93340   0.25157   0.00000  Uiso   1.00
C354   C     0.77877   0.83111   0.40354   0.00000  Uiso   1.00
C355   C     0.85692   0.98939   0.25236   0.00000  Uiso   1.00
C356   C     0.79976   0.83236   0.34730   0.00000  Uiso   1.00
C357   C     0.80968   0.67727   0.24784   0.00000  Uiso   1.00
C358   C     0.81819   0.73326   0.24852   0.00000  Uiso   1.00
C359   C     0.86720   0.83703   0.15297   0.00000  Uiso   1.00
C360   C     0.95959   0.89262   0.02684   0.00000  Uiso   1.00
C361   C     0.88751   0.84558   0.09793   0.00000  Uiso   1.00
C362   C     0.71704   0.80463   0.42487   0.00000  Uiso   1.00
C363   C     0.69945   0.79486   0.47678   0.00000  Uiso   1.00
C364   C     0.80589   0.83538   0.48797   0.00000  Uiso   1.00
C365   C     0.74322   0.80890   0.00789   0.00000  Uiso   1.00
C366   C     0.82180   0.85078   0.43623   0.00000  Uiso   1.00
C367   C     0.85306   0.84783   0.01789   0.00000  Uiso   1.00
C368   C     0.91294   0.87965   0.49750   0.00000  Uiso   1.00
C369   C     0.92504   0.89941   0.44863   0.00000  Uiso   1.00
C370   C     0.87993   0.88595   0.41877   0.00000  Uiso   1.00
C371   C     0.84260   0.82954   0.06761   0.00000  Uiso   1.00
C372   C     0.94679   0.87597   0.07703   0.00000  Uiso   1.00
Cu373  Cu    0.77377   0.82772   0.24435   0.00000  Uiso   1.00
Cu374  Cu    0.89290   0.83895   0.25564   0.00000  Uiso   1.00
F375   F     0.67444   0.87865   0.29937   0.00000  Uiso   1.00
F376   F     0.67385   0.78655   0.39542   0.00000  Uiso   1.00
H377   H     0.98205   0.88875   0.10006   0.00000  Uiso   1.00
H378   H     0.90241   0.67994   0.25664   0.00000  Uiso   1.00
H379   H     0.76418   0.98672   0.24358   0.00000  Uiso   1.00
H380   H     0.99686   0.79490   0.20946   0.00000  Uiso   1.00
H381   H     0.96960   0.92558   0.43338   0.00000  Uiso   1.00
H382   H     0.67205   0.91690   0.01140   0.00000  Uiso   1.00
H383   H     0.79914   0.80343   0.08436   0.00000  Uiso   1.00
H384   H     0.72584   0.79966   0.04765   0.00000  Uiso   1.00
H385   H     0.98505   0.77487   0.49293   0.00000  Uiso   1.00
H386   H     0.89087   0.90475   0.38232   0.00000  Uiso   1.00
N387   N     0.98241   0.84741   0.26416   0.00000  Uiso   1.00
N388   N     0.68426   0.81926   0.23584   0.00000  Uiso   1.00
O389   O     0.79464   0.90474   0.24633   0.00000  Uiso   1.00
O390   O     0.89524   0.91422   0.25586   0.00000  Uiso   1.00
O391   O     0.75848   0.82627   0.31839   0.00000  Uiso   1.00
O392   O     0.85908   0.83575   0.32793   0.00000  Uiso   1.00
O393   O     0.77142   0.75245   0.24414   0.00000  Uiso   1.00
O394   O     0.87203   0.76193   0.25367   0.00000  Uiso   1.00
O395   O     0.80758   0.83092   0.17207   0.00000  Uiso   1.00
O396   O     0.90819   0.84040   0.18160   0.00000  Uiso   1.00
C397   C     0.18178   0.26674   0.75157   0.00000  Uiso   1.00
C398   C     0.11210   0.16445   0.90354   0.00000  Uiso   1.00
C399   C     0.19025   0.32273   0.75236   0.00000  Uiso   1.00
C400   C     0.13309   0.16570   0.84730   0.00000  Uiso   1.00
C401   C     0.14301   0.01060   0.74784   0.00000  Uiso   1.00
C402   C     0.15152   0.06660   0.74852   0.00000  Uiso   1.00
C403   C     0.20053   0.17037   0.65297   0.00000  Uiso   1.00
C404   C     0.29292   0.22596   0.52684   0.00000  Uiso   1.00
C405   C     0.22084   0.17891   0.59793   0.00000  Uiso   1.00
C406   C     0.05037   0.13796   0.92487   0.00000  Uiso   1.00
C407   C     0.03279   0.12819   0.97678   0.00000  Uiso   1.00
C408   C     0.13923   0.16872   0.98797   0.00000  Uiso   1.00
C409   C     0.07655   0.14223   0.50789   0.00000  Uiso   1.00
C410   C     0.15513   0.18412   0.93623   0.00000  Uiso   1.00
C411   C     0.18640   0.18116   0.51789   0.00000  Uiso   1.00
C412   C     0.24627   0.21299   0.99750   0.00000  Uiso   1.00
C413   C     0.25837   0.23275   0.94863   0.00000  Uiso   1.00
C414   C     0.21327   0.21928   0.91877   0.00000  Uiso   1.00
C415   C     0.17593   0.16287   0.56761   0.00000  Uiso   1.00
C416   C     0.28012   0.20930   0.57703   0.00000  Uiso   1.00
Cu417  Cu    0.10710   0.16105   0.74435   0.00000  Uiso   1.00
Cu418  Cu    0.22623   0.17228   0.75564   0.00000  Uiso   1.00
F419   F     0.00777   0.21198   0.79937   0.00000  Uiso   1.00
F420   F     0.00718   0.11988   0.89542   0.00000  Uiso   1.00
H421   H     0.31539   0.22208   0.60006   0.00000  Uiso   1.00
H422   H     0.23574   0.01328   0.75664   0.00000  Uiso   1.00
H423   H     0.09751   0.32005   0.74358   0.00000  Uiso   1.00
H424   H     0.33020   0.12823   0.70946   0.00000  Uiso   1.00
H425   H     0.30294   0.25891   0.93338   0.00000  Uiso   1.00
H426   H     0.00538   0.25023   0.51140   0.00000  Uiso   1.00
H427   H     0.13248   0.13676   0.58436   0.00000  Uiso   1.00
H428   H     0.05918   0.13299   0.54765   0.00000  Uiso   1.00
H429   H     0.31838   0.10820   0.99293   0.00000  Uiso   1.00
H430   H     0.22420   0.23808   0.88232   0.00000  Uiso   1.00
N431   N     0.31574   0.18074   0.76416   0.00000  Uiso   1.00
N432   N     0.01759   0.15259   0.73584   0.00000  Uiso   1.00
O433   O     0.12797   0.23807   0.74633   0.00000  Uiso   1.00
O434   O     0.22858   0.24755   0.75586   0.00000  Uiso   1.00
O435   O     0.09181   0.15960   0.81839   0.00000  Uiso   1.00
O436   O     0.19242   0.16908   0.82793   0.00000  Uiso   1.00
O437   O     0.10476   0.08578   0.74414   0.00000  Uiso   1.00
O438   O     0.20536   0.09526   0.75367   0.00000  Uiso   1.00
O439   O     0.14092   0.16425   0.67207   0.00000  Uiso   1.00
O440   O     0.24152   0.17373   0.68160   0.00000  Uiso   1.00
C441   C     0.51511   0.26674   0.75157   0.00000  Uiso   1.00
C442   C     0.44543   0.16445   0.90354   0.00000  Uiso   1.00
C443   C     0.52358   0.32273   0.75236   0.00000  Uiso   1.00
C444   C     0.46642   0.16570   0.84730   0.00000  Uiso   1.00
C445   C     0.47634   0.01060   0.74784   0.00000  Uiso   1.00
C446   C     0.48485   0.06660   0.74852   0.00000  Uiso   1.00
C447   C     0.53387   0.17037   0.65297   0.00000  Uiso   1.00
C448   C     0.62626   0.22596   0.52684   0.00000  Uiso   1.00
C449   C     0.55417   0.17891   0.59793   0.00000  Uiso   1.00
C450   C     0.38370   0.13796   0.92487   0.00000  Uiso   1.00
C451   C     0.36612   0.12819   0.97678   0.00000  Uiso   1.00
C452   C     0.47256   0.16872   0.98797   0.00000  Uiso   1.00
C453   C     0.40988   0.14223   0.50789   0.00000  Uiso   1.00
C454   C     0.48847   0.18412   0.93623   0.00000  Uiso   1.00
C455   C     0.51973   0.18116   0.51789   0.00000  Uiso   1.00
C456   C     0.57961   0.21299   0.99750   0.00000  Uiso   1.00
C457   C     0.59171   0.23275   0.94863   0.00000  Uiso   1.00
C458   C     0.54660   0.21928   0.91877   0.00000  Uiso   1.00
C459   C     0.50927   0.16287   0.56761   0.00000  Uiso   1.00
C460   C     0.61346   0.20930   0.57703   0.00000  Uiso   1.00
Cu461  Cu    0.44043   0.16105   0.74435   0.00000  Uiso   1.00
Cu462  Cu    0.55957   0.17228   0.75564   0.00000  Uiso   1.00
F463   F     0.34110   0.21198   0.79937   0.00000  Uiso   1.00
F464   F     0.34051   0.11988   0.89542   0.00000  Uiso   1.00
H465   H     0.64872   0.22208   0.60006   0.00000  Uiso   1.00
H466   H     0.56908   0.01328   0.75664   0.00000  Uiso   1.00
H467   H     0.43085   0.32005   0.74358   0.00000  Uiso   1.00
H468   H     0.66353   0.12823   0.70946   0.00000  Uiso   1.00
H469   H     0.63627   0.25891   0.93338   0.00000  Uiso   1.00
H470   H     0.33872   0.25023   0.51140   0.00000  Uiso   1.00
H471   H     0.46581   0.13676   0.58436   0.00000  Uiso   1.00
H472   H     0.39251   0.13299   0.54765   0.00000  Uiso   1.00
H473   H     0.65171   0.10820   0.99293   0.00000  Uiso   1.00
H474   H     0.55753   0.23808   0.88232   0.00000  Uiso   1.00
N475   N     0.64908   0.18074   0.76416   0.00000  Uiso   1.00
N476   N     0.35092   0.15259   0.73584   0.00000  Uiso   1.00
O477   O     0.46131   0.23807   0.74633   0.00000  Uiso   1.00
O478   O     0.56191   0.24755   0.75586   0.00000  Uiso   1.00
O479   O     0.42515   0.15960   0.81839   0.00000  Uiso   1.00
O480   O     0.52575   0.16908   0.82793   0.00000  Uiso   1.00
O481   O     0.43809   0.08578   0.74414   0.00000  Uiso   1.00
O482   O     0.53869   0.09526   0.75367   0.00000  Uiso   1.00
O483   O     0.47425   0.16425   0.67207   0.00000  Uiso   1.00
O484   O     0.57485   0.17373   0.68160   0.00000  Uiso   1.00
C485   C     0.84845   0.26674   0.75157   0.00000  Uiso   1.00
C486   C     0.77877   0.16445   0.90354   0.00000  Uiso   1.00
C487   C     0.85692   0.32273   0.75236   0.00000  Uiso   1.00
C488   C     0.79976   0.16570   0.84730   0.00000  Uiso   1.00
C489   C     0.80968   0.01060   0.74784   0.00000  Uiso   1.00
C490   C     0.81819   0.06660   0.74852   0.00000  Uiso   1.00
C491   C     0.86720   0.17037   0.65297   0.00000  Uiso   1.00
C492   C     0.95959   0.22596   0.52684   0.00000  Uiso   1.00
C493   C     0.88751   0.17891   0.59793   0.00000  Uiso   1.00
C494   C     0.71704   0.13796   0.92487   0.00000  Uiso   1.00
C495   C     0.69945   0.12819   0.97678   0.00000  Uiso   1.00
C496   C     0.80589   0.16872   0.98797   0.00000  Uiso   1.00
C497   C     0.74322   0.14223   0.50789   0.00000  Uiso   1.00
C498   C     0.82180   0.18412   0.93623   0.00000  Uiso   1.00
C499   C     0.85306   0.18116   0.51789   0.00000  Uiso   1.00
C500   C     0.91294   0.21299   0.99750   0.00000  Uiso   1.00
C501   C     0.92504   0.23275   0.94863   0.00000  Uiso   1.00
C502   C     0.87993   0.21928   0.91877   0.00000  Uiso   1.00
C503   C     0.84260   0.16287   0.56761   0.00000  Uiso   1.00
C504   C     0.94679   0.20930   0.57703   0.00000  Uiso   1.00
Cu505  Cu    0.77377   0.16105   0.74435   0.00000  Uiso   1.00
Cu506  Cu    0.89290   0.17228   0.75564   0.00000  Uiso   1.00
F507   F     0.67444   0.21198   0.79937   0.00000  Uiso   1.00
F508   F     0.67385   0.11988   0.89542   0.00000  Uiso   1.00
H509   H     0.98205   0.22208   0.60006   0.00000  Uiso   1.00
H510   H     0.90241   0.01328   0.75664   0.00000  Uiso   1.00
H511   H     0.76418   0.32005   0.74358   0.00000  Uiso   1.00
H512   H     0.99686   0.12823   0.70946   0.00000  Uiso   1.00
H513   H     0.96960   0.25891   0.93338   0.00000  Uiso   1.00
H514   H     0.67205   0.25023   0.51140   0.00000  Uiso   1.00
H515   H     0.79914   0.13676   0.58436   0.00000  Uiso   1.00
H516   H     0.72584   0.13299   0.54765   0.00000  Uiso   1.00
H517   H     0.98505   0.10820   0.99293   0.00000  Uiso   1.00
H518   H     0.89087   0.23808   0.88232   0.00000  Uiso   1.00
N519   N     0.98241   0.18074   0.76416   0.00000  Uiso   1.00
N520   N     0.68426   0.15259   0.73584   0.00000  Uiso   1.00
O521   O     0.79464   0.23807   0.74633   0.00000  Uiso   1.00
O522   O     0.89524   0.24755   0.75586   0.00000  Uiso   1.00
O523   O     0.75848   0.15960   0.81839   0.00000  Uiso   1.00
O524   O     0.85908   0.16908   0.82793   0.00000  Uiso   1.00
O525   O     0.77142   0.08578   0.74414   0.00000  Uiso   1.00
O526   O     0.87203   0.09526   0.75367   0.00000  Uiso   1.00
O527   O     0.80758   0.16425   0.67207   0.00000  Uiso   1.00
O528   O     0.90819   0.17373   0.68160   0.00000  Uiso   1.00
C529   C     0.18178   0.60007   0.75157   0.00000  Uiso   1.00
C530   C     0.11210   0.49778   0.90354   0.00000  Uiso   1.00
C531   C     0.19025   0.65606   0.75236   0.00000  Uiso   1.00
C532   C     0.13309   0.49903   0.84730   0.00000  Uiso   1.00
C533   C     0.14301   0.34393   0.74784   0.00000  Uiso   1.00
C534   C     0.15152   0.39993   0.74852   0.00000  Uiso   1.00
C535   C     0.20053   0.50370   0.65297   0.00000  Uiso   1.00
C536   C     0.29292   0.55929   0.52684   0.00000  Uiso   1.00
C537   C     0.22084   0.51225   0.59793   0.00000  Uiso   1.00
C538   C     0.05037   0.47130   0.92487   0.00000  Uiso   1.00
C539   C     0.03279   0.46153   0.97678   0.00000  Uiso   1.00
C540   C     0.13923   0.50205   0.98797   0.00000  Uiso   1.00
C541   C     0.07655   0.47556   0.50789   0.00000  Uiso   1.00
C542   C     0.15513   0.51745   0.93623   0.00000  Uiso   1.00
C543   C     0.18640   0.51449   0.51789   0.00000  Uiso   1.00
C544   C     0.24627   0.54632   0.99750   0.00000  Uiso   1.00
C545   C     0.25837   0.56608   0.94863   0.00000  Uiso   1.00
C546   C     0.21327   0.55261   0.91877   0.00000  Uiso   1.00
C547   C     0.17593   0.49621   0.56761   0.00000  Uiso   1.00
C548   C     0.28012   0.54263   0.57703   0.00000  Uiso   1.00
Cu549  Cu    0.10710   0.49439   0.74435   0.00000  Uiso   1.00
Cu550  Cu    0.22623   0.50561   0.75564   0.00000  Uiso   1.00
F551   F     0.00777   0.54532   0.79937   0.00000  Uiso   1.00
F552   F     0.00718   0.45321   0.89542   0.00000  Uiso   1.00
H553   H     0.31539   0.55541   0.60006   0.00000  Uiso   1.00
H554   H     0.23574   0.34661   0.75664   0.00000  Uiso   1.00
H555   H     0.09751   0.65339   0.74358   0.00000  Uiso   1.00
H556   H     0.33020   0.46157   0.70946   0.00000  Uiso   1.00
H557   H     0.30294   0.59225   0.93338   0.00000  Uiso   1.00
H558   H     0.00538   0.58357   0.51140   0.00000  Uiso   1.00
H559   H     0.13248   0.47009   0.58436   0.00000  Uiso   1.00
H560   H     0.05918   0.46632   0.54765   0.00000  Uiso   1.00
H561   H     0.31838   0.44154   0.99293   0.00000  Uiso   1.00
H562   H     0.22420   0.57142   0.88232   0.00000  Uiso   1.00
N563   N     0.31574   0.51407   0.76416   0.00000  Uiso   1.00
N564   N     0.01759   0.48593   0.73584   0.00000  Uiso   1.00
O565   O     0.12797   0.57141   0.74633   0.00000  Uiso   1.00
O566   O     0.22858   0.58089   0.75586   0.00000  Uiso   1.00
O567   O     0.09181   0.49293   0.81839   0.00000  Uiso   1.00
O568   O     0.19242   0.50241   0.82793   0.00000  Uiso   1.00
O569   O     0.10476   0.41911   0.74414   0.00000  Uiso   1.00
O570   O     0.20536   0.42859   0.75367   0.00000  Uiso   1.00
O571   O     0.14092   0.49759   0.67207   0.00000  Uiso   1.00
O572   O     0.24152   0.50707   0.68160   0.00000  Uiso   1.00
C573   C     0.51511   0.60007   0.75157   0.00000  Uiso   1.00
C574   C     0.44543   0.49778   0.90354   0.00000  Uiso   1.00
C575   C     0.52358   0.65606   0.75236   0.00000  Uiso   1.00
C576   C     0.46642   0.49903   0.84730   0.00000  Uiso   1.00
C577   C     0.47634   0.34393   0.74784   0.00000  Uiso   1.00
C578   C     0.48485   0.39993   0.74852   0.00000  Uiso   1.00
C579   C     0.53387   0.50370   0.65297   0.00000  Uiso   1.00
C580   C     0.62626   0.55929   0.52684   0.00000  Uiso   1.00
C581   C     0.55417   0.51225   0.59793   0.00000  Uiso   1.00
C582   C     0.38370   0.47130   0.92487   0.00000  Uiso   1.00
C583   C     0.36612   0.46153   0.97678   0.00000  Uiso   1.00
C584   C     0.47256   0.50205   0.98797   0.00000  Uiso   1.00
C585   C     0.40988   0.47556   0.50789   0.00000  Uiso   1.00
C586   C     0.48847   0.51745   0.93623   0.00000  Uiso   1.00
C587   C     0.51973   0.51449   0.51789   0.00000  Uiso   1.00
C588   C     0.57961   0.54632   0.99750   0.00000  Uiso   1.00
C589   C     0.59171   0.56608   0.94863   0.00000  Uiso   1.00
C590   C     0.54660   0.55261   0.91877   0.00000  Uiso   1.00
C591   C     0.50927   0.49621   0.56761   0.00000  Uiso   1.00
C592   C     0.61346   0.54263   0.57703   0.00000  Uiso   1.00
Cu593  Cu    0.44043   0.49439   0.74435   0.00000  Uiso   1.00
Cu594  Cu    0.55957   0.50561   0.75564   0.00000  Uiso   1.00
F595   F     0.34110   0.54532   0.79937   0.00000  Uiso   1.00
F596   F     0.34051   0.45321   0.89542   0.00000  Uiso   1.00
H597   H     0.64872   0.55541   0.60006   0.00000  Uiso   1.00
H598   H     0.56908   0.34661   0.75664   0.00000  Uiso   1.00
H599   H     0.43085   0.65339   0.74358   0.00000  Uiso   1.00
H600   H     0.66353   0.46157   0.70946   0.00000  Uiso   1.00
H601   H     0.63627   0.59225   0.93338   0.00000  Uiso   1.00
H602   H     0.33872   0.58357   0.51140   0.00000  Uiso   1.00
H603   H     0.46581   0.47009   0.58436   0.00000  Uiso   1.00
H604   H     0.39251   0.46632   0.54765   0.00000  Uiso   1.00
H605   H     0.65171   0.44154   0.99293   0.00000  Uiso   1.00
H606   H     0.55753   0.57142   0.88232   0.00000  Uiso   1.00
N607   N     0.64908   0.51407   0.76416   0.00000  Uiso   1.00
N608   N     0.35092   0.48593   0.73584   0.00000  Uiso   1.00
O609   O     0.46131   0.57141   0.74633   0.00000  Uiso   1.00
O610   O     0.56191   0.58089   0.75586   0.00000  Uiso   1.00
O611   O     0.42515   0.49293   0.81839   0.00000  Uiso   1.00
O612   O     0.52575   0.50241   0.82793   0.00000  Uiso   1.00
O613   O     0.43809   0.41911   0.74414   0.00000  Uiso   1.00
O614   O     0.53869   0.42859   0.75367   0.00000  Uiso   1.00
O615   O     0.47425   0.49759   0.67207   0.00000  Uiso   1.00
O616   O     0.57485   0.50707   0.68160   0.00000  Uiso   1.00
C617   C     0.84845   0.60007   0.75157   0.00000  Uiso   1.00
C618   C     0.77877   0.49778   0.90354   0.00000  Uiso   1.00
C619   C     0.85692   0.65606   0.75236   0.00000  Uiso   1.00
C620   C     0.79976   0.49903   0.84730   0.00000  Uiso   1.00
C621   C     0.80968   0.34393   0.74784   0.00000  Uiso   1.00
C622   C     0.81819   0.39993   0.74852   0.00000  Uiso   1.00
C623   C     0.86720   0.50370   0.65297   0.00000  Uiso   1.00
C624   C     0.95959   0.55929   0.52684   0.00000  Uiso   1.00
C625   C     0.88751   0.51225   0.59793   0.00000  Uiso   1.00
C626   C     0.71704   0.47130   0.92487   0.00000  Uiso   1.00
C627   C     0.69945   0.46153   0.97678   0.00000  Uiso   1.00
C628   C     0.80589   0.50205   0.98797   0.00000  Uiso   1.00
C629   C     0.74322   0.47556   0.50789   0.00000  Uiso   1.00
C630   C     0.82180   0.51745   0.93623   0.00000  Uiso   1.00
C631   C     0.85306   0.51449   0.51789   0.00000  Uiso   1.00
C632   C     0.91294   0.54632   0.99750   0.00000  Uiso   1.00
C633   C     0.92504   0.56608   0.94863   0.00000  Uiso   1.00
C634   C     0.87993   0.55261   0.91877   0.00000  Uiso   1.00
C635   C     0.84260   0.49621   0.56761   0.00000  Uiso   1.00
C636   C     0.94679   0.54263   0.57703   0.00000  Uiso   1.00
Cu637  Cu    0.77377   0.49439   0.74435   0.00000  Uiso   1.00
Cu638  Cu    0.89290   0.50561   0.75564   0.00000  Uiso   1.00
F639   F     0.67444   0.54532   0.79937   0.00000  Uiso   1.00
F640   F     0.67385   0.45321   0.89542   0.00000  Uiso   1.00
H641   H     0.98205   0.55541   0.60006   0.00000  Uiso   1.00
H642   H     0.90241   0.34661   0.75664   0.00000  Uiso   1.00
H643   H     0.76418   0.65339   0.74358   0.00000  Uiso   1.00
H644   H     0.99686   0.46157   0.70946   0.00000  Uiso   1.00
H645   H     0.96960   0.59225   0.93338   0.00000  Uiso   1.00
H646   H     0.67205   0.58357   0.51140   0.00000  Uiso   1.00
H647   H     0.79914   0.47009   0.58436   0.00000  Uiso   1.00
H648   H     0.72584   0.46632   0.54765   0.00000  Uiso   1.00
H649   H     0.98505   0.44154   0.99293   0.00000  Uiso   1.00
H650   H     0.89087   0.57142   0.88232   0.00000  Uiso   1.00
N651   N     0.98241   0.51407   0.76416   0.00000  Uiso   1.00
N652   N     0.68426   0.48593   0.73584   0.00000  Uiso   1.00
O653   O     0.79464   0.57141   0.74633   0.00000  Uiso   1.00
O654   O     0.89524   0.58089   0.75586   0.00000  Uiso   1.00
O655   O     0.75848   0.49293   0.81839   0.00000  Uiso   1.00
O656   O     0.85908   0.50241   0.82793   0.00000  Uiso   1.00
O657   O     0.77142   0.41911   0.74414   0.00000  Uiso   1.00
O658   O     0.87203   0.42859   0.75367   0.00000  Uiso   1.00
O659   O     0.80758   0.49759   0.67207   0.00000  Uiso   1.00
O660   O     0.90819   0.50707   0.68160   0.00000  Uiso   1.00
C661   C     0.18178   0.93340   0.75157   0.00000  Uiso   1.00
C662   C     0.11210   0.83111   0.90354   0.00000  Uiso   1.00
C663   C     0.19025   0.98939   0.75236   0.00000  Uiso   1.00
C664   C     0.13309   0.83236   0.84730   0.00000  Uiso   1.00
C665   C     0.14301   0.67727   0.74784   0.00000  Uiso   1.00
C666   C     0.15152   0.73326   0.74852   0.00000  Uiso   1.00
C667   C     0.20053   0.83703   0.65297   0.00000  Uiso   1.00
C668   C     0.29292   0.89262   0.52684   0.00000  Uiso   1.00
C669   C     0.22084   0.84558   0.59793   0.00000  Uiso   1.00
C670   C     0.05037   0.80463   0.92487   0.00000  Uiso   1.00
C671   C     0.03279   0.79486   0.97678   0.00000  Uiso   1.00
C672   C     0.13923   0.83538   0.98797   0.00000  Uiso   1.00
C673   C     0.07655   0.80890   0.50789   0.00000  Uiso   1.00
C674   C     0.15513   0.85078   0.93623   0.00000  Uiso   1.00
C675   C     0.18640   0.84783   0.51789   0.00000  Uiso   1.00
C676   C     0.24627   0.87965   0.99750   0.00000  Uiso   1.00
C677   C     0.25837   0.89941   0.94863   0.00000  Uiso   1.00
C678   C     0.21327   0.88595   0.91877   0.00000  Uiso   1.00
C679   C     0.17593   0.82954   0.56761   0.00000  Uiso   1.00
C680   C     0.28012   0.87597   0.57703   0.00000  Uiso   1.00
Cu681  Cu    0.10710   0.82772   0.74435   0.00000  Uiso   1.00
Cu682  Cu    0.22623   0.83895   0.75564   0.00000  Uiso   1.00
F683   F     0.00777   0.87865   0.79937   0.00000  Uiso   1.00
F684   F     0.00718   0.78655   0.89542   0.00000  Uiso   1.00
H685   H     0.31539   0.88875   0.60006   0.00000  Uiso   1.00
H686   H     0.23574   0.67994   0.75664   0.00000  Uiso   1.00
H687   H     0.09751   0.98672   0.74358   0.00000  Uiso   1.00
H688   H     0.33020   0.79490   0.70946   0.00000  Uiso   1.00
H689   H     0.30294   0.92558   0.93338   0.00000  Uiso   1.00
H690   H     0.00538   0.91690   0.51140   0.00000  Uiso   1.00
H691   H     0.13248   0.80343   0.58436   0.00000  Uiso   1.00
H692   H     0.05918   0.79966   0.54765   0.00000  Uiso   1.00
H693   H     0.31838   0.77487   0.99293   0.00000  Uiso   1.00
H694   H     0.22420   0.90475   0.88232   0.00000  Uiso   1.00
N695   N     0.31574   0.84741   0.76416   0.00000  Uiso   1.00
N696   N     0.01759   0.81926   0.73584   0.00000  Uiso   1.00
O697   O     0.12797   0.90474   0.74633   0.00000  Uiso   1.00
O698   O     0.22858   0.91422   0.75586   0.00000  Uiso   1.00
O699   O     0.09181   0.82627   0.81839   0.00000  Uiso   1.00
O700   O     0.19242   0.83575   0.82793   0.00000  Uiso   1.00
O701   O     0.10476   0.75245   0.74414   0.00000  Uiso   1.00
O702   O     0.20536   0.76193   0.75367   0.00000  Uiso   1.00
O703   O     0.14092   0.83092   0.67207   0.00000  Uiso   1.00
O704   O     0.24152   0.84040   0.68160   0.00000  Uiso   1.00
C705   C     0.51511   0.93340   0.75157   0.00000  Uiso   1.00
C706   C     0.44543   0.83111   0.90354   0.00000  Uiso   1.00
C707   C     0.52358   0.98939   0.75236   0.00000  Uiso   1.00
C708   C     0.46642   0.83236   0.84730   0.00000  Uiso   1.00
C709   C     0.47634   0.67727   0.74784   0.00000  Uiso   1.00
C710   C     0.48485   0.73326   0.74852   0.00000  Uiso   1.00
C711   C     0.53387   0.83703   0.65297   0.00000  Uiso   1.00
C712   C     0.62626   0.89262   0.52684   0.00000  Uiso   1.00
C713   C     0.55417   0.84558   0.59793   0.00000  Uiso   1.00
C714   C     0.38370   0.80463   0.92487   0.00000  Uiso   1.00
C715   C     0.36612   0.79486   0.97678   0.00000  Uiso   1.00
C716   C     0.47256   0.83538   0.98797   0.00000  Uiso   1.00
C717   C     0.40988   0.80890   0.50789   0.00000  Uiso   1.00
C718   C     0.48847   0.85078   0.93623   0.00000  Uiso   1.00
C719   C     0.51973   0.84783   0.51789   0.00000  Uiso   1.00
C720   C     0.57961   0.87965   0.99750   0.00000  Uiso   1.00
C721   C     0.59171   0.89941   0.94863   0.00000  Uiso   1.00
C722   C     0.54660   0.88595   0.91877   0.00000  Uiso   1.00
C723   C     0.50927   0.82954   0.56761   0.00000  Uiso   1.00
C724   C     0.61346   0.87597   0.57703   0.00000  Uiso   1.00
Cu725  Cu    0.44043   0.82772   0.74435   0.00000  Uiso   1.00
Cu726  Cu    0.55957   0.83895   0.75564   0.00000  Uiso   1.00
F727   F     0.34110   0.87865   0.79937   0.00000  Uiso   1.00
F728   F     0.34051   0.78655   0.89542   0.00000  Uiso   1.00
H729   H     0.64872   0.88875   0.60006   0.00000  Uiso   1.00
H730   H     0.56908   0.67994   0.75664   0.00000  Uiso   1.00
H731   H     0.43085   0.98672   0.74358   0.00000  Uiso   1.00
H732   H     0.66353   0.79490   0.70946   0.00000  Uiso   1.00
H733   H     0.63627   0.92558   0.93338   0.00000  Uiso   1.00
H734   H     0.33872   0.91690   0.51140   0.00000  Uiso   1.00
H735   H     0.46581   0.80343   0.58436   0.00000  Uiso   1.00
H736   H     0.39251   0.79966   0.54765   0.00000  Uiso   1.00
H737   H     0.65171   0.77487   0.99293   0.00000  Uiso   1.00
H738   H     0.55753   0.90475   0.88232   0.00000  Uiso   1.00
N739   N     0.64908   0.84741   0.76416   0.00000  Uiso   1.00
N740   N     0.35092   0.81926   0.73584   0.00000  Uiso   1.00
O741   O     0.46131   0.90474   0.74633   0.00000  Uiso   1.00
O742   O     0.56191   0.91422   0.75586   0.00000  Uiso   1.00
O743   O     0.42515   0.82627   0.81839   0.00000  Uiso   1.00
O744   O     0.52575   0.83575   0.82793   0.00000  Uiso   1.00
O745   O     0.43809   0.75245   0.74414   0.00000  Uiso   1.00
O746   O     0.53869   0.76193   0.75367   0.00000  Uiso   1.00
O747   O     0.47425   0.83092   0.67207   0.00000  Uiso   1.00
O748   O     0.57485   0.84040   0.68160   0.00000  Uiso   1.00
C749   C     0.84845   0.93340   0.75157   0.00000  Uiso   1.00
C750   C     0.77877   0.83111   0.90354   0.00000  Uiso   1.00
C751   C     0.85692   0.98939   0.75236   0.00000  Uiso   1.00
C752   C     0.79976   0.83236   0.84730   0.00000  Uiso   1.00
C753   C     0.80968   0.67727   0.74784   0.00000  Uiso   1.00
C754   C     0.81819   0.73326   0.74852   0.00000  Uiso   1.00
C755   C     0.86720   0.83703   0.65297   0.00000  Uiso   1.00
C756   C     0.95959   0.89262   0.52684   0.00000  Uiso   1.00
C757   C     0.88751   0.84558   0.59793   0.00000  Uiso   1.00
C758   C     0.71704   0.80463   0.92487   0.00000  Uiso   1.00
C759   C     0.69945   0.79486   0.97678   0.00000  Uiso   1.00
C760   C     0.80589   0.83538   0.98797   0.00000  Uiso   1.00
C761   C     0.74322   0.80890   0.50789   0.00000  Uiso   1.00
C762   C     0.82180   0.85078   0.93623   0.00000  Uiso   1.00
C763   C     0.85306   0.84783   0.51789   0.00000  Uiso   1.00
C764   C     0.91294   0.87965   0.99750   0.00000  Uiso   1.00
C765   C     0.92504   0.89941   0.94863   0.00000  Uiso   1.00
C766   C     0.87993   0.88595   0.91877   0.00000  Uiso   1.00
C767   C     0.84260   0.82954   0.56761   0.00000  Uiso   1.00
C768   C     0.94679   0.87597   0.57703   0.00000  Uiso   1.00
Cu769  Cu    0.77377   0.82772   0.74435   0.00000  Uiso   1.00
Cu770  Cu    0.89290   0.83895   0.75564   0.00000  Uiso   1.00
F771   F     0.67444   0.87865   0.79937   0.00000  Uiso   1.00
F772   F     0.67385   0.78655   0.89542   0.00000  Uiso   1.00
H773   H     0.98205   0.88875   0.60006   0.00000  Uiso   1.00
H774   H     0.90241   0.67994   0.75664   0.00000  Uiso   1.00
H775   H     0.76418   0.98672   0.74358   0.00000  Uiso   1.00
H776   H     0.99686   0.79490   0.70946   0.00000  Uiso   1.00
H777   H     0.96960   0.92558   0.93338   0.00000  Uiso   1.00
H778   H     0.67205   0.91690   0.51140   0.00000  Uiso   1.00
H779   H     0.79914   0.80343   0.58436   0.00000  Uiso   1.00
H780   H     0.72584   0.79966   0.54765   0.00000  Uiso   1.00
H781   H     0.98505   0.77487   0.99293   0.00000  Uiso   1.00
H782   H     0.89087   0.90475   0.88232   0.00000  Uiso   1.00
N783   N     0.98241   0.84741   0.76416   0.00000  Uiso   1.00
N784   N     0.68426   0.81926   0.73584   0.00000  Uiso   1.00
O785   O     0.79464   0.90474   0.74633   0.00000  Uiso   1.00
O786   O     0.89524   0.91422   0.75586   0.00000  Uiso   1.00
O787   O     0.75848   0.82627   0.81839   0.00000  Uiso   1.00
O788   O     0.85908   0.83575   0.82793   0.00000  Uiso   1.00
O789   O     0.77142   0.75245   0.74414   0.00000  Uiso   1.00
O790   O     0.87203   0.76193   0.75367   0.00000  Uiso   1.00
O791   O     0.80758   0.83092   0.67207   0.00000  Uiso   1.00
O792   O     0.90819   0.84040   0.68160   0.00000  Uiso   1.00
loop_
_geom_bond_atom_site_label_1
_geom_bond_atom_site_label_2
_geom_bond_distance
_geom_bond_site_symmetry_2
_ccdc_geom_bond_type
C1     O37     1.292   .     A
C1     O38     1.287   .     A
C1     C3      1.428   .     S
C2     C4      1.479   .     S
C2     C14     1.424   .     A
C2     C10     1.408   .     A
C3     C137    1.329   .     S
C3     H158    1.088   .     S
C4     O39     1.304   .     A
C4     O40     1.298   .     A
C5     C6      1.428   .     S
C5     C267    1.329   1_545 S
C5     H291    1.088   1_545 S
C6     O42     1.292   .     A
C6     O41     1.287   .     A
C7     O43     1.295   .     A
C7     O44     1.301   .     A
C7     C9      1.464   .     S
C8     C20     1.394   .     A
C8     C412    1.405   1_554 S
C8     H74     1.084   .     S
C9     C20     1.399   .     A
C9     C19     1.398   .     A
C10    C11     1.387   .     A
C10    F24     1.358   .     S
C11    C409    1.389   .     S
C11    H121    1.083   1_455 S
C12    C14     1.419   .     A
C12    C409    1.417   .     S
C12    C411    1.425   .     S
C13    H32     1.077   .     S
C13    C408    1.417   1_554 S
C13    C407    1.389   1_554 S
C14    C18     1.414   .     A
C15    C19     1.402   .     A
C15    C408    1.425   1_554 S
C15    C412    1.420   1_554 S
C16    C17     1.392   .     A
C16    C411    1.420   .     S
C16    C404    1.405   .     S
C17    C18     1.388   .     A
C17    H29     1.084   .     S
C18    H34     1.080   .     S
C19    H31     1.077   .     S
C20    H25     1.083   .     S
Cu21   O39     1.941   .     S
Cu21   N36     2.021   .     S
Cu21   O41     1.951   .     S
Cu21   Cu22    2.689   .     S
Cu21   O37     1.955   .     S
Cu21   O43     1.921   .     S
Cu22   O40     1.921   .     S
Cu22   N35     2.021   .     S
Cu22   O42     1.955   .     S
Cu22   O44     1.941   .     S
Cu22   O38     1.951   .     S
F23    N123    1.335   1_455 S
H26    C267    1.088   1_545 S
H27    C137    1.088   .     S
H28    N80     1.029   .     S
H30    C96     1.084   1_455 S
H33    C55     1.083   .     S
N35    F67     1.335   .     S
N35    N80     1.286   .     S
N36    N123    1.286   1_455 S
N36    H116    1.029   1_455 S
C45    O81     1.292   .     A
C45    O82     1.287   .     A
C45    C47     1.428   .     S
C46    C48     1.479   .     S
C46    C58     1.424   .     A
C46    C54     1.408   .     A
C47    C181    1.329   .     S
C47    H202    1.088   .     S
C48    O83     1.304   .     A
C48    O84     1.298   .     A
C49    C50     1.428   .     S
C49    C311    1.329   1_545 S
C49    H335    1.088   1_545 S
C50    O86     1.292   .     A
C50    O85     1.287   .     A
C51    O87     1.295   .     A
C51    O88     1.301   .     A
C51    C53     1.464   .     S
C52    C64     1.394   .     A
C52    C456    1.405   1_554 S
C52    H118    1.084   .     S
C53    C64     1.399   .     A
C53    C63     1.398   .     A
C54    C55     1.387   .     A
C54    F68     1.358   .     S
C55    C453    1.389   .     S
C56    C58     1.419   .     A
C56    C453    1.417   .     S
C56    C455    1.425   .     S
C57    H76     1.077   .     S
C57    C452    1.417   1_554 S
C57    C451    1.389   1_554 S
C58    C62     1.414   .     A
C59    C63     1.402   .     A
C59    C452    1.425   1_554 S
C59    C456    1.420   1_554 S
C60    C61     1.392   .     A
C60    C455    1.420   .     S
C60    C448    1.405   .     S
C61    C62     1.388   .     A
C61    H73     1.084   .     S
C62    H78     1.080   .     S
C63    H75     1.077   .     S
C64    H69     1.083   .     S
Cu65   O83     1.941   .     S
Cu65   N80     2.021   .     S
Cu65   O85     1.951   .     S
Cu65   Cu66    2.689   .     S
Cu65   O81     1.955   .     S
Cu65   O87     1.921   .     S
Cu66   O84     1.921   .     S
Cu66   N79     2.021   .     S
Cu66   O86     1.955   .     S
Cu66   O88     1.941   .     S
Cu66   O82     1.951   .     S
H70    C311    1.088   1_545 S
H71    C181    1.088   .     S
H72    N124    1.029   .     S
H77    C99     1.083   .     S
N79    F111    1.335   .     S
N79    N124    1.286   .     S
C89    O125    1.292   .     A
C89    O126    1.287   .     A
C89    C91     1.428   .     S
C90    C92     1.479   .     S
C90    C102    1.424   .     A
C90    C98     1.408   .     A
C91    C225    1.329   .     S
C91    H246    1.088   .     S
C92    O127    1.304   .     A
C92    O128    1.298   .     A
C93    C94     1.428   .     S
C93    C355    1.329   1_545 S
C93    H379    1.088   1_545 S
C94    O130    1.292   .     A
C94    O129    1.287   .     A
C95    O131    1.295   .     A
C95    O132    1.301   .     A
C95    C97     1.464   .     S
C96    C108    1.394   .     A
C96    C500    1.405   1_554 S
C96    H30     1.084   1_655 S
C97    C108    1.399   .     A
C97    C107    1.398   .     A
C98    C99     1.387   .     A
C98    F112    1.358   .     S
C99    C497    1.389   .     S
C100   C102    1.419   .     A
C100   C497    1.417   .     S
C100   C499    1.425   .     S
C101   H120    1.077   .     S
C101   C496    1.417   1_554 S
C101   C495    1.389   1_554 S
C102   C106    1.414   .     A
C103   C107    1.402   .     A
C103   C496    1.425   1_554 S
C103   C500    1.420   1_554 S
C104   C105    1.392   .     A
C104   C499    1.420   .     S
C104   C492    1.405   .     S
C105   C106    1.388   .     A
C105   H117    1.084   .     S
C106   H122    1.080   .     S
C107   H119    1.077   .     S
C108   H113    1.083   .     S
Cu109  O127    1.941   .     S
Cu109  N124    2.021   .     S
Cu109  O129    1.951   .     S
Cu109  Cu110   2.689   .     S
Cu109  O125    1.955   .     S
Cu109  O131    1.921   .     S
Cu110  O128    1.921   .     S
Cu110  N123    2.021   .     S
Cu110  O130    1.955   .     S
Cu110  O132    1.941   .     S
Cu110  O126    1.951   .     S
H114   C355    1.088   1_545 S
H115   C225    1.088   .     S
H116   N36     1.029   1_655 S
H121   C11     1.083   1_655 S
N123   F23     1.335   1_655 S
N123   N36     1.286   1_655 S
C133   O169    1.292   .     A
C133   O170    1.287   .     A
C133   C135    1.428   .     S
C134   C136    1.479   .     S
C134   C146    1.424   .     A
C134   C142    1.408   .     A
C135   C269    1.329   .     S
C135   H290    1.088   .     S
C136   O171    1.304   .     A
C136   O172    1.298   .     A
C137   C138    1.428   .     S
C138   O174    1.292   .     A
C138   O173    1.287   .     A
C139   O175    1.295   .     A
C139   O176    1.301   .     A
C139   C141    1.464   .     S
C140   C152    1.394   .     A
C140   C544    1.405   1_554 S
C140   H206    1.084   .     S
C141   C152    1.399   .     A
C141   C151    1.398   .     A
C142   C143    1.387   .     A
C142   F156    1.358   .     S
C143   C541    1.389   .     S
C143   H253    1.083   1_455 S
C144   C146    1.419   .     A
C144   C541    1.417   .     S
C144   C543    1.425   .     S
C145   H164    1.077   .     S
C145   C540    1.417   1_554 S
C145   C539    1.389   1_554 S
C146   C150    1.414   .     A
C147   C151    1.402   .     A
C147   C540    1.425   1_554 S
C147   C544    1.420   1_554 S
C148   C149    1.392   .     A
C148   C543    1.420   .     S
C148   C536    1.405   .     S
C149   C150    1.388   .     A
C149   H161    1.084   .     S
C150   H166    1.080   .     S
C151   H163    1.077   .     S
C152   H157    1.083   .     S
Cu153  O171    1.941   .     S
Cu153  N168    2.021   .     S
Cu153  O173    1.951   .     S
Cu153  Cu154   2.689   .     S
Cu153  O169    1.955   .     S
Cu153  O175    1.921   .     S
Cu154  O172    1.921   .     S
Cu154  N167    2.021   .     S
Cu154  O174    1.955   .     S
Cu154  O176    1.941   .     S
Cu154  O170    1.951   .     S
F155   N255    1.335   1_455 S
H159   C269    1.088   .     S
H160   N212    1.029   .     S
H162   C228    1.084   1_455 S
H165   C187    1.083   .     S
N167   F199    1.335   .     S
N167   N212    1.286   .     S
N168   N255    1.286   1_455 S
N168   H248    1.029   1_455 S
C177   O213    1.292   .     A
C177   O214    1.287   .     A
C177   C179    1.428   .     S
C178   C180    1.479   .     S
C178   C190    1.424   .     A
C178   C186    1.408   .     A
C179   C313    1.329   .     S
C179   H334    1.088   .     S
C180   O215    1.304   .     A
C180   O216    1.298   .     A
C181   C182    1.428   .     S
C182   O218    1.292   .     A
C182   O217    1.287   .     A
C183   O219    1.295   .     A
C183   O220    1.301   .     A
C183   C185    1.464   .     S
C184   C196    1.394   .     A
C184   C588    1.405   1_554 S
C184   H250    1.084   .     S
C185   C196    1.399   .     A
C185   C195    1.398   .     A
C186   C187    1.387   .     A
C186   F200    1.358   .     S
C187   C585    1.389   .     S
C188   C190    1.419   .     A
C188   C585    1.417   .     S
C188   C587    1.425   .     S
C189   H208    1.077   .     S
C189   C584    1.417   1_554 S
C189   C583    1.389   1_554 S
C190   C194    1.414   .     A
C191   C195    1.402   .     A
C191   C584    1.425   1_554 S
C191   C588    1.420   1_554 S
C192   C193    1.392   .     A
C192   C587    1.420   .     S
C192   C580    1.405   .     S
C193   C194    1.388   .     A
C193   H205    1.084   .     S
C194   H210    1.080   .     S
C195   H207    1.077   .     S
C196   H201    1.083   .     S
Cu197  O215    1.941   .     S
Cu197  N212    2.021   .     S
Cu197  O217    1.951   .     S
Cu197  Cu198   2.689   .     S
Cu197  O213    1.955   .     S
Cu197  O219    1.921   .     S
Cu198  O216    1.921   .     S
Cu198  N211    2.021   .     S
Cu198  O218    1.955   .     S
Cu198  O220    1.941   .     S
Cu198  O214    1.951   .     S
H203   C313    1.088   .     S
H204   N256    1.029   .     S
H209   C231    1.083   .     S
N211   F243    1.335   .     S
N211   N256    1.286   .     S
C221   O257    1.292   .     A
C221   O258    1.287   .     A
C221   C223    1.428   .     S
C222   C224    1.479   .     S
C222   C234    1.424   .     A
C222   C230    1.408   .     A
C223   C357    1.329   .     S
C223   H378    1.088   .     S
C224   O259    1.304   .     A
C224   O260    1.298   .     A
C225   C226    1.428   .     S
C226   O262    1.292   .     A
C226   O261    1.287   .     A
C227   O263    1.295   .     A
C227   O264    1.301   .     A
C227   C229    1.464   .     S
C228   C240    1.394   .     A
C228   C632    1.405   1_554 S
C228   H162    1.084   1_655 S
C229   C240    1.399   .     A
C229   C239    1.398   .     A
C230   C231    1.387   .     A
C230   F244    1.358   .     S
C231   C629    1.389   .     S
C232   C234    1.419   .     A
C232   C629    1.417   .     S
C232   C631    1.425   .     S
C233   H252    1.077   .     S
C233   C628    1.417   1_554 S
C233   C627    1.389   1_554 S
C234   C238    1.414   .     A
C235   C239    1.402   .     A
C235   C628    1.425   1_554 S
C235   C632    1.420   1_554 S
C236   C237    1.392   .     A
C236   C631    1.420   .     S
C236   C624    1.405   .     S
C237   C238    1.388   .     A
C237   H249    1.084   .     S
C238   H254    1.080   .     S
C239   H251    1.077   .     S
C240   H245    1.083   .     S
Cu241  O259    1.941   .     S
Cu241  N256    2.021   .     S
Cu241  O261    1.951   .     S
Cu241  Cu242   2.689   .     S
Cu241  O257    1.955   .     S
Cu241  O263    1.921   .     S
Cu242  O260    1.921   .     S
Cu242  N255    2.021   .     S
Cu242  O262    1.955   .     S
Cu242  O264    1.941   .     S
Cu242  O258    1.951   .     S
H247   C357    1.088   .     S
H248   N168    1.029   1_655 S
H253   C143    1.083   1_655 S
N255   F155    1.335   1_655 S
N255   N168    1.286   1_655 S
C265   O301    1.292   .     A
C265   O302    1.287   .     A
C265   C267    1.428   .     S
C266   C268    1.479   .     S
C266   C278    1.424   .     A
C266   C274    1.408   .     A
C267   C5      1.329   1_565 S
C267   H26     1.088   1_565 S
C268   O303    1.304   .     A
C268   O304    1.298   .     A
C269   C270    1.428   .     S
C270   O306    1.292   .     A
C270   O305    1.287   .     A
C271   O307    1.295   .     A
C271   O308    1.301   .     A
C271   C273    1.464   .     S
C272   C284    1.394   .     A
C272   C676    1.405   1_554 S
C272   H338    1.084   .     S
C273   C284    1.399   .     A
C273   C283    1.398   .     A
C274   C275    1.387   .     A
C274   F288    1.358   .     S
C275   C673    1.389   .     S
C275   H385    1.083   1_455 S
C276   C278    1.419   .     A
C276   C673    1.417   .     S
C276   C675    1.425   .     S
C277   H296    1.077   .     S
C277   C672    1.417   1_554 S
C277   C671    1.389   1_554 S
C278   C282    1.414   .     A
C279   C283    1.402   .     A
C279   C672    1.425   1_554 S
C279   C676    1.420   1_554 S
C280   C281    1.392   .     A
C280   C675    1.420   .     S
C280   C668    1.405   .     S
C281   C282    1.388   .     A
C281   H293    1.084   .     S
C282   H298    1.080   .     S
C283   H295    1.077   .     S
C284   H289    1.083   .     S
Cu285  O303    1.941   .     S
Cu285  N300    2.021   .     S
Cu285  O305    1.951   .     S
Cu285  Cu286   2.689   .     S
Cu285  O301    1.955   .     S
Cu285  O307    1.921   .     S
Cu286  O304    1.921   .     S
Cu286  N299    2.021   .     S
Cu286  O306    1.955   .     S
Cu286  O308    1.941   .     S
Cu286  O302    1.951   .     S
F287   N387    1.335   1_455 S
H291   C5      1.088   1_565 S
H292   N344    1.029   .     S
H294   C360    1.084   1_455 S
H297   C319    1.083   .     S
N299   F331    1.335   .     S
N299   N344    1.286   .     S
N300   N387    1.286   1_455 S
N300   H380    1.029   1_455 S
C309   O345    1.292   .     A
C309   O346    1.287   .     A
C309   C311    1.428   .     S
C310   C312    1.479   .     S
C310   C322    1.424   .     A
C310   C318    1.408   .     A
C311   C49     1.329   1_565 S
C311   H70     1.088   1_565 S
C312   O347    1.304   .     A
C312   O348    1.298   .     A
C313   C314    1.428   .     S
C314   O350    1.292   .     A
C314   O349    1.287   .     A
C315   O351    1.295   .     A
C315   O352    1.301   .     A
C315   C317    1.464   .     S
C316   C328    1.394   .     A
C316   C720    1.405   1_554 S
C316   H382    1.084   .     S
C317   C328    1.399   .     A
C317   C327    1.398   .     A
C318   C319    1.387   .     A
C318   F332    1.358   .     S
C319   C717    1.389   .     S
C320   C322    1.419   .     A
C320   C717    1.417   .     S
C320   C719    1.425   .     S
C321   H340    1.077   .     S
C321   C716    1.417   1_554 S
C321   C715    1.389   1_554 S
C322   C326    1.414   .     A
C323   C327    1.402   .     A
C323   C716    1.425   1_554 S
C323   C720    1.420   1_554 S
C324   C325    1.392   .     A
C324   C719    1.420   .     S
C324   C712    1.405   .     S
C325   C326    1.388   .     A
C325   H337    1.084   .     S
C326   H342    1.080   .     S
C327   H339    1.077   .     S
C328   H333    1.083   .     S
Cu329  O347    1.941   .     S
Cu329  N344    2.021   .     S
Cu329  O349    1.951   .     S
Cu329  Cu330   2.689   .     S
Cu329  O345    1.955   .     S
Cu329  O351    1.921   .     S
Cu330  O348    1.921   .     S
Cu330  N343    2.021   .     S
Cu330  O350    1.955   .     S
Cu330  O352    1.941   .     S
Cu330  O346    1.951   .     S
H335   C49     1.088   1_565 S
H336   N388    1.029   .     S
H341   C363    1.083   .     S
N343   F375    1.335   .     S
N343   N388    1.286   .     S
C353   O389    1.292   .     A
C353   O390    1.287   .     A
C353   C355    1.428   .     S
C354   C356    1.479   .     S
C354   C366    1.424   .     A
C354   C362    1.408   .     A
C355   C93     1.329   1_565 S
C355   H114    1.088   1_565 S
C356   O391    1.304   .     A
C356   O392    1.298   .     A
C357   C358    1.428   .     S
C358   O394    1.292   .     A
C358   O393    1.287   .     A
C359   O395    1.295   .     A
C359   O396    1.301   .     A
C359   C361    1.464   .     S
C360   C372    1.394   .     A
C360   C764    1.405   1_554 S
C360   H294    1.084   1_655 S
C361   C372    1.399   .     A
C361   C371    1.398   .     A
C362   C363    1.387   .     A
C362   F376    1.358   .     S
C363   C761    1.389   .     S
C364   C366    1.419   .     A
C364   C761    1.417   .     S
C364   C763    1.425   .     S
C365   H384    1.077   .     S
C365   C760    1.417   1_554 S
C365   C759    1.389   1_554 S
C366   C370    1.414   .     A
C367   C371    1.402   .     A
C367   C760    1.425   1_554 S
C367   C764    1.420   1_554 S
C368   C369    1.392   .     A
C368   C763    1.420   .     S
C368   C756    1.405   .     S
C369   C370    1.388   .     A
C369   H381    1.084   .     S
C370   H386    1.080   .     S
C371   H383    1.077   .     S
C372   H377    1.083   .     S
Cu373  O391    1.941   .     S
Cu373  N388    2.021   .     S
Cu373  O393    1.951   .     S
Cu373  Cu374   2.689   .     S
Cu373  O389    1.955   .     S
Cu373  O395    1.921   .     S
Cu374  O392    1.921   .     S
Cu374  N387    2.021   .     S
Cu374  O394    1.955   .     S
Cu374  O396    1.941   .     S
Cu374  O390    1.951   .     S
H379   C93     1.088   1_565 S
H380   N300    1.029   1_655 S
H385   C275    1.083   1_655 S
N387   F287    1.335   1_655 S
N387   N300    1.286   1_655 S
C397   O433    1.292   .     A
C397   O434    1.287   .     A
C397   C399    1.428   .     S
C398   C400    1.479   .     S
C398   C410    1.424   .     A
C398   C406    1.408   .     A
C399   C533    1.329   .     S
C399   H554    1.088   .     S
C400   O435    1.304   .     A
C400   O436    1.298   .     A
C401   C402    1.428   .     S
C401   C663    1.329   1_545 S
C401   H687    1.088   1_545 S
C402   O438    1.292   .     A
C402   O437    1.287   .     A
C403   O439    1.295   .     A
C403   O440    1.301   .     A
C403   C405    1.464   .     S
C404   C416    1.394   .     A
C404   H470    1.084   .     S
C405   C416    1.399   .     A
C405   C415    1.398   .     A
C406   C407    1.387   .     A
C406   F420    1.358   .     S
C407   C13     1.389   1_556 S
C407   H517    1.083   1_455 S
C408   C410    1.419   .     A
C408   C13     1.417   1_556 S
C408   C15     1.425   1_556 S
C409   H428    1.077   .     S
C410   C414    1.414   .     A
C411   C415    1.402   .     A
C412   C413    1.392   .     A
C412   C15     1.420   1_556 S
C412   C8      1.405   1_556 S
C413   C414    1.388   .     A
C413   H425    1.084   .     S
C414   H430    1.080   .     S
C415   H427    1.077   .     S
C416   H421    1.083   .     S
Cu417  O435    1.941   .     S
Cu417  N432    2.021   .     S
Cu417  O437    1.951   .     S
Cu417  Cu418   2.689   .     S
Cu417  O433    1.955   .     S
Cu417  O439    1.921   .     S
Cu418  O436    1.921   .     S
Cu418  N431    2.021   .     S
Cu418  O438    1.955   .     S
Cu418  O440    1.941   .     S
Cu418  O434    1.951   .     S
F419   N519    1.335   1_455 S
H422   C663    1.088   1_545 S
H423   C533    1.088   .     S
H424   N476    1.029   .     S
H426   C492    1.084   1_455 S
H429   C451    1.083   .     S
N431   F463    1.335   .     S
N431   N476    1.286   .     S
N432   N519    1.286   1_455 S
N432   H512    1.029   1_455 S
C441   O477    1.292   .     A
C441   O478    1.287   .     A
C441   C443    1.428   .     S
C442   C444    1.479   .     S
C442   C454    1.424   .     A
C442   C450    1.408   .     A
C443   C577    1.329   .     S
C443   H598    1.088   .     S
C444   O479    1.304   .     A
C444   O480    1.298   .     A
C445   C446    1.428   .     S
C445   C707    1.329   1_545 S
C445   H731    1.088   1_545 S
C446   O482    1.292   .     A
C446   O481    1.287   .     A
C447   O483    1.295   .     A
C447   O484    1.301   .     A
C447   C449    1.464   .     S
C448   C460    1.394   .     A
C448   H514    1.084   .     S
C449   C460    1.399   .     A
C449   C459    1.398   .     A
C450   C451    1.387   .     A
C450   F464    1.358   .     S
C451   C57     1.389   1_556 S
C452   C454    1.419   .     A
C452   C57     1.417   1_556 S
C452   C59     1.425   1_556 S
C453   H472    1.077   .     S
C454   C458    1.414   .     A
C455   C459    1.402   .     A
C456   C457    1.392   .     A
C456   C59     1.420   1_556 S
C456   C52     1.405   1_556 S
C457   C458    1.388   .     A
C457   H469    1.084   .     S
C458   H474    1.080   .     S
C459   H471    1.077   .     S
C460   H465    1.083   .     S
Cu461  O479    1.941   .     S
Cu461  N476    2.021   .     S
Cu461  O481    1.951   .     S
Cu461  Cu462   2.689   .     S
Cu461  O477    1.955   .     S
Cu461  O483    1.921   .     S
Cu462  O480    1.921   .     S
Cu462  N475    2.021   .     S
Cu462  O482    1.955   .     S
Cu462  O484    1.941   .     S
Cu462  O478    1.951   .     S
H466   C707    1.088   1_545 S
H467   C577    1.088   .     S
H468   N520    1.029   .     S
H473   C495    1.083   .     S
N475   F507    1.335   .     S
N475   N520    1.286   .     S
C485   O521    1.292   .     A
C485   O522    1.287   .     A
C485   C487    1.428   .     S
C486   C488    1.479   .     S
C486   C498    1.424   .     A
C486   C494    1.408   .     A
C487   C621    1.329   .     S
C487   H642    1.088   .     S
C488   O523    1.304   .     A
C488   O524    1.298   .     A
C489   C490    1.428   .     S
C489   C751    1.329   1_545 S
C489   H775    1.088   1_545 S
C490   O526    1.292   .     A
C490   O525    1.287   .     A
C491   O527    1.295   .     A
C491   O528    1.301   .     A
C491   C493    1.464   .     S
C492   C504    1.394   .     A
C492   H426    1.084   1_655 S
C493   C504    1.399   .     A
C493   C503    1.398   .     A
C494   C495    1.387   .     A
C494   F508    1.358   .     S
C495   C101    1.389   1_556 S
C496   C498    1.419   .     A
C496   C101    1.417   1_556 S
C496   C103    1.425   1_556 S
C497   H516    1.077   .     S
C498   C502    1.414   .     A
C499   C503    1.402   .     A
C500   C501    1.392   .     A
C500   C103    1.420   1_556 S
C500   C96     1.405   1_556 S
C501   C502    1.388   .     A
C501   H513    1.084   .     S
C502   H518    1.080   .     S
C503   H515    1.077   .     S
C504   H509    1.083   .     S
Cu505  O523    1.941   .     S
Cu505  N520    2.021   .     S
Cu505  O525    1.951   .     S
Cu505  Cu506   2.689   .     S
Cu505  O521    1.955   .     S
Cu505  O527    1.921   .     S
Cu506  O524    1.921   .     S
Cu506  N519    2.021   .     S
Cu506  O526    1.955   .     S
Cu506  O528    1.941   .     S
Cu506  O522    1.951   .     S
H510   C751    1.088   1_545 S
H511   C621    1.088   .     S
H512   N432    1.029   1_655 S
H517   C407    1.083   1_655 S
N519   F419    1.335   1_655 S
N519   N432    1.286   1_655 S
C529   O565    1.292   .     A
C529   O566    1.287   .     A
C529   C531    1.428   .     S
C530   C532    1.479   .     S
C530   C542    1.424   .     A
C530   C538    1.408   .     A
C531   C665    1.329   .     S
C531   H686    1.088   .     S
C532   O567    1.304   .     A
C532   O568    1.298   .     A
C533   C534    1.428   .     S
C534   O570    1.292   .     A
C534   O569    1.287   .     A
C535   O571    1.295   .     A
C535   O572    1.301   .     A
C535   C537    1.464   .     S
C536   C548    1.394   .     A
C536   H602    1.084   .     S
C537   C548    1.399   .     A
C537   C547    1.398   .     A
C538   C539    1.387   .     A
C538   F552    1.358   .     S
C539   C145    1.389   1_556 S
C539   H649    1.083   1_455 S
C540   C542    1.419   .     A
C540   C145    1.417   1_556 S
C540   C147    1.425   1_556 S
C541   H560    1.077   .     S
C542   C546    1.414   .     A
C543   C547    1.402   .     A
C544   C545    1.392   .     A
C544   C147    1.420   1_556 S
C544   C140    1.405   1_556 S
C545   C546    1.388   .     A
C545   H557    1.084   .     S
C546   H562    1.080   .     S
C547   H559    1.077   .     S
C548   H553    1.083   .     S
Cu549  O567    1.941   .     S
Cu549  N564    2.021   .     S
Cu549  O569    1.951   .     S
Cu549  Cu550   2.689   .     S
Cu549  O565    1.955   .     S
Cu549  O571    1.921   .     S
Cu550  O568    1.921   .     S
Cu550  N563    2.021   .     S
Cu550  O570    1.955   .     S
Cu550  O572    1.941   .     S
Cu550  O566    1.951   .     S
F551   N651    1.335   1_455 S
H555   C665    1.088   .     S
H556   N608    1.029   .     S
H558   C624    1.084   1_455 S
H561   C583    1.083   .     S
N563   F595    1.335   .     S
N563   N608    1.286   .     S
N564   N651    1.286   1_455 S
N564   H644    1.029   1_455 S
C573   O609    1.292   .     A
C573   O610    1.287   .     A
C573   C575    1.428   .     S
C574   C576    1.479   .     S
C574   C586    1.424   .     A
C574   C582    1.408   .     A
C575   C709    1.329   .     S
C575   H730    1.088   .     S
C576   O611    1.304   .     A
C576   O612    1.298   .     A
C577   C578    1.428   .     S
C578   O614    1.292   .     A
C578   O613    1.287   .     A
C579   O615    1.295   .     A
C579   O616    1.301   .     A
C579   C581    1.464   .     S
C580   C592    1.394   .     A
C580   H646    1.084   .     S
C581   C592    1.399   .     A
C581   C591    1.398   .     A
C582   C583    1.387   .     A
C582   F596    1.358   .     S
C583   C189    1.389   1_556 S
C584   C586    1.419   .     A
C584   C189    1.417   1_556 S
C584   C191    1.425   1_556 S
C585   H604    1.077   .     S
C586   C590    1.414   .     A
C587   C591    1.402   .     A
C588   C589    1.392   .     A
C588   C191    1.420   1_556 S
C588   C184    1.405   1_556 S
C589   C590    1.388   .     A
C589   H601    1.084   .     S
C590   H606    1.080   .     S
C591   H603    1.077   .     S
C592   H597    1.083   .     S
Cu593  O611    1.941   .     S
Cu593  N608    2.021   .     S
Cu593  O613    1.951   .     S
Cu593  Cu594   2.689   .     S
Cu593  O609    1.955   .     S
Cu593  O615    1.921   .     S
Cu594  O612    1.921   .     S
Cu594  N607    2.021   .     S
Cu594  O614    1.955   .     S
Cu594  O616    1.941   .     S
Cu594  O610    1.951   .     S
H599   C709    1.088   .     S
H600   N652    1.029   .     S
H605   C627    1.083   .     S
N607   F639    1.335   .     S
N607   N652    1.286   .     S
C617   O653    1.292   .     A
C617   O654    1.287   .     A
C617   C619    1.428   .     S
C618   C620    1.479   .     S
C618   C630    1.424   .     A
C618   C626    1.408   .     A
C619   C753    1.329   .     S
C619   H774    1.088   .     S
C620   O655    1.304   .     A
C620   O656    1.298   .     A
C621   C622    1.428   .     S
C622   O658    1.292   .     A
C622   O657    1.287   .     A
C623   O659    1.295   .     A
C623   O660    1.301   .     A
C623   C625    1.464   .     S
C624   C636    1.394   .     A
C624   H558    1.084   1_655 S
C625   C636    1.399   .     A
C625   C635    1.398   .     A
C626   C627    1.387   .     A
C626   F640    1.358   .     S
C627   C233    1.389   1_556 S
C628   C630    1.419   .     A
C628   C233    1.417   1_556 S
C628   C235    1.425   1_556 S
C629   H648    1.077   .     S
C630   C634    1.414   .     A
C631   C635    1.402   .     A
C632   C633    1.392   .     A
C632   C235    1.420   1_556 S
C632   C228    1.405   1_556 S
C633   C634    1.388   .     A
C633   H645    1.084   .     S
C634   H650    1.080   .     S
C635   H647    1.077   .     S
C636   H641    1.083   .     S
Cu637  O655    1.941   .     S
Cu637  N652    2.021   .     S
Cu637  O657    1.951   .     S
Cu637  Cu638   2.689   .     S
Cu637  O653    1.955   .     S
Cu637  O659    1.921   .     S
Cu638  O656    1.921   .     S
Cu638  N651    2.021   .     S
Cu638  O658    1.955   .     S
Cu638  O660    1.941   .     S
Cu638  O654    1.951   .     S
H643   C753    1.088   .     S
H644   N564    1.029   1_655 S
H649   C539    1.083   1_655 S
N651   F551    1.335   1_655 S
N651   N564    1.286   1_655 S
C661   O697    1.292   .     A
C661   O698    1.287   .     A
C661   C663    1.428   .     S
C662   C664    1.479   .     S
C662   C674    1.424   .     A
C662   C670    1.408   .     A
C663   C401    1.329   1_565 S
C663   H422    1.088   1_565 S
C664   O699    1.304   .     A
C664   O700    1.298   .     A
C665   C666    1.428   .     S
C666   O702    1.292   .     A
C666   O701    1.287   .     A
C667   O703    1.295   .     A
C667   O704    1.301   .     A
C667   C669    1.464   .     S
C668   C680    1.394   .     A
C668   H734    1.084   .     S
C669   C680    1.399   .     A
C669   C679    1.398   .     A
C670   C671    1.387   .     A
C670   F684    1.358   .     S
C671   C277    1.389   1_556 S
C671   H781    1.083   1_455 S
C672   C674    1.419   .     A
C672   C277    1.417   1_556 S
C672   C279    1.425   1_556 S
C673   H692    1.077   .     S
C674   C678    1.414   .     A
C675   C679    1.402   .     A
C676   C677    1.392   .     A
C676   C279    1.420   1_556 S
C676   C272    1.405   1_556 S
C677   C678    1.388   .     A
C677   H689    1.084   .     S
C678   H694    1.080   .     S
C679   H691    1.077   .     S
C680   H685    1.083   .     S
Cu681  O699    1.941   .     S
Cu681  N696    2.021   .     S
Cu681  O701    1.951   .     S
Cu681  Cu682   2.689   .     S
Cu681  O697    1.955   .     S
Cu681  O703    1.921   .     S
Cu682  O700    1.921   .     S
Cu682  N695    2.021   .     S
Cu682  O702    1.955   .     S
Cu682  O704    1.941   .     S
Cu682  O698    1.951   .     S
F683   N783    1.335   1_455 S
H687   C401    1.088   1_565 S
H688   N740    1.029   .     S
H690   C756    1.084   1_455 S
H693   C715    1.083   .     S
N695   F727    1.335   .     S
N695   N740    1.286   .     S
N696   N783    1.286   1_455 S
N696   H776    1.029   1_455 S
C705   O741    1.292   .     A
C705   O742    1.287   .     A
C705   C707    1.428   .     S
C706   C708    1.479   .     S
C706   C718    1.424   .     A
C706   C714    1.408   .     A
C707   C445    1.329   1_565 S
C707   H466    1.088   1_565 S
C708   O743    1.304   .     A
C708   O744    1.298   .     A
C709   C710    1.428   .     S
C710   O746    1.292   .     A
C710   O745    1.287   .     A
C711   O747    1.295   .     A
C711   O748    1.301   .     A
C711   C713    1.464   .     S
C712   C724    1.394   .     A
C712   H778    1.084   .     S
C713   C724    1.399   .     A
C713   C723    1.398   .     A
C714   C715    1.387   .     A
C714   F728    1.358   .     S
C715   C321    1.389   1_556 S
C716   C718    1.419   .     A
C716   C321    1.417   1_556 S
C716   C323    1.425   1_556 S
C717   H736    1.077   .     S
C718   C722    1.414   .     A
C719   C723    1.402   .     A
C720   C721    1.392   .     A
C720   C323    1.420   1_556 S
C720   C316    1.405   1_556 S
C721   C722    1.388   .     A
C721   H733    1.084   .     S
C722   H738    1.080   .     S
C723   H735    1.077   .     S
C724   H729    1.083   .     S
Cu725  O743    1.941   .     S
Cu725  N740    2.021   .     S
Cu725  O745    1.951   .     S
Cu725  Cu726   2.689   .     S
Cu725  O741    1.955   .     S
Cu725  O747    1.921   .     S
Cu726  O744    1.921   .     S
Cu726  N739    2.021   .     S
Cu726  O746    1.955   .     S
Cu726  O748    1.941   .     S
Cu726  O742    1.951   .     S
H731   C445    1.088   1_565 S
H732   N784    1.029   .     S
H737   C759    1.083   .     S
N739   F771    1.335   .     S
N739   N784    1.286   .     S
C749   O785    1.292   .     A
C749   O786    1.287   .     A
C749   C751    1.428   .     S
C750   C752    1.479   .     S
C750   C762    1.424   .     A
C750   C758    1.408   .     A
C751   C489    1.329   1_565 S
C751   H510    1.088   1_565 S
C752   O787    1.304   .     A
C752   O788    1.298   .     A
C753   C754    1.428   .     S
C754   O790    1.292   .     A
C754   O789    1.287   .     A
C755   O791    1.295   .     A
C755   O792    1.301   .     A
C755   C757    1.464   .     S
C756   C768    1.394   .     A
C756   H690    1.084   1_655 S
C757   C768    1.399   .     A
C757   C767    1.398   .     A
C758   C759    1.387   .     A
C758   F772    1.358   .     S
C759   C365    1.389   1_556 S
C760   C762    1.419   .     A
C760   C365    1.417   1_556 S
C760   C367    1.425   1_556 S
C761   H780    1.077   .     S
C762   C766    1.414   .     A
C763   C767    1.402   .     A
C764   C765    1.392   .     A
C764   C367    1.420   1_556 S
C764   C360    1.405   1_556 S
C765   C766    1.388   .     A
C765   H777    1.084   .     S
C766   H782    1.080   .     S
C767   H779    1.077   .     S
C768   H773    1.083   .     S
Cu769  O787    1.941   .     S
Cu769  N784    2.021   .     S
Cu769  O789    1.951   .     S
Cu769  Cu770   2.689   .     S
Cu769  O785    1.955   .     S
Cu769  O791    1.921   .     S
Cu770  O788    1.921   .     S
Cu770  N783    2.021   .     S
Cu770  O790    1.955   .     S
Cu770  O792    1.941   .     S
Cu770  O786    1.951   .     S
H775   C489    1.088   1_565 S
H776   N696    1.029   1_655 S
H781   C671    1.083   1_655 S
N783   F683    1.335   1_655 S
N783   N696    1.286   1_655 S
