data_str_m2_o1_o17_pcu_sym.38
_audit_creation_date              2020-01-03
_audit_creation_method            'Materials Studio'
_symmetry_space_group_name_H-M    'P1'
_symmetry_Int_Tables_number       1
_symmetry_cell_setting            triclinic
loop_
_symmetry_equiv_pos_as_xyz
  x,y,z
_cell_length_a                    32.6982
_cell_length_b                    28.5240
_cell_length_c                    30.1769
_cell_angle_alpha                 89.5868
_cell_angle_beta                  90.8806
_cell_angle_gamma                 91.0461
loop_
_atom_site_label
_atom_site_type_symbol
_atom_site_fract_x
_atom_site_fract_y
_atom_site_fract_z
_atom_site_U_iso_or_equiv
_atom_site_adp_type
_atom_site_occupancy
C1     C     0.08737   0.16611   0.25127   0.00000  Uiso   1.00
C2     C     0.04264   0.16498   0.25305   0.00000  Uiso   1.00
C3     C     0.14302   0.02451   0.22030   0.00000  Uiso   1.00
C4     C     0.19031   0.30883   0.27970   0.00000  Uiso   1.00
C5     C     0.19047   0.02509   0.27956   0.00000  Uiso   1.00
C6     C     0.14286   0.30825   0.22044   0.00000  Uiso   1.00
C7     C     0.16684   0.16696   0.16449   0.00000  Uiso   1.00
C8     C     0.16649   0.16637   0.33551   0.00000  Uiso   1.00
C9     C     0.19852   0.18940   0.40675   0.00000  Uiso   1.00
C10    C     0.13481   0.14393   0.09325   0.00000  Uiso   1.00
C11    C     0.16702   0.16541   0.38376   0.00000  Uiso   1.00
C12    C     0.24596   0.16722   0.24872   0.00000  Uiso   1.00
C13    C     0.16631   0.16792   0.11624   0.00000  Uiso   1.00
C14    C     0.13630   0.14026   0.40634   0.00000  Uiso   1.00
C15    C     0.19704   0.19306   0.09366   0.00000  Uiso   1.00
C16    C     0.13528   0.14205   0.45296   0.00000  Uiso   1.00
C17    C     0.19806   0.19127   0.04704   0.00000  Uiso   1.00
C18    C     0.16675   0.16641   0.47655   0.00000  Uiso   1.00
C19    C     0.16659   0.16691   0.02345   0.00000  Uiso   1.00
C20    C     0.19860   0.18985   0.45344   0.00000  Uiso   1.00
C21    C     0.13474   0.14348   0.04656   0.00000  Uiso   1.00
C22    C     0.10360   0.11990   0.47654   0.00000  Uiso   1.00
C23    C     0.10325   0.12073   0.02242   0.00000  Uiso   1.00
C24    C     0.22974   0.21342   0.02346   0.00000  Uiso   1.00
C25    C     0.26486   0.18048   0.37436   0.00000  Uiso   1.00
C26    C     0.06847   0.15289   0.12562   0.00000  Uiso   1.00
C27    C     0.11438   0.06387   0.37991   0.00000  Uiso   1.00
C28    C     0.21897   0.26945   0.12008   0.00000  Uiso   1.00
C29    C     0.04288   0.04986   0.26152   0.00000  Uiso   1.00
C30    C     0.29045   0.28346   0.23843   0.00000  Uiso   1.00
C31    C     0.27802   0.09979   0.16451   0.00000  Uiso   1.00
C32    C     0.05525   0.23360   0.33549   0.00000  Uiso   1.00
C33    C     0.23009   0.21258   0.47758   0.00000  Uiso   1.00
C34    C     0.02009   0.12569   0.23691   0.00000  Uiso   1.00
C35    C     0.31324   0.20765   0.26307   0.00000  Uiso   1.00
C36    C     0.31091   0.12839   0.23176   0.00000  Uiso   1.00
C37    C     0.02242   0.20495   0.26822   0.00000  Uiso   1.00
C38    C     0.29069   0.16835   0.24693   0.00000  Uiso   1.00
Cu39   Cu    0.16667   0.21355   0.25000   0.00000  Uiso   1.00
Cu40   Cu    0.16667   0.11978   0.25000   0.00000  Uiso   1.00
F41    F     0.11928   0.04747   0.19041   0.00000  Uiso   1.00
F42    F     0.21405   0.28587   0.30959   0.00000  Uiso   1.00
F43    F     0.21473   0.04865   0.30898   0.00000  Uiso   1.00
F44    F     0.11860   0.28468   0.19102   0.00000  Uiso   1.00
H45    H     0.07852   0.10169   0.45997   0.00000  Uiso   1.00
H46    H     0.05410   0.16400   0.09373   0.00000  Uiso   1.00
H47    H     0.07897   0.18437   0.14438   0.00000  Uiso   1.00
H48    H     0.04511   0.13399   0.14541   0.00000  Uiso   1.00
H49    H     0.07666   0.12133   0.38819   0.00000  Uiso   1.00
H50    H     0.11249   0.04781   0.41345   0.00000  Uiso   1.00
H51    H     0.14518   0.05754   0.36646   0.00000  Uiso   1.00
H52    H     0.09128   0.04631   0.35813   0.00000  Uiso   1.00
H53    H     0.25668   0.21198   0.11181   0.00000  Uiso   1.00
H54    H     0.22085   0.28550   0.08654   0.00000  Uiso   1.00
H55    H     0.24208   0.28701   0.14185   0.00000  Uiso   1.00
H56    H     0.25483   0.23162   0.04003   0.00000  Uiso   1.00
H57    H     0.18817   0.27579   0.13354   0.00000  Uiso   1.00
H58    H     0.03068   0.06873   0.19600   0.00000  Uiso   1.00
H59    H     0.05999   0.01887   0.25064   0.00000  Uiso   1.00
H60    H     0.01194   0.03802   0.27198   0.00000  Uiso   1.00
H61    H     0.05925   0.06565   0.29036   0.00000  Uiso   1.00
H62    H     0.30266   0.26464   0.30394   0.00000  Uiso   1.00
H63    H     0.32138   0.29531   0.22797   0.00000  Uiso   1.00
H64    H     0.27332   0.31445   0.24928   0.00000  Uiso   1.00
H65    H     0.27409   0.26765   0.20959   0.00000  Uiso   1.00
H66    H     0.29817   0.05777   0.21671   0.00000  Uiso   1.00
H67    H     0.07778   0.10337   0.03847   0.00000  Uiso   1.00
H68    H     0.30621   0.10126   0.14446   0.00000  Uiso   1.00
H69    H     0.26145   0.13323   0.16053   0.00000  Uiso   1.00
H70    H     0.25782   0.07094   0.15200   0.00000  Uiso   1.00
H71    H     0.03520   0.27557   0.28321   0.00000  Uiso   1.00
H72    H     0.02703   0.23244   0.35553   0.00000  Uiso   1.00
H73    H     0.07563   0.26233   0.34793   0.00000  Uiso   1.00
H74    H     0.07160   0.20002   0.33956   0.00000  Uiso   1.00
H75    H     0.25556   0.22995   0.46153   0.00000  Uiso   1.00
H76    H     0.23939   0.24424   0.39206   0.00000  Uiso   1.00
H77    H     0.27922   0.16935   0.40624   0.00000  Uiso   1.00
H78    H     0.28822   0.19940   0.35458   0.00000  Uiso   1.00
H79    H     0.25438   0.14901   0.35558   0.00000  Uiso   1.00
H80    H     0.09393   0.08911   0.10796   0.00000  Uiso   1.00
N81    N     0.16667   0.28402   0.25000   0.00000  Uiso   1.00
N82    N     0.04510   0.24207   0.28933   0.00000  Uiso   1.00
N83    N     0.16667   0.04931   0.25000   0.00000  Uiso   1.00
N84    N     0.23084   0.21091   0.38222   0.00000  Uiso   1.00
N85    N     0.10248   0.12244   0.11778   0.00000  Uiso   1.00
N86    N     0.10662   0.11368   0.38150   0.00000  Uiso   1.00
N87    N     0.22672   0.21964   0.11850   0.00000  Uiso   1.00
N88    N     0.04019   0.08359   0.22554   0.00000  Uiso   1.00
N89    N     0.29315   0.24976   0.27443   0.00000  Uiso   1.00
N90    N     0.28824   0.09126   0.21065   0.00000  Uiso   1.00
O91    O     0.10655   0.20625   0.24999   0.00000  Uiso   1.00
O92    O     0.22679   0.12709   0.25001   0.00000  Uiso   1.00
O93    O     0.22679   0.20625   0.25001   0.00000  Uiso   1.00
O94    O     0.10655   0.12709   0.24999   0.00000  Uiso   1.00
O95    O     0.16666   0.20627   0.18513   0.00000  Uiso   1.00
O96    O     0.16668   0.12707   0.31487   0.00000  Uiso   1.00
O97    O     0.16668   0.20627   0.31487   0.00000  Uiso   1.00
O98    O     0.16666   0.12707   0.18513   0.00000  Uiso   1.00
C99    C     0.42070   0.16611   0.25127   0.00000  Uiso   1.00
C100   C     0.37597   0.16498   0.25305   0.00000  Uiso   1.00
C101   C     0.47635   0.02451   0.22030   0.00000  Uiso   1.00
C102   C     0.52365   0.30883   0.27970   0.00000  Uiso   1.00
C103   C     0.52381   0.02509   0.27956   0.00000  Uiso   1.00
C104   C     0.47619   0.30825   0.22044   0.00000  Uiso   1.00
C105   C     0.50017   0.16696   0.16449   0.00000  Uiso   1.00
C106   C     0.49983   0.16637   0.33551   0.00000  Uiso   1.00
C107   C     0.53185   0.18940   0.40675   0.00000  Uiso   1.00
C108   C     0.46815   0.14393   0.09325   0.00000  Uiso   1.00
C109   C     0.50036   0.16541   0.38376   0.00000  Uiso   1.00
C110   C     0.57929   0.16722   0.24872   0.00000  Uiso   1.00
C111   C     0.49964   0.16792   0.11624   0.00000  Uiso   1.00
C112   C     0.46963   0.14026   0.40634   0.00000  Uiso   1.00
C113   C     0.53037   0.19306   0.09366   0.00000  Uiso   1.00
C114   C     0.46861   0.14205   0.45296   0.00000  Uiso   1.00
C115   C     0.53140   0.19127   0.04704   0.00000  Uiso   1.00
C116   C     0.50008   0.16641   0.47655   0.00000  Uiso   1.00
C117   C     0.49993   0.16691   0.02345   0.00000  Uiso   1.00
C118   C     0.53193   0.18985   0.45344   0.00000  Uiso   1.00
C119   C     0.46807   0.14348   0.04656   0.00000  Uiso   1.00
C120   C     0.43693   0.11990   0.47654   0.00000  Uiso   1.00
C121   C     0.43659   0.12073   0.02242   0.00000  Uiso   1.00
C122   C     0.56308   0.21342   0.02346   0.00000  Uiso   1.00
C123   C     0.59819   0.18048   0.37436   0.00000  Uiso   1.00
C124   C     0.40181   0.15289   0.12562   0.00000  Uiso   1.00
C125   C     0.44771   0.06387   0.37991   0.00000  Uiso   1.00
C126   C     0.55231   0.26945   0.12008   0.00000  Uiso   1.00
C127   C     0.37621   0.04986   0.26152   0.00000  Uiso   1.00
C128   C     0.62378   0.28346   0.23843   0.00000  Uiso   1.00
C129   C     0.61135   0.09979   0.16451   0.00000  Uiso   1.00
C130   C     0.38858   0.23360   0.33549   0.00000  Uiso   1.00
C131   C     0.56342   0.21258   0.47758   0.00000  Uiso   1.00
C132   C     0.35342   0.12569   0.23691   0.00000  Uiso   1.00
C133   C     0.64658   0.20765   0.26307   0.00000  Uiso   1.00
C134   C     0.64425   0.12839   0.23176   0.00000  Uiso   1.00
C135   C     0.35575   0.20495   0.26822   0.00000  Uiso   1.00
C136   C     0.62403   0.16835   0.24693   0.00000  Uiso   1.00
Cu137  Cu    0.50000   0.21355   0.25000   0.00000  Uiso   1.00
Cu138  Cu    0.50000   0.11978   0.25000   0.00000  Uiso   1.00
F139   F     0.45262   0.04747   0.19041   0.00000  Uiso   1.00
F140   F     0.54739   0.28587   0.30959   0.00000  Uiso   1.00
F141   F     0.54806   0.04865   0.30898   0.00000  Uiso   1.00
F142   F     0.45194   0.28468   0.19102   0.00000  Uiso   1.00
H143   H     0.41185   0.10169   0.45997   0.00000  Uiso   1.00
H144   H     0.38744   0.16400   0.09373   0.00000  Uiso   1.00
H145   H     0.41230   0.18437   0.14438   0.00000  Uiso   1.00
H146   H     0.37845   0.13399   0.14541   0.00000  Uiso   1.00
H147   H     0.40999   0.12133   0.38819   0.00000  Uiso   1.00
H148   H     0.44582   0.04781   0.41345   0.00000  Uiso   1.00
H149   H     0.47852   0.05754   0.36646   0.00000  Uiso   1.00
H150   H     0.42461   0.04631   0.35813   0.00000  Uiso   1.00
H151   H     0.59001   0.21198   0.11181   0.00000  Uiso   1.00
H152   H     0.55418   0.28550   0.08654   0.00000  Uiso   1.00
H153   H     0.57541   0.28701   0.14185   0.00000  Uiso   1.00
H154   H     0.58816   0.23162   0.04003   0.00000  Uiso   1.00
H155   H     0.52151   0.27579   0.13354   0.00000  Uiso   1.00
H156   H     0.36402   0.06873   0.19600   0.00000  Uiso   1.00
H157   H     0.39332   0.01887   0.25064   0.00000  Uiso   1.00
H158   H     0.34528   0.03802   0.27198   0.00000  Uiso   1.00
H159   H     0.39258   0.06565   0.29036   0.00000  Uiso   1.00
H160   H     0.63599   0.26464   0.30394   0.00000  Uiso   1.00
H161   H     0.65471   0.29531   0.22797   0.00000  Uiso   1.00
H162   H     0.60666   0.31445   0.24928   0.00000  Uiso   1.00
H163   H     0.60743   0.26765   0.20959   0.00000  Uiso   1.00
H164   H     0.63150   0.05777   0.21671   0.00000  Uiso   1.00
H165   H     0.41112   0.10337   0.03847   0.00000  Uiso   1.00
H166   H     0.63954   0.10126   0.14446   0.00000  Uiso   1.00
H167   H     0.59478   0.13323   0.16053   0.00000  Uiso   1.00
H168   H     0.59115   0.07094   0.15200   0.00000  Uiso   1.00
H169   H     0.36853   0.27557   0.28321   0.00000  Uiso   1.00
H170   H     0.36037   0.23244   0.35553   0.00000  Uiso   1.00
H171   H     0.40896   0.26233   0.34793   0.00000  Uiso   1.00
H172   H     0.40494   0.20002   0.33956   0.00000  Uiso   1.00
H173   H     0.58889   0.22995   0.46153   0.00000  Uiso   1.00
H174   H     0.57272   0.24424   0.39206   0.00000  Uiso   1.00
H175   H     0.61256   0.16935   0.40624   0.00000  Uiso   1.00
H176   H     0.62155   0.19940   0.35458   0.00000  Uiso   1.00
H177   H     0.58771   0.14901   0.35558   0.00000  Uiso   1.00
H178   H     0.42726   0.08911   0.10796   0.00000  Uiso   1.00
N179   N     0.50000   0.28402   0.25000   0.00000  Uiso   1.00
N180   N     0.37843   0.24207   0.28933   0.00000  Uiso   1.00
N181   N     0.50000   0.04931   0.25000   0.00000  Uiso   1.00
N182   N     0.56418   0.21091   0.38222   0.00000  Uiso   1.00
N183   N     0.43582   0.12244   0.11778   0.00000  Uiso   1.00
N184   N     0.43995   0.11368   0.38150   0.00000  Uiso   1.00
N185   N     0.56005   0.21964   0.11850   0.00000  Uiso   1.00
N186   N     0.37352   0.08359   0.22554   0.00000  Uiso   1.00
N187   N     0.62648   0.24976   0.27443   0.00000  Uiso   1.00
N188   N     0.62157   0.09126   0.21065   0.00000  Uiso   1.00
O189   O     0.43988   0.20625   0.24999   0.00000  Uiso   1.00
O190   O     0.56012   0.12709   0.25001   0.00000  Uiso   1.00
O191   O     0.56012   0.20625   0.25001   0.00000  Uiso   1.00
O192   O     0.43988   0.12709   0.24999   0.00000  Uiso   1.00
O193   O     0.49999   0.20627   0.18513   0.00000  Uiso   1.00
O194   O     0.50001   0.12707   0.31487   0.00000  Uiso   1.00
O195   O     0.50001   0.20627   0.31487   0.00000  Uiso   1.00
O196   O     0.49999   0.12707   0.18513   0.00000  Uiso   1.00
C197   C     0.75404   0.16611   0.25127   0.00000  Uiso   1.00
C198   C     0.70930   0.16498   0.25305   0.00000  Uiso   1.00
C199   C     0.80969   0.02451   0.22030   0.00000  Uiso   1.00
C200   C     0.85698   0.30883   0.27970   0.00000  Uiso   1.00
C201   C     0.85714   0.02509   0.27956   0.00000  Uiso   1.00
C202   C     0.80953   0.30825   0.22044   0.00000  Uiso   1.00
C203   C     0.83351   0.16696   0.16449   0.00000  Uiso   1.00
C204   C     0.83316   0.16637   0.33551   0.00000  Uiso   1.00
C205   C     0.86519   0.18940   0.40675   0.00000  Uiso   1.00
C206   C     0.80148   0.14393   0.09325   0.00000  Uiso   1.00
C207   C     0.83369   0.16541   0.38376   0.00000  Uiso   1.00
C208   C     0.91263   0.16722   0.24872   0.00000  Uiso   1.00
C209   C     0.83298   0.16792   0.11624   0.00000  Uiso   1.00
C210   C     0.80297   0.14026   0.40634   0.00000  Uiso   1.00
C211   C     0.86371   0.19306   0.09366   0.00000  Uiso   1.00
C212   C     0.80194   0.14205   0.45296   0.00000  Uiso   1.00
C213   C     0.86473   0.19127   0.04704   0.00000  Uiso   1.00
C214   C     0.83341   0.16641   0.47655   0.00000  Uiso   1.00
C215   C     0.83326   0.16691   0.02345   0.00000  Uiso   1.00
C216   C     0.86527   0.18985   0.45344   0.00000  Uiso   1.00
C217   C     0.80141   0.14348   0.04656   0.00000  Uiso   1.00
C218   C     0.77027   0.11990   0.47654   0.00000  Uiso   1.00
C219   C     0.76992   0.12073   0.02242   0.00000  Uiso   1.00
C220   C     0.89641   0.21342   0.02346   0.00000  Uiso   1.00
C221   C     0.93153   0.18048   0.37436   0.00000  Uiso   1.00
C222   C     0.73514   0.15289   0.12562   0.00000  Uiso   1.00
C223   C     0.78104   0.06387   0.37991   0.00000  Uiso   1.00
C224   C     0.88564   0.26945   0.12008   0.00000  Uiso   1.00
C225   C     0.70954   0.04986   0.26152   0.00000  Uiso   1.00
C226   C     0.95712   0.28346   0.23843   0.00000  Uiso   1.00
C227   C     0.94468   0.09979   0.16451   0.00000  Uiso   1.00
C228   C     0.72191   0.23360   0.33549   0.00000  Uiso   1.00
C229   C     0.89675   0.21258   0.47758   0.00000  Uiso   1.00
C230   C     0.68675   0.12569   0.23691   0.00000  Uiso   1.00
C231   C     0.97991   0.20765   0.26307   0.00000  Uiso   1.00
C232   C     0.97758   0.12839   0.23176   0.00000  Uiso   1.00
C233   C     0.68909   0.20495   0.26822   0.00000  Uiso   1.00
C234   C     0.95736   0.16835   0.24693   0.00000  Uiso   1.00
Cu235  Cu    0.83333   0.21355   0.25000   0.00000  Uiso   1.00
Cu236  Cu    0.83333   0.11978   0.25000   0.00000  Uiso   1.00
F237   F     0.78595   0.04747   0.19041   0.00000  Uiso   1.00
F238   F     0.88072   0.28587   0.30959   0.00000  Uiso   1.00
F239   F     0.88140   0.04865   0.30898   0.00000  Uiso   1.00
F240   F     0.78527   0.28468   0.19102   0.00000  Uiso   1.00
H241   H     0.74519   0.10169   0.45997   0.00000  Uiso   1.00
H242   H     0.72077   0.16400   0.09373   0.00000  Uiso   1.00
H243   H     0.74563   0.18437   0.14438   0.00000  Uiso   1.00
H244   H     0.71178   0.13399   0.14541   0.00000  Uiso   1.00
H245   H     0.74333   0.12133   0.38819   0.00000  Uiso   1.00
H246   H     0.77916   0.04781   0.41345   0.00000  Uiso   1.00
H247   H     0.81185   0.05754   0.36646   0.00000  Uiso   1.00
H248   H     0.75795   0.04631   0.35813   0.00000  Uiso   1.00
H249   H     0.92334   0.21198   0.11181   0.00000  Uiso   1.00
H250   H     0.88752   0.28550   0.08654   0.00000  Uiso   1.00
H251   H     0.90875   0.28701   0.14185   0.00000  Uiso   1.00
H252   H     0.92149   0.23162   0.04003   0.00000  Uiso   1.00
H253   H     0.85484   0.27579   0.13354   0.00000  Uiso   1.00
H254   H     0.69735   0.06873   0.19600   0.00000  Uiso   1.00
H255   H     0.72665   0.01887   0.25064   0.00000  Uiso   1.00
H256   H     0.67861   0.03802   0.27198   0.00000  Uiso   1.00
H257   H     0.72591   0.06565   0.29036   0.00000  Uiso   1.00
H258   H     0.96933   0.26464   0.30394   0.00000  Uiso   1.00
H259   H     0.98805   0.29531   0.22797   0.00000  Uiso   1.00
H260   H     0.93999   0.31445   0.24928   0.00000  Uiso   1.00
H261   H     0.94076   0.26765   0.20959   0.00000  Uiso   1.00
H262   H     0.96484   0.05777   0.21671   0.00000  Uiso   1.00
H263   H     0.74445   0.10337   0.03847   0.00000  Uiso   1.00
H264   H     0.97288   0.10126   0.14446   0.00000  Uiso   1.00
H265   H     0.92811   0.13323   0.16053   0.00000  Uiso   1.00
H266   H     0.92449   0.07094   0.15200   0.00000  Uiso   1.00
H267   H     0.70186   0.27557   0.28321   0.00000  Uiso   1.00
H268   H     0.69370   0.23244   0.35553   0.00000  Uiso   1.00
H269   H     0.74230   0.26233   0.34793   0.00000  Uiso   1.00
H270   H     0.73827   0.20002   0.33956   0.00000  Uiso   1.00
H271   H     0.92222   0.22995   0.46153   0.00000  Uiso   1.00
H272   H     0.90606   0.24424   0.39206   0.00000  Uiso   1.00
H273   H     0.94589   0.16935   0.40624   0.00000  Uiso   1.00
H274   H     0.95489   0.19940   0.35458   0.00000  Uiso   1.00
H275   H     0.92104   0.14901   0.35558   0.00000  Uiso   1.00
H276   H     0.76060   0.08911   0.10796   0.00000  Uiso   1.00
N277   N     0.83333   0.28402   0.25000   0.00000  Uiso   1.00
N278   N     0.71177   0.24207   0.28933   0.00000  Uiso   1.00
N279   N     0.83333   0.04931   0.25000   0.00000  Uiso   1.00
N280   N     0.89751   0.21091   0.38222   0.00000  Uiso   1.00
N281   N     0.76915   0.12244   0.11778   0.00000  Uiso   1.00
N282   N     0.77329   0.11368   0.38150   0.00000  Uiso   1.00
N283   N     0.89339   0.21964   0.11850   0.00000  Uiso   1.00
N284   N     0.70685   0.08359   0.22554   0.00000  Uiso   1.00
N285   N     0.95982   0.24976   0.27443   0.00000  Uiso   1.00
N286   N     0.95490   0.09126   0.21065   0.00000  Uiso   1.00
O287   O     0.77321   0.20625   0.24999   0.00000  Uiso   1.00
O288   O     0.89345   0.12709   0.25001   0.00000  Uiso   1.00
O289   O     0.89345   0.20625   0.25001   0.00000  Uiso   1.00
O290   O     0.77321   0.12709   0.24999   0.00000  Uiso   1.00
O291   O     0.83332   0.20627   0.18513   0.00000  Uiso   1.00
O292   O     0.83334   0.12707   0.31487   0.00000  Uiso   1.00
O293   O     0.83334   0.20627   0.31487   0.00000  Uiso   1.00
O294   O     0.83332   0.12707   0.18513   0.00000  Uiso   1.00
C295   C     0.08737   0.49944   0.25127   0.00000  Uiso   1.00
C296   C     0.04264   0.49832   0.25305   0.00000  Uiso   1.00
C297   C     0.14302   0.35784   0.22030   0.00000  Uiso   1.00
C298   C     0.19031   0.64216   0.27970   0.00000  Uiso   1.00
C299   C     0.19047   0.35842   0.27956   0.00000  Uiso   1.00
C300   C     0.14286   0.64158   0.22044   0.00000  Uiso   1.00
C301   C     0.16684   0.50029   0.16449   0.00000  Uiso   1.00
C302   C     0.16649   0.49971   0.33551   0.00000  Uiso   1.00
C303   C     0.19852   0.52274   0.40675   0.00000  Uiso   1.00
C304   C     0.13481   0.47726   0.09325   0.00000  Uiso   1.00
C305   C     0.16702   0.49874   0.38376   0.00000  Uiso   1.00
C306   C     0.24596   0.50056   0.24872   0.00000  Uiso   1.00
C307   C     0.16631   0.50126   0.11624   0.00000  Uiso   1.00
C308   C     0.13630   0.47360   0.40634   0.00000  Uiso   1.00
C309   C     0.19704   0.52639   0.09366   0.00000  Uiso   1.00
C310   C     0.13528   0.47538   0.45296   0.00000  Uiso   1.00
C311   C     0.19806   0.52460   0.04704   0.00000  Uiso   1.00
C312   C     0.16675   0.49974   0.47655   0.00000  Uiso   1.00
C313   C     0.16659   0.50024   0.02345   0.00000  Uiso   1.00
C314   C     0.19860   0.52318   0.45344   0.00000  Uiso   1.00
C315   C     0.13474   0.47681   0.04656   0.00000  Uiso   1.00
C316   C     0.10360   0.45323   0.47654   0.00000  Uiso   1.00
C317   C     0.10325   0.45407   0.02242   0.00000  Uiso   1.00
C318   C     0.22974   0.54675   0.02346   0.00000  Uiso   1.00
C319   C     0.26486   0.51381   0.37436   0.00000  Uiso   1.00
C320   C     0.06847   0.48623   0.12562   0.00000  Uiso   1.00
C321   C     0.11438   0.39720   0.37991   0.00000  Uiso   1.00
C322   C     0.21897   0.60279   0.12008   0.00000  Uiso   1.00
C323   C     0.04288   0.38319   0.26152   0.00000  Uiso   1.00
C324   C     0.29045   0.61680   0.23843   0.00000  Uiso   1.00
C325   C     0.27802   0.43312   0.16451   0.00000  Uiso   1.00
C326   C     0.05525   0.56693   0.33549   0.00000  Uiso   1.00
C327   C     0.23009   0.54592   0.47758   0.00000  Uiso   1.00
C328   C     0.02009   0.45902   0.23691   0.00000  Uiso   1.00
C329   C     0.31324   0.54098   0.26307   0.00000  Uiso   1.00
C330   C     0.31091   0.46172   0.23176   0.00000  Uiso   1.00
C331   C     0.02242   0.53828   0.26822   0.00000  Uiso   1.00
C332   C     0.29069   0.50169   0.24693   0.00000  Uiso   1.00
Cu333  Cu    0.16667   0.54689   0.25000   0.00000  Uiso   1.00
Cu334  Cu    0.16667   0.45311   0.25000   0.00000  Uiso   1.00
F335   F     0.11928   0.38080   0.19041   0.00000  Uiso   1.00
F336   F     0.21405   0.61920   0.30959   0.00000  Uiso   1.00
F337   F     0.21473   0.38199   0.30898   0.00000  Uiso   1.00
F338   F     0.11860   0.61801   0.19102   0.00000  Uiso   1.00
H339   H     0.07852   0.43502   0.45997   0.00000  Uiso   1.00
H340   H     0.05410   0.49733   0.09373   0.00000  Uiso   1.00
H341   H     0.07897   0.51771   0.14438   0.00000  Uiso   1.00
H342   H     0.04511   0.46733   0.14541   0.00000  Uiso   1.00
H343   H     0.07666   0.45467   0.38819   0.00000  Uiso   1.00
H344   H     0.11249   0.38115   0.41345   0.00000  Uiso   1.00
H345   H     0.14518   0.39087   0.36646   0.00000  Uiso   1.00
H346   H     0.09128   0.37965   0.35813   0.00000  Uiso   1.00
H347   H     0.25668   0.54531   0.11181   0.00000  Uiso   1.00
H348   H     0.22085   0.61883   0.08654   0.00000  Uiso   1.00
H349   H     0.24208   0.62034   0.14185   0.00000  Uiso   1.00
H350   H     0.25483   0.56496   0.04003   0.00000  Uiso   1.00
H351   H     0.18817   0.60913   0.13354   0.00000  Uiso   1.00
H352   H     0.03068   0.40207   0.19600   0.00000  Uiso   1.00
H353   H     0.05999   0.35220   0.25064   0.00000  Uiso   1.00
H354   H     0.01194   0.37135   0.27198   0.00000  Uiso   1.00
H355   H     0.05925   0.39898   0.29036   0.00000  Uiso   1.00
H356   H     0.30266   0.59797   0.30394   0.00000  Uiso   1.00
H357   H     0.32138   0.62865   0.22797   0.00000  Uiso   1.00
H358   H     0.27332   0.64779   0.24928   0.00000  Uiso   1.00
H359   H     0.27409   0.60098   0.20959   0.00000  Uiso   1.00
H360   H     0.29817   0.39110   0.21671   0.00000  Uiso   1.00
H361   H     0.07778   0.43670   0.03847   0.00000  Uiso   1.00
H362   H     0.30621   0.43459   0.14446   0.00000  Uiso   1.00
H363   H     0.26145   0.46656   0.16053   0.00000  Uiso   1.00
H364   H     0.25782   0.40427   0.15200   0.00000  Uiso   1.00
H365   H     0.03520   0.60890   0.28321   0.00000  Uiso   1.00
H366   H     0.02703   0.56577   0.35553   0.00000  Uiso   1.00
H367   H     0.07563   0.59567   0.34793   0.00000  Uiso   1.00
H368   H     0.07160   0.53335   0.33956   0.00000  Uiso   1.00
H369   H     0.25556   0.56328   0.46153   0.00000  Uiso   1.00
H370   H     0.23939   0.57757   0.39206   0.00000  Uiso   1.00
H371   H     0.27922   0.50268   0.40624   0.00000  Uiso   1.00
H372   H     0.28822   0.53273   0.35458   0.00000  Uiso   1.00
H373   H     0.25438   0.48234   0.35558   0.00000  Uiso   1.00
H374   H     0.09393   0.42245   0.10796   0.00000  Uiso   1.00
N375   N     0.16667   0.61736   0.25000   0.00000  Uiso   1.00
N376   N     0.04510   0.57541   0.28933   0.00000  Uiso   1.00
N377   N     0.16667   0.38264   0.25000   0.00000  Uiso   1.00
N378   N     0.23084   0.54424   0.38222   0.00000  Uiso   1.00
N379   N     0.10248   0.45578   0.11778   0.00000  Uiso   1.00
N380   N     0.10662   0.44702   0.38150   0.00000  Uiso   1.00
N381   N     0.22672   0.55297   0.11850   0.00000  Uiso   1.00
N382   N     0.04019   0.41692   0.22554   0.00000  Uiso   1.00
N383   N     0.29315   0.58309   0.27443   0.00000  Uiso   1.00
N384   N     0.28824   0.42460   0.21065   0.00000  Uiso   1.00
O385   O     0.10655   0.53958   0.24999   0.00000  Uiso   1.00
O386   O     0.22679   0.46042   0.25001   0.00000  Uiso   1.00
O387   O     0.22679   0.53958   0.25001   0.00000  Uiso   1.00
O388   O     0.10655   0.46042   0.24999   0.00000  Uiso   1.00
O389   O     0.16666   0.53960   0.18513   0.00000  Uiso   1.00
O390   O     0.16668   0.46040   0.31487   0.00000  Uiso   1.00
O391   O     0.16668   0.53960   0.31487   0.00000  Uiso   1.00
O392   O     0.16666   0.46040   0.18513   0.00000  Uiso   1.00
C393   C     0.42070   0.49944   0.25127   0.00000  Uiso   1.00
C394   C     0.37597   0.49832   0.25305   0.00000  Uiso   1.00
C395   C     0.47635   0.35784   0.22030   0.00000  Uiso   1.00
C396   C     0.52365   0.64216   0.27970   0.00000  Uiso   1.00
C397   C     0.52381   0.35842   0.27956   0.00000  Uiso   1.00
C398   C     0.47619   0.64158   0.22044   0.00000  Uiso   1.00
C399   C     0.50017   0.50029   0.16449   0.00000  Uiso   1.00
C400   C     0.49983   0.49971   0.33551   0.00000  Uiso   1.00
C401   C     0.53185   0.52274   0.40675   0.00000  Uiso   1.00
C402   C     0.46815   0.47726   0.09325   0.00000  Uiso   1.00
C403   C     0.50036   0.49874   0.38376   0.00000  Uiso   1.00
C404   C     0.57929   0.50056   0.24872   0.00000  Uiso   1.00
C405   C     0.49964   0.50126   0.11624   0.00000  Uiso   1.00
C406   C     0.46963   0.47360   0.40634   0.00000  Uiso   1.00
C407   C     0.53037   0.52639   0.09366   0.00000  Uiso   1.00
C408   C     0.46861   0.47538   0.45296   0.00000  Uiso   1.00
C409   C     0.53140   0.52460   0.04704   0.00000  Uiso   1.00
C410   C     0.50008   0.49974   0.47655   0.00000  Uiso   1.00
C411   C     0.49993   0.50024   0.02345   0.00000  Uiso   1.00
C412   C     0.53193   0.52318   0.45344   0.00000  Uiso   1.00
C413   C     0.46807   0.47681   0.04656   0.00000  Uiso   1.00
C414   C     0.43693   0.45323   0.47654   0.00000  Uiso   1.00
C415   C     0.43659   0.45407   0.02242   0.00000  Uiso   1.00
C416   C     0.56308   0.54675   0.02346   0.00000  Uiso   1.00
C417   C     0.59819   0.51381   0.37436   0.00000  Uiso   1.00
C418   C     0.40181   0.48623   0.12562   0.00000  Uiso   1.00
C419   C     0.44771   0.39720   0.37991   0.00000  Uiso   1.00
C420   C     0.55231   0.60279   0.12008   0.00000  Uiso   1.00
C421   C     0.37621   0.38319   0.26152   0.00000  Uiso   1.00
C422   C     0.62378   0.61680   0.23843   0.00000  Uiso   1.00
C423   C     0.61135   0.43312   0.16451   0.00000  Uiso   1.00
C424   C     0.38858   0.56693   0.33549   0.00000  Uiso   1.00
C425   C     0.56342   0.54592   0.47758   0.00000  Uiso   1.00
C426   C     0.35342   0.45902   0.23691   0.00000  Uiso   1.00
C427   C     0.64658   0.54098   0.26307   0.00000  Uiso   1.00
C428   C     0.64425   0.46172   0.23176   0.00000  Uiso   1.00
C429   C     0.35575   0.53828   0.26822   0.00000  Uiso   1.00
C430   C     0.62403   0.50169   0.24693   0.00000  Uiso   1.00
Cu431  Cu    0.50000   0.54689   0.25000   0.00000  Uiso   1.00
Cu432  Cu    0.50000   0.45311   0.25000   0.00000  Uiso   1.00
F433   F     0.45262   0.38080   0.19041   0.00000  Uiso   1.00
F434   F     0.54739   0.61920   0.30959   0.00000  Uiso   1.00
F435   F     0.54806   0.38199   0.30898   0.00000  Uiso   1.00
F436   F     0.45194   0.61801   0.19102   0.00000  Uiso   1.00
H437   H     0.41185   0.43502   0.45997   0.00000  Uiso   1.00
H438   H     0.38744   0.49733   0.09373   0.00000  Uiso   1.00
H439   H     0.41230   0.51771   0.14438   0.00000  Uiso   1.00
H440   H     0.37845   0.46733   0.14541   0.00000  Uiso   1.00
H441   H     0.40999   0.45467   0.38819   0.00000  Uiso   1.00
H442   H     0.44582   0.38115   0.41345   0.00000  Uiso   1.00
H443   H     0.47852   0.39087   0.36646   0.00000  Uiso   1.00
H444   H     0.42461   0.37965   0.35813   0.00000  Uiso   1.00
H445   H     0.59001   0.54531   0.11181   0.00000  Uiso   1.00
H446   H     0.55418   0.61883   0.08654   0.00000  Uiso   1.00
H447   H     0.57541   0.62034   0.14185   0.00000  Uiso   1.00
H448   H     0.58816   0.56496   0.04003   0.00000  Uiso   1.00
H449   H     0.52151   0.60913   0.13354   0.00000  Uiso   1.00
H450   H     0.36402   0.40207   0.19600   0.00000  Uiso   1.00
H451   H     0.39332   0.35220   0.25064   0.00000  Uiso   1.00
H452   H     0.34528   0.37135   0.27198   0.00000  Uiso   1.00
H453   H     0.39258   0.39898   0.29036   0.00000  Uiso   1.00
H454   H     0.63599   0.59797   0.30394   0.00000  Uiso   1.00
H455   H     0.65471   0.62865   0.22797   0.00000  Uiso   1.00
H456   H     0.60666   0.64779   0.24928   0.00000  Uiso   1.00
H457   H     0.60743   0.60098   0.20959   0.00000  Uiso   1.00
H458   H     0.63150   0.39110   0.21671   0.00000  Uiso   1.00
H459   H     0.41112   0.43670   0.03847   0.00000  Uiso   1.00
H460   H     0.63954   0.43459   0.14446   0.00000  Uiso   1.00
H461   H     0.59478   0.46656   0.16053   0.00000  Uiso   1.00
H462   H     0.59115   0.40427   0.15200   0.00000  Uiso   1.00
H463   H     0.36853   0.60890   0.28321   0.00000  Uiso   1.00
H464   H     0.36037   0.56577   0.35553   0.00000  Uiso   1.00
H465   H     0.40896   0.59567   0.34793   0.00000  Uiso   1.00
H466   H     0.40494   0.53335   0.33956   0.00000  Uiso   1.00
H467   H     0.58889   0.56328   0.46153   0.00000  Uiso   1.00
H468   H     0.57272   0.57757   0.39206   0.00000  Uiso   1.00
H469   H     0.61256   0.50268   0.40624   0.00000  Uiso   1.00
H470   H     0.62155   0.53273   0.35458   0.00000  Uiso   1.00
H471   H     0.58771   0.48234   0.35558   0.00000  Uiso   1.00
H472   H     0.42726   0.42245   0.10796   0.00000  Uiso   1.00
N473   N     0.50000   0.61736   0.25000   0.00000  Uiso   1.00
N474   N     0.37843   0.57541   0.28933   0.00000  Uiso   1.00
N475   N     0.50000   0.38264   0.25000   0.00000  Uiso   1.00
N476   N     0.56418   0.54424   0.38222   0.00000  Uiso   1.00
N477   N     0.43582   0.45578   0.11778   0.00000  Uiso   1.00
N478   N     0.43995   0.44702   0.38150   0.00000  Uiso   1.00
N479   N     0.56005   0.55297   0.11850   0.00000  Uiso   1.00
N480   N     0.37352   0.41692   0.22554   0.00000  Uiso   1.00
N481   N     0.62648   0.58309   0.27443   0.00000  Uiso   1.00
N482   N     0.62157   0.42460   0.21065   0.00000  Uiso   1.00
O483   O     0.43988   0.53958   0.24999   0.00000  Uiso   1.00
O484   O     0.56012   0.46042   0.25001   0.00000  Uiso   1.00
O485   O     0.56012   0.53958   0.25001   0.00000  Uiso   1.00
O486   O     0.43988   0.46042   0.24999   0.00000  Uiso   1.00
O487   O     0.49999   0.53960   0.18513   0.00000  Uiso   1.00
O488   O     0.50001   0.46040   0.31487   0.00000  Uiso   1.00
O489   O     0.50001   0.53960   0.31487   0.00000  Uiso   1.00
O490   O     0.49999   0.46040   0.18513   0.00000  Uiso   1.00
C491   C     0.75404   0.49944   0.25127   0.00000  Uiso   1.00
C492   C     0.70930   0.49832   0.25305   0.00000  Uiso   1.00
C493   C     0.80969   0.35784   0.22030   0.00000  Uiso   1.00
C494   C     0.85698   0.64216   0.27970   0.00000  Uiso   1.00
C495   C     0.85714   0.35842   0.27956   0.00000  Uiso   1.00
C496   C     0.80953   0.64158   0.22044   0.00000  Uiso   1.00
C497   C     0.83351   0.50029   0.16449   0.00000  Uiso   1.00
C498   C     0.83316   0.49971   0.33551   0.00000  Uiso   1.00
C499   C     0.86519   0.52274   0.40675   0.00000  Uiso   1.00
C500   C     0.80148   0.47726   0.09325   0.00000  Uiso   1.00
C501   C     0.83369   0.49874   0.38376   0.00000  Uiso   1.00
C502   C     0.91263   0.50056   0.24872   0.00000  Uiso   1.00
C503   C     0.83298   0.50126   0.11624   0.00000  Uiso   1.00
C504   C     0.80297   0.47360   0.40634   0.00000  Uiso   1.00
C505   C     0.86371   0.52639   0.09366   0.00000  Uiso   1.00
C506   C     0.80194   0.47538   0.45296   0.00000  Uiso   1.00
C507   C     0.86473   0.52460   0.04704   0.00000  Uiso   1.00
C508   C     0.83341   0.49974   0.47655   0.00000  Uiso   1.00
C509   C     0.83326   0.50024   0.02345   0.00000  Uiso   1.00
C510   C     0.86527   0.52318   0.45344   0.00000  Uiso   1.00
C511   C     0.80141   0.47681   0.04656   0.00000  Uiso   1.00
C512   C     0.77027   0.45323   0.47654   0.00000  Uiso   1.00
C513   C     0.76992   0.45407   0.02242   0.00000  Uiso   1.00
C514   C     0.89641   0.54675   0.02346   0.00000  Uiso   1.00
C515   C     0.93153   0.51381   0.37436   0.00000  Uiso   1.00
C516   C     0.73514   0.48623   0.12562   0.00000  Uiso   1.00
C517   C     0.78104   0.39720   0.37991   0.00000  Uiso   1.00
C518   C     0.88564   0.60279   0.12008   0.00000  Uiso   1.00
C519   C     0.70954   0.38319   0.26152   0.00000  Uiso   1.00
C520   C     0.95712   0.61680   0.23843   0.00000  Uiso   1.00
C521   C     0.94468   0.43312   0.16451   0.00000  Uiso   1.00
C522   C     0.72191   0.56693   0.33549   0.00000  Uiso   1.00
C523   C     0.89675   0.54592   0.47758   0.00000  Uiso   1.00
C524   C     0.68675   0.45902   0.23691   0.00000  Uiso   1.00
C525   C     0.97991   0.54098   0.26307   0.00000  Uiso   1.00
C526   C     0.97758   0.46172   0.23176   0.00000  Uiso   1.00
C527   C     0.68909   0.53828   0.26822   0.00000  Uiso   1.00
C528   C     0.95736   0.50169   0.24693   0.00000  Uiso   1.00
Cu529  Cu    0.83333   0.54689   0.25000   0.00000  Uiso   1.00
Cu530  Cu    0.83333   0.45311   0.25000   0.00000  Uiso   1.00
F531   F     0.78595   0.38080   0.19041   0.00000  Uiso   1.00
F532   F     0.88072   0.61920   0.30959   0.00000  Uiso   1.00
F533   F     0.88140   0.38199   0.30898   0.00000  Uiso   1.00
F534   F     0.78527   0.61801   0.19102   0.00000  Uiso   1.00
H535   H     0.74519   0.43502   0.45997   0.00000  Uiso   1.00
H536   H     0.72077   0.49733   0.09373   0.00000  Uiso   1.00
H537   H     0.74563   0.51771   0.14438   0.00000  Uiso   1.00
H538   H     0.71178   0.46733   0.14541   0.00000  Uiso   1.00
H539   H     0.74333   0.45467   0.38819   0.00000  Uiso   1.00
H540   H     0.77916   0.38115   0.41345   0.00000  Uiso   1.00
H541   H     0.81185   0.39087   0.36646   0.00000  Uiso   1.00
H542   H     0.75795   0.37965   0.35813   0.00000  Uiso   1.00
H543   H     0.92334   0.54531   0.11181   0.00000  Uiso   1.00
H544   H     0.88752   0.61883   0.08654   0.00000  Uiso   1.00
H545   H     0.90875   0.62034   0.14185   0.00000  Uiso   1.00
H546   H     0.92149   0.56496   0.04003   0.00000  Uiso   1.00
H547   H     0.85484   0.60913   0.13354   0.00000  Uiso   1.00
H548   H     0.69735   0.40207   0.19600   0.00000  Uiso   1.00
H549   H     0.72665   0.35220   0.25064   0.00000  Uiso   1.00
H550   H     0.67861   0.37135   0.27198   0.00000  Uiso   1.00
H551   H     0.72591   0.39898   0.29036   0.00000  Uiso   1.00
H552   H     0.96933   0.59797   0.30394   0.00000  Uiso   1.00
H553   H     0.98805   0.62865   0.22797   0.00000  Uiso   1.00
H554   H     0.93999   0.64779   0.24928   0.00000  Uiso   1.00
H555   H     0.94076   0.60098   0.20959   0.00000  Uiso   1.00
H556   H     0.96484   0.39110   0.21671   0.00000  Uiso   1.00
H557   H     0.74445   0.43670   0.03847   0.00000  Uiso   1.00
H558   H     0.97288   0.43459   0.14446   0.00000  Uiso   1.00
H559   H     0.92811   0.46656   0.16053   0.00000  Uiso   1.00
H560   H     0.92449   0.40427   0.15200   0.00000  Uiso   1.00
H561   H     0.70186   0.60890   0.28321   0.00000  Uiso   1.00
H562   H     0.69370   0.56577   0.35553   0.00000  Uiso   1.00
H563   H     0.74230   0.59567   0.34793   0.00000  Uiso   1.00
H564   H     0.73827   0.53335   0.33956   0.00000  Uiso   1.00
H565   H     0.92222   0.56328   0.46153   0.00000  Uiso   1.00
H566   H     0.90606   0.57757   0.39206   0.00000  Uiso   1.00
H567   H     0.94589   0.50268   0.40624   0.00000  Uiso   1.00
H568   H     0.95489   0.53273   0.35458   0.00000  Uiso   1.00
H569   H     0.92104   0.48234   0.35558   0.00000  Uiso   1.00
H570   H     0.76060   0.42245   0.10796   0.00000  Uiso   1.00
N571   N     0.83333   0.61736   0.25000   0.00000  Uiso   1.00
N572   N     0.71177   0.57541   0.28933   0.00000  Uiso   1.00
N573   N     0.83333   0.38264   0.25000   0.00000  Uiso   1.00
N574   N     0.89751   0.54424   0.38222   0.00000  Uiso   1.00
N575   N     0.76915   0.45578   0.11778   0.00000  Uiso   1.00
N576   N     0.77329   0.44702   0.38150   0.00000  Uiso   1.00
N577   N     0.89339   0.55297   0.11850   0.00000  Uiso   1.00
N578   N     0.70685   0.41692   0.22554   0.00000  Uiso   1.00
N579   N     0.95982   0.58309   0.27443   0.00000  Uiso   1.00
N580   N     0.95490   0.42460   0.21065   0.00000  Uiso   1.00
O581   O     0.77321   0.53958   0.24999   0.00000  Uiso   1.00
O582   O     0.89345   0.46042   0.25001   0.00000  Uiso   1.00
O583   O     0.89345   0.53958   0.25001   0.00000  Uiso   1.00
O584   O     0.77321   0.46042   0.24999   0.00000  Uiso   1.00
O585   O     0.83332   0.53960   0.18513   0.00000  Uiso   1.00
O586   O     0.83334   0.46040   0.31487   0.00000  Uiso   1.00
O587   O     0.83334   0.53960   0.31487   0.00000  Uiso   1.00
O588   O     0.83332   0.46040   0.18513   0.00000  Uiso   1.00
C589   C     0.08737   0.83278   0.25127   0.00000  Uiso   1.00
C590   C     0.04264   0.83165   0.25305   0.00000  Uiso   1.00
C591   C     0.14302   0.69117   0.22030   0.00000  Uiso   1.00
C592   C     0.19031   0.97549   0.27970   0.00000  Uiso   1.00
C593   C     0.19047   0.69175   0.27956   0.00000  Uiso   1.00
C594   C     0.14286   0.97491   0.22044   0.00000  Uiso   1.00
C595   C     0.16684   0.83363   0.16449   0.00000  Uiso   1.00
C596   C     0.16649   0.83304   0.33551   0.00000  Uiso   1.00
C597   C     0.19852   0.85607   0.40675   0.00000  Uiso   1.00
C598   C     0.13481   0.81060   0.09325   0.00000  Uiso   1.00
C599   C     0.16702   0.83207   0.38376   0.00000  Uiso   1.00
C600   C     0.24596   0.83389   0.24872   0.00000  Uiso   1.00
C601   C     0.16631   0.83459   0.11624   0.00000  Uiso   1.00
C602   C     0.13630   0.80693   0.40634   0.00000  Uiso   1.00
C603   C     0.19704   0.85973   0.09366   0.00000  Uiso   1.00
C604   C     0.13528   0.80872   0.45296   0.00000  Uiso   1.00
C605   C     0.19806   0.85794   0.04704   0.00000  Uiso   1.00
C606   C     0.16675   0.83308   0.47655   0.00000  Uiso   1.00
C607   C     0.16659   0.83358   0.02345   0.00000  Uiso   1.00
C608   C     0.19860   0.85651   0.45344   0.00000  Uiso   1.00
C609   C     0.13474   0.81014   0.04656   0.00000  Uiso   1.00
C610   C     0.10360   0.78656   0.47654   0.00000  Uiso   1.00
C611   C     0.10325   0.78740   0.02242   0.00000  Uiso   1.00
C612   C     0.22974   0.88008   0.02346   0.00000  Uiso   1.00
C613   C     0.26486   0.84714   0.37436   0.00000  Uiso   1.00
C614   C     0.06847   0.81956   0.12562   0.00000  Uiso   1.00
C615   C     0.11438   0.73053   0.37991   0.00000  Uiso   1.00
C616   C     0.21897   0.93612   0.12008   0.00000  Uiso   1.00
C617   C     0.04288   0.71653   0.26152   0.00000  Uiso   1.00
C618   C     0.29045   0.95013   0.23843   0.00000  Uiso   1.00
C619   C     0.27802   0.76646   0.16451   0.00000  Uiso   1.00
C620   C     0.05525   0.90027   0.33549   0.00000  Uiso   1.00
C621   C     0.23009   0.87925   0.47758   0.00000  Uiso   1.00
C622   C     0.02009   0.79236   0.23691   0.00000  Uiso   1.00
C623   C     0.31324   0.87431   0.26307   0.00000  Uiso   1.00
C624   C     0.31091   0.79506   0.23176   0.00000  Uiso   1.00
C625   C     0.02242   0.87161   0.26822   0.00000  Uiso   1.00
C626   C     0.29069   0.83502   0.24693   0.00000  Uiso   1.00
Cu627  Cu    0.16667   0.88022   0.25000   0.00000  Uiso   1.00
Cu628  Cu    0.16667   0.78645   0.25000   0.00000  Uiso   1.00
F629   F     0.11928   0.71413   0.19041   0.00000  Uiso   1.00
F630   F     0.21405   0.95253   0.30959   0.00000  Uiso   1.00
F631   F     0.21473   0.71532   0.30898   0.00000  Uiso   1.00
F632   F     0.11860   0.95135   0.19102   0.00000  Uiso   1.00
H633   H     0.07852   0.76836   0.45997   0.00000  Uiso   1.00
H634   H     0.05410   0.83066   0.09373   0.00000  Uiso   1.00
H635   H     0.07897   0.85104   0.14438   0.00000  Uiso   1.00
H636   H     0.04511   0.80066   0.14541   0.00000  Uiso   1.00
H637   H     0.07666   0.78800   0.38819   0.00000  Uiso   1.00
H638   H     0.11249   0.71448   0.41345   0.00000  Uiso   1.00
H639   H     0.14518   0.72420   0.36646   0.00000  Uiso   1.00
H640   H     0.09128   0.71298   0.35813   0.00000  Uiso   1.00
H641   H     0.25668   0.87865   0.11181   0.00000  Uiso   1.00
H642   H     0.22085   0.95217   0.08654   0.00000  Uiso   1.00
H643   H     0.24208   0.95368   0.14185   0.00000  Uiso   1.00
H644   H     0.25483   0.89829   0.04003   0.00000  Uiso   1.00
H645   H     0.18817   0.94246   0.13354   0.00000  Uiso   1.00
H646   H     0.03068   0.73540   0.19600   0.00000  Uiso   1.00
H647   H     0.05999   0.68553   0.25064   0.00000  Uiso   1.00
H648   H     0.01194   0.70469   0.27198   0.00000  Uiso   1.00
H649   H     0.05925   0.73231   0.29036   0.00000  Uiso   1.00
H650   H     0.30266   0.93130   0.30394   0.00000  Uiso   1.00
H651   H     0.32138   0.96198   0.22797   0.00000  Uiso   1.00
H652   H     0.27332   0.98112   0.24928   0.00000  Uiso   1.00
H653   H     0.27409   0.93432   0.20959   0.00000  Uiso   1.00
H654   H     0.29817   0.72444   0.21671   0.00000  Uiso   1.00
H655   H     0.07778   0.77003   0.03847   0.00000  Uiso   1.00
H656   H     0.30621   0.76793   0.14446   0.00000  Uiso   1.00
H657   H     0.26145   0.79990   0.16053   0.00000  Uiso   1.00
H658   H     0.25782   0.73761   0.15200   0.00000  Uiso   1.00
H659   H     0.03520   0.94223   0.28321   0.00000  Uiso   1.00
H660   H     0.02703   0.89911   0.35553   0.00000  Uiso   1.00
H661   H     0.07563   0.92900   0.34793   0.00000  Uiso   1.00
H662   H     0.07160   0.86669   0.33956   0.00000  Uiso   1.00
H663   H     0.25556   0.89662   0.46153   0.00000  Uiso   1.00
H664   H     0.23939   0.91091   0.39206   0.00000  Uiso   1.00
H665   H     0.27922   0.83602   0.40624   0.00000  Uiso   1.00
H666   H     0.28822   0.86606   0.35458   0.00000  Uiso   1.00
H667   H     0.25438   0.81567   0.35558   0.00000  Uiso   1.00
H668   H     0.09393   0.75578   0.10796   0.00000  Uiso   1.00
N669   N     0.16667   0.95069   0.25000   0.00000  Uiso   1.00
N670   N     0.04510   0.90874   0.28933   0.00000  Uiso   1.00
N671   N     0.16667   0.71598   0.25000   0.00000  Uiso   1.00
N672   N     0.23084   0.87758   0.38222   0.00000  Uiso   1.00
N673   N     0.10248   0.78911   0.11778   0.00000  Uiso   1.00
N674   N     0.10662   0.78035   0.38150   0.00000  Uiso   1.00
N675   N     0.22672   0.88630   0.11850   0.00000  Uiso   1.00
N676   N     0.04019   0.75025   0.22554   0.00000  Uiso   1.00
N677   N     0.29315   0.91643   0.27443   0.00000  Uiso   1.00
N678   N     0.28824   0.75793   0.21065   0.00000  Uiso   1.00
O679   O     0.10655   0.87291   0.24999   0.00000  Uiso   1.00
O680   O     0.22679   0.79375   0.25001   0.00000  Uiso   1.00
O681   O     0.22679   0.87291   0.25001   0.00000  Uiso   1.00
O682   O     0.10655   0.79375   0.24999   0.00000  Uiso   1.00
O683   O     0.16666   0.87293   0.18513   0.00000  Uiso   1.00
O684   O     0.16668   0.79373   0.31487   0.00000  Uiso   1.00
O685   O     0.16668   0.87293   0.31487   0.00000  Uiso   1.00
O686   O     0.16666   0.79373   0.18513   0.00000  Uiso   1.00
C687   C     0.42070   0.83278   0.25127   0.00000  Uiso   1.00
C688   C     0.37597   0.83165   0.25305   0.00000  Uiso   1.00
C689   C     0.47635   0.69117   0.22030   0.00000  Uiso   1.00
C690   C     0.52365   0.97549   0.27970   0.00000  Uiso   1.00
C691   C     0.52381   0.69175   0.27956   0.00000  Uiso   1.00
C692   C     0.47619   0.97491   0.22044   0.00000  Uiso   1.00
C693   C     0.50017   0.83363   0.16449   0.00000  Uiso   1.00
C694   C     0.49983   0.83304   0.33551   0.00000  Uiso   1.00
C695   C     0.53185   0.85607   0.40675   0.00000  Uiso   1.00
C696   C     0.46815   0.81060   0.09325   0.00000  Uiso   1.00
C697   C     0.50036   0.83207   0.38376   0.00000  Uiso   1.00
C698   C     0.57929   0.83389   0.24872   0.00000  Uiso   1.00
C699   C     0.49964   0.83459   0.11624   0.00000  Uiso   1.00
C700   C     0.46963   0.80693   0.40634   0.00000  Uiso   1.00
C701   C     0.53037   0.85973   0.09366   0.00000  Uiso   1.00
C702   C     0.46861   0.80872   0.45296   0.00000  Uiso   1.00
C703   C     0.53140   0.85794   0.04704   0.00000  Uiso   1.00
C704   C     0.50008   0.83308   0.47655   0.00000  Uiso   1.00
C705   C     0.49993   0.83358   0.02345   0.00000  Uiso   1.00
C706   C     0.53193   0.85651   0.45344   0.00000  Uiso   1.00
C707   C     0.46807   0.81014   0.04656   0.00000  Uiso   1.00
C708   C     0.43693   0.78656   0.47654   0.00000  Uiso   1.00
C709   C     0.43659   0.78740   0.02242   0.00000  Uiso   1.00
C710   C     0.56308   0.88008   0.02346   0.00000  Uiso   1.00
C711   C     0.59819   0.84714   0.37436   0.00000  Uiso   1.00
C712   C     0.40181   0.81956   0.12562   0.00000  Uiso   1.00
C713   C     0.44771   0.73053   0.37991   0.00000  Uiso   1.00
C714   C     0.55231   0.93612   0.12008   0.00000  Uiso   1.00
C715   C     0.37621   0.71653   0.26152   0.00000  Uiso   1.00
C716   C     0.62378   0.95013   0.23843   0.00000  Uiso   1.00
C717   C     0.61135   0.76646   0.16451   0.00000  Uiso   1.00
C718   C     0.38858   0.90027   0.33549   0.00000  Uiso   1.00
C719   C     0.56342   0.87925   0.47758   0.00000  Uiso   1.00
C720   C     0.35342   0.79236   0.23691   0.00000  Uiso   1.00
C721   C     0.64658   0.87431   0.26307   0.00000  Uiso   1.00
C722   C     0.64425   0.79506   0.23176   0.00000  Uiso   1.00
C723   C     0.35575   0.87161   0.26822   0.00000  Uiso   1.00
C724   C     0.62403   0.83502   0.24693   0.00000  Uiso   1.00
Cu725  Cu    0.50000   0.88022   0.25000   0.00000  Uiso   1.00
Cu726  Cu    0.50000   0.78645   0.25000   0.00000  Uiso   1.00
F727   F     0.45262   0.71413   0.19041   0.00000  Uiso   1.00
F728   F     0.54739   0.95253   0.30959   0.00000  Uiso   1.00
F729   F     0.54806   0.71532   0.30898   0.00000  Uiso   1.00
F730   F     0.45194   0.95135   0.19102   0.00000  Uiso   1.00
H731   H     0.41185   0.76836   0.45997   0.00000  Uiso   1.00
H732   H     0.38744   0.83066   0.09373   0.00000  Uiso   1.00
H733   H     0.41230   0.85104   0.14438   0.00000  Uiso   1.00
H734   H     0.37845   0.80066   0.14541   0.00000  Uiso   1.00
H735   H     0.40999   0.78800   0.38819   0.00000  Uiso   1.00
H736   H     0.44582   0.71448   0.41345   0.00000  Uiso   1.00
H737   H     0.47852   0.72420   0.36646   0.00000  Uiso   1.00
H738   H     0.42461   0.71298   0.35813   0.00000  Uiso   1.00
H739   H     0.59001   0.87865   0.11181   0.00000  Uiso   1.00
H740   H     0.55418   0.95217   0.08654   0.00000  Uiso   1.00
H741   H     0.57541   0.95368   0.14185   0.00000  Uiso   1.00
H742   H     0.58816   0.89829   0.04003   0.00000  Uiso   1.00
H743   H     0.52151   0.94246   0.13354   0.00000  Uiso   1.00
H744   H     0.36402   0.73540   0.19600   0.00000  Uiso   1.00
H745   H     0.39332   0.68553   0.25064   0.00000  Uiso   1.00
H746   H     0.34528   0.70469   0.27198   0.00000  Uiso   1.00
H747   H     0.39258   0.73231   0.29036   0.00000  Uiso   1.00
H748   H     0.63599   0.93130   0.30394   0.00000  Uiso   1.00
H749   H     0.65471   0.96198   0.22797   0.00000  Uiso   1.00
H750   H     0.60666   0.98112   0.24928   0.00000  Uiso   1.00
H751   H     0.60743   0.93432   0.20959   0.00000  Uiso   1.00
H752   H     0.63150   0.72444   0.21671   0.00000  Uiso   1.00
H753   H     0.41112   0.77003   0.03847   0.00000  Uiso   1.00
H754   H     0.63954   0.76793   0.14446   0.00000  Uiso   1.00
H755   H     0.59478   0.79990   0.16053   0.00000  Uiso   1.00
H756   H     0.59115   0.73761   0.15200   0.00000  Uiso   1.00
H757   H     0.36853   0.94223   0.28321   0.00000  Uiso   1.00
H758   H     0.36037   0.89911   0.35553   0.00000  Uiso   1.00
H759   H     0.40896   0.92900   0.34793   0.00000  Uiso   1.00
H760   H     0.40494   0.86669   0.33956   0.00000  Uiso   1.00
H761   H     0.58889   0.89662   0.46153   0.00000  Uiso   1.00
H762   H     0.57272   0.91091   0.39206   0.00000  Uiso   1.00
H763   H     0.61256   0.83602   0.40624   0.00000  Uiso   1.00
H764   H     0.62155   0.86606   0.35458   0.00000  Uiso   1.00
H765   H     0.58771   0.81567   0.35558   0.00000  Uiso   1.00
H766   H     0.42726   0.75578   0.10796   0.00000  Uiso   1.00
N767   N     0.50000   0.95069   0.25000   0.00000  Uiso   1.00
N768   N     0.37843   0.90874   0.28933   0.00000  Uiso   1.00
N769   N     0.50000   0.71598   0.25000   0.00000  Uiso   1.00
N770   N     0.56418   0.87758   0.38222   0.00000  Uiso   1.00
N771   N     0.43582   0.78911   0.11778   0.00000  Uiso   1.00
N772   N     0.43995   0.78035   0.38150   0.00000  Uiso   1.00
N773   N     0.56005   0.88630   0.11850   0.00000  Uiso   1.00
N774   N     0.37352   0.75025   0.22554   0.00000  Uiso   1.00
N775   N     0.62648   0.91643   0.27443   0.00000  Uiso   1.00
N776   N     0.62157   0.75793   0.21065   0.00000  Uiso   1.00
O777   O     0.43988   0.87291   0.24999   0.00000  Uiso   1.00
O778   O     0.56012   0.79375   0.25001   0.00000  Uiso   1.00
O779   O     0.56012   0.87291   0.25001   0.00000  Uiso   1.00
O780   O     0.43988   0.79375   0.24999   0.00000  Uiso   1.00
O781   O     0.49999   0.87293   0.18513   0.00000  Uiso   1.00
O782   O     0.50001   0.79373   0.31487   0.00000  Uiso   1.00
O783   O     0.50001   0.87293   0.31487   0.00000  Uiso   1.00
O784   O     0.49999   0.79373   0.18513   0.00000  Uiso   1.00
C785   C     0.75404   0.83278   0.25127   0.00000  Uiso   1.00
C786   C     0.70930   0.83165   0.25305   0.00000  Uiso   1.00
C787   C     0.80969   0.69117   0.22030   0.00000  Uiso   1.00
C788   C     0.85698   0.97549   0.27970   0.00000  Uiso   1.00
C789   C     0.85714   0.69175   0.27956   0.00000  Uiso   1.00
C790   C     0.80953   0.97491   0.22044   0.00000  Uiso   1.00
C791   C     0.83351   0.83363   0.16449   0.00000  Uiso   1.00
C792   C     0.83316   0.83304   0.33551   0.00000  Uiso   1.00
C793   C     0.86519   0.85607   0.40675   0.00000  Uiso   1.00
C794   C     0.80148   0.81060   0.09325   0.00000  Uiso   1.00
C795   C     0.83369   0.83207   0.38376   0.00000  Uiso   1.00
C796   C     0.91263   0.83389   0.24872   0.00000  Uiso   1.00
C797   C     0.83298   0.83459   0.11624   0.00000  Uiso   1.00
C798   C     0.80297   0.80693   0.40634   0.00000  Uiso   1.00
C799   C     0.86371   0.85973   0.09366   0.00000  Uiso   1.00
C800   C     0.80194   0.80872   0.45296   0.00000  Uiso   1.00
C801   C     0.86473   0.85794   0.04704   0.00000  Uiso   1.00
C802   C     0.83341   0.83308   0.47655   0.00000  Uiso   1.00
C803   C     0.83326   0.83358   0.02345   0.00000  Uiso   1.00
C804   C     0.86527   0.85651   0.45344   0.00000  Uiso   1.00
C805   C     0.80141   0.81014   0.04656   0.00000  Uiso   1.00
C806   C     0.77027   0.78656   0.47654   0.00000  Uiso   1.00
C807   C     0.76992   0.78740   0.02242   0.00000  Uiso   1.00
C808   C     0.89641   0.88008   0.02346   0.00000  Uiso   1.00
C809   C     0.93153   0.84714   0.37436   0.00000  Uiso   1.00
C810   C     0.73514   0.81956   0.12562   0.00000  Uiso   1.00
C811   C     0.78104   0.73053   0.37991   0.00000  Uiso   1.00
C812   C     0.88564   0.93612   0.12008   0.00000  Uiso   1.00
C813   C     0.70954   0.71653   0.26152   0.00000  Uiso   1.00
C814   C     0.95712   0.95013   0.23843   0.00000  Uiso   1.00
C815   C     0.94468   0.76646   0.16451   0.00000  Uiso   1.00
C816   C     0.72191   0.90027   0.33549   0.00000  Uiso   1.00
C817   C     0.89675   0.87925   0.47758   0.00000  Uiso   1.00
C818   C     0.68675   0.79236   0.23691   0.00000  Uiso   1.00
C819   C     0.97991   0.87431   0.26307   0.00000  Uiso   1.00
C820   C     0.97758   0.79506   0.23176   0.00000  Uiso   1.00
C821   C     0.68909   0.87161   0.26822   0.00000  Uiso   1.00
C822   C     0.95736   0.83502   0.24693   0.00000  Uiso   1.00
Cu823  Cu    0.83333   0.88022   0.25000   0.00000  Uiso   1.00
Cu824  Cu    0.83333   0.78645   0.25000   0.00000  Uiso   1.00
F825   F     0.78595   0.71413   0.19041   0.00000  Uiso   1.00
F826   F     0.88072   0.95253   0.30959   0.00000  Uiso   1.00
F827   F     0.88140   0.71532   0.30898   0.00000  Uiso   1.00
F828   F     0.78527   0.95135   0.19102   0.00000  Uiso   1.00
H829   H     0.74519   0.76836   0.45997   0.00000  Uiso   1.00
H830   H     0.72077   0.83066   0.09373   0.00000  Uiso   1.00
H831   H     0.74563   0.85104   0.14438   0.00000  Uiso   1.00
H832   H     0.71178   0.80066   0.14541   0.00000  Uiso   1.00
H833   H     0.74333   0.78800   0.38819   0.00000  Uiso   1.00
H834   H     0.77916   0.71448   0.41345   0.00000  Uiso   1.00
H835   H     0.81185   0.72420   0.36646   0.00000  Uiso   1.00
H836   H     0.75795   0.71298   0.35813   0.00000  Uiso   1.00
H837   H     0.92334   0.87865   0.11181   0.00000  Uiso   1.00
H838   H     0.88752   0.95217   0.08654   0.00000  Uiso   1.00
H839   H     0.90875   0.95368   0.14185   0.00000  Uiso   1.00
H840   H     0.92149   0.89829   0.04003   0.00000  Uiso   1.00
H841   H     0.85484   0.94246   0.13354   0.00000  Uiso   1.00
H842   H     0.69735   0.73540   0.19600   0.00000  Uiso   1.00
H843   H     0.72665   0.68553   0.25064   0.00000  Uiso   1.00
H844   H     0.67861   0.70469   0.27198   0.00000  Uiso   1.00
H845   H     0.72591   0.73231   0.29036   0.00000  Uiso   1.00
H846   H     0.96933   0.93130   0.30394   0.00000  Uiso   1.00
H847   H     0.98805   0.96198   0.22797   0.00000  Uiso   1.00
H848   H     0.93999   0.98112   0.24928   0.00000  Uiso   1.00
H849   H     0.94076   0.93432   0.20959   0.00000  Uiso   1.00
H850   H     0.96484   0.72444   0.21671   0.00000  Uiso   1.00
H851   H     0.74445   0.77003   0.03847   0.00000  Uiso   1.00
H852   H     0.97288   0.76793   0.14446   0.00000  Uiso   1.00
H853   H     0.92811   0.79990   0.16053   0.00000  Uiso   1.00
H854   H     0.92449   0.73761   0.15200   0.00000  Uiso   1.00
H855   H     0.70186   0.94223   0.28321   0.00000  Uiso   1.00
H856   H     0.69370   0.89911   0.35553   0.00000  Uiso   1.00
H857   H     0.74230   0.92900   0.34793   0.00000  Uiso   1.00
H858   H     0.73827   0.86669   0.33956   0.00000  Uiso   1.00
H859   H     0.92222   0.89662   0.46153   0.00000  Uiso   1.00
H860   H     0.90606   0.91091   0.39206   0.00000  Uiso   1.00
H861   H     0.94589   0.83602   0.40624   0.00000  Uiso   1.00
H862   H     0.95489   0.86606   0.35458   0.00000  Uiso   1.00
H863   H     0.92104   0.81567   0.35558   0.00000  Uiso   1.00
H864   H     0.76060   0.75578   0.10796   0.00000  Uiso   1.00
N865   N     0.83333   0.95069   0.25000   0.00000  Uiso   1.00
N866   N     0.71177   0.90874   0.28933   0.00000  Uiso   1.00
N867   N     0.83333   0.71598   0.25000   0.00000  Uiso   1.00
N868   N     0.89751   0.87758   0.38222   0.00000  Uiso   1.00
N869   N     0.76915   0.78911   0.11778   0.00000  Uiso   1.00
N870   N     0.77329   0.78035   0.38150   0.00000  Uiso   1.00
N871   N     0.89339   0.88630   0.11850   0.00000  Uiso   1.00
N872   N     0.70685   0.75025   0.22554   0.00000  Uiso   1.00
N873   N     0.95982   0.91643   0.27443   0.00000  Uiso   1.00
N874   N     0.95490   0.75793   0.21065   0.00000  Uiso   1.00
O875   O     0.77321   0.87291   0.24999   0.00000  Uiso   1.00
O876   O     0.89345   0.79375   0.25001   0.00000  Uiso   1.00
O877   O     0.89345   0.87291   0.25001   0.00000  Uiso   1.00
O878   O     0.77321   0.79375   0.24999   0.00000  Uiso   1.00
O879   O     0.83332   0.87293   0.18513   0.00000  Uiso   1.00
O880   O     0.83334   0.79373   0.31487   0.00000  Uiso   1.00
O881   O     0.83334   0.87293   0.31487   0.00000  Uiso   1.00
O882   O     0.83332   0.79373   0.18513   0.00000  Uiso   1.00
C883   C     0.08737   0.16611   0.75127   0.00000  Uiso   1.00
C884   C     0.04264   0.16498   0.75305   0.00000  Uiso   1.00
C885   C     0.14302   0.02451   0.72030   0.00000  Uiso   1.00
C886   C     0.19031   0.30883   0.77970   0.00000  Uiso   1.00
C887   C     0.19047   0.02509   0.77956   0.00000  Uiso   1.00
C888   C     0.14286   0.30825   0.72044   0.00000  Uiso   1.00
C889   C     0.16684   0.16696   0.66449   0.00000  Uiso   1.00
C890   C     0.16649   0.16637   0.83551   0.00000  Uiso   1.00
C891   C     0.19852   0.18940   0.90675   0.00000  Uiso   1.00
C892   C     0.13481   0.14393   0.59325   0.00000  Uiso   1.00
C893   C     0.16702   0.16541   0.88376   0.00000  Uiso   1.00
C894   C     0.24596   0.16722   0.74872   0.00000  Uiso   1.00
C895   C     0.16631   0.16792   0.61624   0.00000  Uiso   1.00
C896   C     0.13630   0.14026   0.90634   0.00000  Uiso   1.00
C897   C     0.19704   0.19306   0.59366   0.00000  Uiso   1.00
C898   C     0.13528   0.14205   0.95296   0.00000  Uiso   1.00
C899   C     0.19806   0.19127   0.54704   0.00000  Uiso   1.00
C900   C     0.16675   0.16641   0.97655   0.00000  Uiso   1.00
C901   C     0.16659   0.16691   0.52345   0.00000  Uiso   1.00
C902   C     0.19860   0.18985   0.95344   0.00000  Uiso   1.00
C903   C     0.13474   0.14348   0.54656   0.00000  Uiso   1.00
C904   C     0.10360   0.11990   0.97654   0.00000  Uiso   1.00
C905   C     0.10325   0.12073   0.52242   0.00000  Uiso   1.00
C906   C     0.22974   0.21342   0.52346   0.00000  Uiso   1.00
C907   C     0.26486   0.18048   0.87436   0.00000  Uiso   1.00
C908   C     0.06847   0.15289   0.62562   0.00000  Uiso   1.00
C909   C     0.11438   0.06387   0.87991   0.00000  Uiso   1.00
C910   C     0.21897   0.26945   0.62008   0.00000  Uiso   1.00
C911   C     0.04288   0.04986   0.76152   0.00000  Uiso   1.00
C912   C     0.29045   0.28346   0.73843   0.00000  Uiso   1.00
C913   C     0.27802   0.09979   0.66451   0.00000  Uiso   1.00
C914   C     0.05525   0.23360   0.83549   0.00000  Uiso   1.00
C915   C     0.23009   0.21258   0.97758   0.00000  Uiso   1.00
C916   C     0.02009   0.12569   0.73691   0.00000  Uiso   1.00
C917   C     0.31324   0.20765   0.76307   0.00000  Uiso   1.00
C918   C     0.31091   0.12839   0.73176   0.00000  Uiso   1.00
C919   C     0.02242   0.20495   0.76822   0.00000  Uiso   1.00
C920   C     0.29069   0.16835   0.74693   0.00000  Uiso   1.00
Cu921  Cu    0.16667   0.21355   0.75000   0.00000  Uiso   1.00
Cu922  Cu    0.16667   0.11978   0.75000   0.00000  Uiso   1.00
F923   F     0.11928   0.04747   0.69041   0.00000  Uiso   1.00
F924   F     0.21405   0.28587   0.80959   0.00000  Uiso   1.00
F925   F     0.21473   0.04865   0.80898   0.00000  Uiso   1.00
F926   F     0.11860   0.28468   0.69102   0.00000  Uiso   1.00
H927   H     0.07852   0.10169   0.95997   0.00000  Uiso   1.00
H928   H     0.05410   0.16400   0.59373   0.00000  Uiso   1.00
H929   H     0.07897   0.18437   0.64438   0.00000  Uiso   1.00
H930   H     0.04511   0.13399   0.64541   0.00000  Uiso   1.00
H931   H     0.07666   0.12133   0.88819   0.00000  Uiso   1.00
H932   H     0.11249   0.04781   0.91345   0.00000  Uiso   1.00
H933   H     0.14518   0.05754   0.86646   0.00000  Uiso   1.00
H934   H     0.09128   0.04631   0.85813   0.00000  Uiso   1.00
H935   H     0.25668   0.21198   0.61181   0.00000  Uiso   1.00
H936   H     0.22085   0.28550   0.58654   0.00000  Uiso   1.00
H937   H     0.24208   0.28701   0.64185   0.00000  Uiso   1.00
H938   H     0.25483   0.23162   0.54003   0.00000  Uiso   1.00
H939   H     0.18817   0.27579   0.63354   0.00000  Uiso   1.00
H940   H     0.03068   0.06873   0.69600   0.00000  Uiso   1.00
H941   H     0.05999   0.01887   0.75064   0.00000  Uiso   1.00
H942   H     0.01194   0.03802   0.77198   0.00000  Uiso   1.00
H943   H     0.05925   0.06565   0.79036   0.00000  Uiso   1.00
H944   H     0.30266   0.26464   0.80394   0.00000  Uiso   1.00
H945   H     0.32138   0.29531   0.72797   0.00000  Uiso   1.00
H946   H     0.27332   0.31445   0.74928   0.00000  Uiso   1.00
H947   H     0.27409   0.26765   0.70959   0.00000  Uiso   1.00
H948   H     0.29817   0.05777   0.71671   0.00000  Uiso   1.00
H949   H     0.07778   0.10337   0.53847   0.00000  Uiso   1.00
H950   H     0.30621   0.10126   0.64446   0.00000  Uiso   1.00
H951   H     0.26145   0.13323   0.66053   0.00000  Uiso   1.00
H952   H     0.25782   0.07094   0.65200   0.00000  Uiso   1.00
H953   H     0.03520   0.27557   0.78321   0.00000  Uiso   1.00
H954   H     0.02703   0.23244   0.85553   0.00000  Uiso   1.00
H955   H     0.07563   0.26233   0.84793   0.00000  Uiso   1.00
H956   H     0.07160   0.20002   0.83956   0.00000  Uiso   1.00
H957   H     0.25556   0.22995   0.96153   0.00000  Uiso   1.00
H958   H     0.23939   0.24424   0.89206   0.00000  Uiso   1.00
H959   H     0.27922   0.16935   0.90624   0.00000  Uiso   1.00
H960   H     0.28822   0.19940   0.85458   0.00000  Uiso   1.00
H961   H     0.25438   0.14901   0.85558   0.00000  Uiso   1.00
H962   H     0.09393   0.08911   0.60796   0.00000  Uiso   1.00
N963   N     0.16667   0.28402   0.75000   0.00000  Uiso   1.00
N964   N     0.04510   0.24207   0.78933   0.00000  Uiso   1.00
N965   N     0.16667   0.04931   0.75000   0.00000  Uiso   1.00
N966   N     0.23084   0.21091   0.88222   0.00000  Uiso   1.00
N967   N     0.10248   0.12244   0.61778   0.00000  Uiso   1.00
N968   N     0.10662   0.11368   0.88150   0.00000  Uiso   1.00
N969   N     0.22672   0.21964   0.61850   0.00000  Uiso   1.00
N970   N     0.04019   0.08359   0.72554   0.00000  Uiso   1.00
N971   N     0.29315   0.24976   0.77443   0.00000  Uiso   1.00
N972   N     0.28824   0.09126   0.71065   0.00000  Uiso   1.00
O973   O     0.10655   0.20625   0.74999   0.00000  Uiso   1.00
O974   O     0.22679   0.12709   0.75001   0.00000  Uiso   1.00
O975   O     0.22679   0.20625   0.75001   0.00000  Uiso   1.00
O976   O     0.10655   0.12709   0.74999   0.00000  Uiso   1.00
O977   O     0.16666   0.20627   0.68513   0.00000  Uiso   1.00
O978   O     0.16668   0.12707   0.81487   0.00000  Uiso   1.00
O979   O     0.16668   0.20627   0.81487   0.00000  Uiso   1.00
O980   O     0.16666   0.12707   0.68513   0.00000  Uiso   1.00
C981   C     0.42070   0.16611   0.75127   0.00000  Uiso   1.00
C982   C     0.37597   0.16498   0.75305   0.00000  Uiso   1.00
C983   C     0.47635   0.02451   0.72030   0.00000  Uiso   1.00
C984   C     0.52365   0.30883   0.77970   0.00000  Uiso   1.00
C985   C     0.52381   0.02509   0.77956   0.00000  Uiso   1.00
C986   C     0.47619   0.30825   0.72044   0.00000  Uiso   1.00
C987   C     0.50017   0.16696   0.66449   0.00000  Uiso   1.00
C988   C     0.49983   0.16637   0.83551   0.00000  Uiso   1.00
C989   C     0.53185   0.18940   0.90675   0.00000  Uiso   1.00
C990   C     0.46815   0.14393   0.59325   0.00000  Uiso   1.00
C991   C     0.50036   0.16541   0.88376   0.00000  Uiso   1.00
C992   C     0.57929   0.16722   0.74872   0.00000  Uiso   1.00
C993   C     0.49964   0.16792   0.61624   0.00000  Uiso   1.00
C994   C     0.46963   0.14026   0.90634   0.00000  Uiso   1.00
C995   C     0.53037   0.19306   0.59366   0.00000  Uiso   1.00
C996   C     0.46861   0.14205   0.95296   0.00000  Uiso   1.00
C997   C     0.53140   0.19127   0.54704   0.00000  Uiso   1.00
C998   C     0.50008   0.16641   0.97655   0.00000  Uiso   1.00
C999   C     0.49993   0.16691   0.52345   0.00000  Uiso   1.00
C1000  C     0.53193   0.18985   0.95344   0.00000  Uiso   1.00
C1001  C     0.46807   0.14348   0.54656   0.00000  Uiso   1.00
C1002  C     0.43693   0.11990   0.97654   0.00000  Uiso   1.00
C1003  C     0.43659   0.12073   0.52242   0.00000  Uiso   1.00
C1004  C     0.56308   0.21342   0.52346   0.00000  Uiso   1.00
C1005  C     0.59819   0.18048   0.87436   0.00000  Uiso   1.00
C1006  C     0.40181   0.15289   0.62562   0.00000  Uiso   1.00
C1007  C     0.44771   0.06387   0.87991   0.00000  Uiso   1.00
C1008  C     0.55231   0.26945   0.62008   0.00000  Uiso   1.00
C1009  C     0.37621   0.04986   0.76152   0.00000  Uiso   1.00
C1010  C     0.62378   0.28346   0.73843   0.00000  Uiso   1.00
C1011  C     0.61135   0.09979   0.66451   0.00000  Uiso   1.00
C1012  C     0.38858   0.23360   0.83549   0.00000  Uiso   1.00
C1013  C     0.56342   0.21258   0.97758   0.00000  Uiso   1.00
C1014  C     0.35342   0.12569   0.73691   0.00000  Uiso   1.00
C1015  C     0.64658   0.20765   0.76307   0.00000  Uiso   1.00
C1016  C     0.64425   0.12839   0.73176   0.00000  Uiso   1.00
C1017  C     0.35575   0.20495   0.76822   0.00000  Uiso   1.00
C1018  C     0.62403   0.16835   0.74693   0.00000  Uiso   1.00
Cu1019 Cu    0.50000   0.21355   0.75000   0.00000  Uiso   1.00
Cu1020 Cu    0.50000   0.11978   0.75000   0.00000  Uiso   1.00
F1021  F     0.45262   0.04747   0.69041   0.00000  Uiso   1.00
F1022  F     0.54739   0.28587   0.80959   0.00000  Uiso   1.00
F1023  F     0.54806   0.04865   0.80898   0.00000  Uiso   1.00
F1024  F     0.45194   0.28468   0.69102   0.00000  Uiso   1.00
H1025  H     0.41185   0.10169   0.95997   0.00000  Uiso   1.00
H1026  H     0.38744   0.16400   0.59373   0.00000  Uiso   1.00
H1027  H     0.41230   0.18437   0.64438   0.00000  Uiso   1.00
H1028  H     0.37845   0.13399   0.64541   0.00000  Uiso   1.00
H1029  H     0.40999   0.12133   0.88819   0.00000  Uiso   1.00
H1030  H     0.44582   0.04781   0.91345   0.00000  Uiso   1.00
H1031  H     0.47852   0.05754   0.86646   0.00000  Uiso   1.00
H1032  H     0.42461   0.04631   0.85813   0.00000  Uiso   1.00
H1033  H     0.59001   0.21198   0.61181   0.00000  Uiso   1.00
H1034  H     0.55418   0.28550   0.58654   0.00000  Uiso   1.00
H1035  H     0.57541   0.28701   0.64185   0.00000  Uiso   1.00
H1036  H     0.58816   0.23162   0.54003   0.00000  Uiso   1.00
H1037  H     0.52151   0.27579   0.63354   0.00000  Uiso   1.00
H1038  H     0.36402   0.06873   0.69600   0.00000  Uiso   1.00
H1039  H     0.39332   0.01887   0.75064   0.00000  Uiso   1.00
H1040  H     0.34528   0.03802   0.77198   0.00000  Uiso   1.00
H1041  H     0.39258   0.06565   0.79036   0.00000  Uiso   1.00
H1042  H     0.63599   0.26464   0.80394   0.00000  Uiso   1.00
H1043  H     0.65471   0.29531   0.72797   0.00000  Uiso   1.00
H1044  H     0.60666   0.31445   0.74928   0.00000  Uiso   1.00
H1045  H     0.60743   0.26765   0.70959   0.00000  Uiso   1.00
H1046  H     0.63150   0.05777   0.71671   0.00000  Uiso   1.00
H1047  H     0.41112   0.10337   0.53847   0.00000  Uiso   1.00
H1048  H     0.63954   0.10126   0.64446   0.00000  Uiso   1.00
H1049  H     0.59478   0.13323   0.66053   0.00000  Uiso   1.00
H1050  H     0.59115   0.07094   0.65200   0.00000  Uiso   1.00
H1051  H     0.36853   0.27557   0.78321   0.00000  Uiso   1.00
H1052  H     0.36037   0.23244   0.85553   0.00000  Uiso   1.00
H1053  H     0.40896   0.26233   0.84793   0.00000  Uiso   1.00
H1054  H     0.40494   0.20002   0.83956   0.00000  Uiso   1.00
H1055  H     0.58889   0.22995   0.96153   0.00000  Uiso   1.00
H1056  H     0.57272   0.24424   0.89206   0.00000  Uiso   1.00
H1057  H     0.61256   0.16935   0.90624   0.00000  Uiso   1.00
H1058  H     0.62155   0.19940   0.85458   0.00000  Uiso   1.00
H1059  H     0.58771   0.14901   0.85558   0.00000  Uiso   1.00
H1060  H     0.42726   0.08911   0.60796   0.00000  Uiso   1.00
N1061  N     0.50000   0.28402   0.75000   0.00000  Uiso   1.00
N1062  N     0.37843   0.24207   0.78933   0.00000  Uiso   1.00
N1063  N     0.50000   0.04931   0.75000   0.00000  Uiso   1.00
N1064  N     0.56418   0.21091   0.88222   0.00000  Uiso   1.00
N1065  N     0.43582   0.12244   0.61778   0.00000  Uiso   1.00
N1066  N     0.43995   0.11368   0.88150   0.00000  Uiso   1.00
N1067  N     0.56005   0.21964   0.61850   0.00000  Uiso   1.00
N1068  N     0.37352   0.08359   0.72554   0.00000  Uiso   1.00
N1069  N     0.62648   0.24976   0.77443   0.00000  Uiso   1.00
N1070  N     0.62157   0.09126   0.71065   0.00000  Uiso   1.00
O1071  O     0.43988   0.20625   0.74999   0.00000  Uiso   1.00
O1072  O     0.56012   0.12709   0.75001   0.00000  Uiso   1.00
O1073  O     0.56012   0.20625   0.75001   0.00000  Uiso   1.00
O1074  O     0.43988   0.12709   0.74999   0.00000  Uiso   1.00
O1075  O     0.49999   0.20627   0.68513   0.00000  Uiso   1.00
O1076  O     0.50001   0.12707   0.81487   0.00000  Uiso   1.00
O1077  O     0.50001   0.20627   0.81487   0.00000  Uiso   1.00
O1078  O     0.49999   0.12707   0.68513   0.00000  Uiso   1.00
C1079  C     0.75404   0.16611   0.75127   0.00000  Uiso   1.00
C1080  C     0.70930   0.16498   0.75305   0.00000  Uiso   1.00
C1081  C     0.80969   0.02451   0.72030   0.00000  Uiso   1.00
C1082  C     0.85698   0.30883   0.77970   0.00000  Uiso   1.00
C1083  C     0.85714   0.02509   0.77956   0.00000  Uiso   1.00
C1084  C     0.80953   0.30825   0.72044   0.00000  Uiso   1.00
C1085  C     0.83351   0.16696   0.66449   0.00000  Uiso   1.00
C1086  C     0.83316   0.16637   0.83551   0.00000  Uiso   1.00
C1087  C     0.86519   0.18940   0.90675   0.00000  Uiso   1.00
C1088  C     0.80148   0.14393   0.59325   0.00000  Uiso   1.00
C1089  C     0.83369   0.16541   0.88376   0.00000  Uiso   1.00
C1090  C     0.91263   0.16722   0.74872   0.00000  Uiso   1.00
C1091  C     0.83298   0.16792   0.61624   0.00000  Uiso   1.00
C1092  C     0.80297   0.14026   0.90634   0.00000  Uiso   1.00
C1093  C     0.86371   0.19306   0.59366   0.00000  Uiso   1.00
C1094  C     0.80194   0.14205   0.95296   0.00000  Uiso   1.00
C1095  C     0.86473   0.19127   0.54704   0.00000  Uiso   1.00
C1096  C     0.83341   0.16641   0.97655   0.00000  Uiso   1.00
C1097  C     0.83326   0.16691   0.52345   0.00000  Uiso   1.00
C1098  C     0.86527   0.18985   0.95344   0.00000  Uiso   1.00
C1099  C     0.80141   0.14348   0.54656   0.00000  Uiso   1.00
C1100  C     0.77027   0.11990   0.97654   0.00000  Uiso   1.00
C1101  C     0.76992   0.12073   0.52242   0.00000  Uiso   1.00
C1102  C     0.89641   0.21342   0.52346   0.00000  Uiso   1.00
C1103  C     0.93153   0.18048   0.87436   0.00000  Uiso   1.00
C1104  C     0.73514   0.15289   0.62562   0.00000  Uiso   1.00
C1105  C     0.78104   0.06387   0.87991   0.00000  Uiso   1.00
C1106  C     0.88564   0.26945   0.62008   0.00000  Uiso   1.00
C1107  C     0.70954   0.04986   0.76152   0.00000  Uiso   1.00
C1108  C     0.95712   0.28346   0.73843   0.00000  Uiso   1.00
C1109  C     0.94468   0.09979   0.66451   0.00000  Uiso   1.00
C1110  C     0.72191   0.23360   0.83549   0.00000  Uiso   1.00
C1111  C     0.89675   0.21258   0.97758   0.00000  Uiso   1.00
C1112  C     0.68675   0.12569   0.73691   0.00000  Uiso   1.00
C1113  C     0.97991   0.20765   0.76307   0.00000  Uiso   1.00
C1114  C     0.97758   0.12839   0.73176   0.00000  Uiso   1.00
C1115  C     0.68909   0.20495   0.76822   0.00000  Uiso   1.00
C1116  C     0.95736   0.16835   0.74693   0.00000  Uiso   1.00
Cu1117 Cu    0.83333   0.21355   0.75000   0.00000  Uiso   1.00
Cu1118 Cu    0.83333   0.11978   0.75000   0.00000  Uiso   1.00
F1119  F     0.78595   0.04747   0.69041   0.00000  Uiso   1.00
F1120  F     0.88072   0.28587   0.80959   0.00000  Uiso   1.00
F1121  F     0.88140   0.04865   0.80898   0.00000  Uiso   1.00
F1122  F     0.78527   0.28468   0.69102   0.00000  Uiso   1.00
H1123  H     0.74519   0.10169   0.95997   0.00000  Uiso   1.00
H1124  H     0.72077   0.16400   0.59373   0.00000  Uiso   1.00
H1125  H     0.74563   0.18437   0.64438   0.00000  Uiso   1.00
H1126  H     0.71178   0.13399   0.64541   0.00000  Uiso   1.00
H1127  H     0.74333   0.12133   0.88819   0.00000  Uiso   1.00
H1128  H     0.77916   0.04781   0.91345   0.00000  Uiso   1.00
H1129  H     0.81185   0.05754   0.86646   0.00000  Uiso   1.00
H1130  H     0.75795   0.04631   0.85813   0.00000  Uiso   1.00
H1131  H     0.92334   0.21198   0.61181   0.00000  Uiso   1.00
H1132  H     0.88752   0.28550   0.58654   0.00000  Uiso   1.00
H1133  H     0.90875   0.28701   0.64185   0.00000  Uiso   1.00
H1134  H     0.92149   0.23162   0.54003   0.00000  Uiso   1.00
H1135  H     0.85484   0.27579   0.63354   0.00000  Uiso   1.00
H1136  H     0.69735   0.06873   0.69600   0.00000  Uiso   1.00
H1137  H     0.72665   0.01887   0.75064   0.00000  Uiso   1.00
H1138  H     0.67861   0.03802   0.77198   0.00000  Uiso   1.00
H1139  H     0.72591   0.06565   0.79036   0.00000  Uiso   1.00
H1140  H     0.96933   0.26464   0.80394   0.00000  Uiso   1.00
H1141  H     0.98805   0.29531   0.72797   0.00000  Uiso   1.00
H1142  H     0.93999   0.31445   0.74928   0.00000  Uiso   1.00
H1143  H     0.94076   0.26765   0.70959   0.00000  Uiso   1.00
H1144  H     0.96484   0.05777   0.71671   0.00000  Uiso   1.00
H1145  H     0.74445   0.10337   0.53847   0.00000  Uiso   1.00
H1146  H     0.97288   0.10126   0.64446   0.00000  Uiso   1.00
H1147  H     0.92811   0.13323   0.66053   0.00000  Uiso   1.00
H1148  H     0.92449   0.07094   0.65200   0.00000  Uiso   1.00
H1149  H     0.70186   0.27557   0.78321   0.00000  Uiso   1.00
H1150  H     0.69370   0.23244   0.85553   0.00000  Uiso   1.00
H1151  H     0.74230   0.26233   0.84793   0.00000  Uiso   1.00
H1152  H     0.73827   0.20002   0.83956   0.00000  Uiso   1.00
H1153  H     0.92222   0.22995   0.96153   0.00000  Uiso   1.00
H1154  H     0.90606   0.24424   0.89206   0.00000  Uiso   1.00
H1155  H     0.94589   0.16935   0.90624   0.00000  Uiso   1.00
H1156  H     0.95489   0.19940   0.85458   0.00000  Uiso   1.00
H1157  H     0.92104   0.14901   0.85558   0.00000  Uiso   1.00
H1158  H     0.76060   0.08911   0.60796   0.00000  Uiso   1.00
N1159  N     0.83333   0.28402   0.75000   0.00000  Uiso   1.00
N1160  N     0.71177   0.24207   0.78933   0.00000  Uiso   1.00
N1161  N     0.83333   0.04931   0.75000   0.00000  Uiso   1.00
N1162  N     0.89751   0.21091   0.88222   0.00000  Uiso   1.00
N1163  N     0.76915   0.12244   0.61778   0.00000  Uiso   1.00
N1164  N     0.77329   0.11368   0.88150   0.00000  Uiso   1.00
N1165  N     0.89339   0.21964   0.61850   0.00000  Uiso   1.00
N1166  N     0.70685   0.08359   0.72554   0.00000  Uiso   1.00
N1167  N     0.95982   0.24976   0.77443   0.00000  Uiso   1.00
N1168  N     0.95490   0.09126   0.71065   0.00000  Uiso   1.00
O1169  O     0.77321   0.20625   0.74999   0.00000  Uiso   1.00
O1170  O     0.89345   0.12709   0.75001   0.00000  Uiso   1.00
O1171  O     0.89345   0.20625   0.75001   0.00000  Uiso   1.00
O1172  O     0.77321   0.12709   0.74999   0.00000  Uiso   1.00
O1173  O     0.83332   0.20627   0.68513   0.00000  Uiso   1.00
O1174  O     0.83334   0.12707   0.81487   0.00000  Uiso   1.00
O1175  O     0.83334   0.20627   0.81487   0.00000  Uiso   1.00
O1176  O     0.83332   0.12707   0.68513   0.00000  Uiso   1.00
C1177  C     0.08737   0.49944   0.75127   0.00000  Uiso   1.00
C1178  C     0.04264   0.49832   0.75305   0.00000  Uiso   1.00
C1179  C     0.14302   0.35784   0.72030   0.00000  Uiso   1.00
C1180  C     0.19031   0.64216   0.77970   0.00000  Uiso   1.00
C1181  C     0.19047   0.35842   0.77956   0.00000  Uiso   1.00
C1182  C     0.14286   0.64158   0.72044   0.00000  Uiso   1.00
C1183  C     0.16684   0.50029   0.66449   0.00000  Uiso   1.00
C1184  C     0.16649   0.49971   0.83551   0.00000  Uiso   1.00
C1185  C     0.19852   0.52274   0.90675   0.00000  Uiso   1.00
C1186  C     0.13481   0.47726   0.59325   0.00000  Uiso   1.00
C1187  C     0.16702   0.49874   0.88376   0.00000  Uiso   1.00
C1188  C     0.24596   0.50056   0.74872   0.00000  Uiso   1.00
C1189  C     0.16631   0.50126   0.61624   0.00000  Uiso   1.00
C1190  C     0.13630   0.47360   0.90634   0.00000  Uiso   1.00
C1191  C     0.19704   0.52639   0.59366   0.00000  Uiso   1.00
C1192  C     0.13528   0.47538   0.95296   0.00000  Uiso   1.00
C1193  C     0.19806   0.52460   0.54704   0.00000  Uiso   1.00
C1194  C     0.16675   0.49974   0.97655   0.00000  Uiso   1.00
C1195  C     0.16659   0.50024   0.52345   0.00000  Uiso   1.00
C1196  C     0.19860   0.52318   0.95344   0.00000  Uiso   1.00
C1197  C     0.13474   0.47681   0.54656   0.00000  Uiso   1.00
C1198  C     0.10360   0.45323   0.97654   0.00000  Uiso   1.00
C1199  C     0.10325   0.45407   0.52242   0.00000  Uiso   1.00
C1200  C     0.22974   0.54675   0.52346   0.00000  Uiso   1.00
C1201  C     0.26486   0.51381   0.87436   0.00000  Uiso   1.00
C1202  C     0.06847   0.48623   0.62562   0.00000  Uiso   1.00
C1203  C     0.11438   0.39720   0.87991   0.00000  Uiso   1.00
C1204  C     0.21897   0.60279   0.62008   0.00000  Uiso   1.00
C1205  C     0.04288   0.38319   0.76152   0.00000  Uiso   1.00
C1206  C     0.29045   0.61680   0.73843   0.00000  Uiso   1.00
C1207  C     0.27802   0.43312   0.66451   0.00000  Uiso   1.00
C1208  C     0.05525   0.56693   0.83549   0.00000  Uiso   1.00
C1209  C     0.23009   0.54592   0.97758   0.00000  Uiso   1.00
C1210  C     0.02009   0.45902   0.73691   0.00000  Uiso   1.00
C1211  C     0.31324   0.54098   0.76307   0.00000  Uiso   1.00
C1212  C     0.31091   0.46172   0.73176   0.00000  Uiso   1.00
C1213  C     0.02242   0.53828   0.76822   0.00000  Uiso   1.00
C1214  C     0.29069   0.50169   0.74693   0.00000  Uiso   1.00
Cu1215 Cu    0.16667   0.54689   0.75000   0.00000  Uiso   1.00
Cu1216 Cu    0.16667   0.45311   0.75000   0.00000  Uiso   1.00
F1217  F     0.11928   0.38080   0.69041   0.00000  Uiso   1.00
F1218  F     0.21405   0.61920   0.80959   0.00000  Uiso   1.00
F1219  F     0.21473   0.38199   0.80898   0.00000  Uiso   1.00
F1220  F     0.11860   0.61801   0.69102   0.00000  Uiso   1.00
H1221  H     0.07852   0.43502   0.95997   0.00000  Uiso   1.00
H1222  H     0.05410   0.49733   0.59373   0.00000  Uiso   1.00
H1223  H     0.07897   0.51771   0.64438   0.00000  Uiso   1.00
H1224  H     0.04511   0.46733   0.64541   0.00000  Uiso   1.00
H1225  H     0.07666   0.45467   0.88819   0.00000  Uiso   1.00
H1226  H     0.11249   0.38115   0.91345   0.00000  Uiso   1.00
H1227  H     0.14518   0.39087   0.86646   0.00000  Uiso   1.00
H1228  H     0.09128   0.37965   0.85813   0.00000  Uiso   1.00
H1229  H     0.25668   0.54531   0.61181   0.00000  Uiso   1.00
H1230  H     0.22085   0.61883   0.58654   0.00000  Uiso   1.00
H1231  H     0.24208   0.62034   0.64185   0.00000  Uiso   1.00
H1232  H     0.25483   0.56496   0.54003   0.00000  Uiso   1.00
H1233  H     0.18817   0.60913   0.63354   0.00000  Uiso   1.00
H1234  H     0.03068   0.40207   0.69600   0.00000  Uiso   1.00
H1235  H     0.05999   0.35220   0.75064   0.00000  Uiso   1.00
H1236  H     0.01194   0.37135   0.77198   0.00000  Uiso   1.00
H1237  H     0.05925   0.39898   0.79036   0.00000  Uiso   1.00
H1238  H     0.30266   0.59797   0.80394   0.00000  Uiso   1.00
H1239  H     0.32138   0.62865   0.72797   0.00000  Uiso   1.00
H1240  H     0.27332   0.64779   0.74928   0.00000  Uiso   1.00
H1241  H     0.27409   0.60098   0.70959   0.00000  Uiso   1.00
H1242  H     0.29817   0.39110   0.71671   0.00000  Uiso   1.00
H1243  H     0.07778   0.43670   0.53847   0.00000  Uiso   1.00
H1244  H     0.30621   0.43459   0.64446   0.00000  Uiso   1.00
H1245  H     0.26145   0.46656   0.66053   0.00000  Uiso   1.00
H1246  H     0.25782   0.40427   0.65200   0.00000  Uiso   1.00
H1247  H     0.03520   0.60890   0.78321   0.00000  Uiso   1.00
H1248  H     0.02703   0.56577   0.85553   0.00000  Uiso   1.00
H1249  H     0.07563   0.59567   0.84793   0.00000  Uiso   1.00
H1250  H     0.07160   0.53335   0.83956   0.00000  Uiso   1.00
H1251  H     0.25556   0.56328   0.96153   0.00000  Uiso   1.00
H1252  H     0.23939   0.57757   0.89206   0.00000  Uiso   1.00
H1253  H     0.27922   0.50268   0.90624   0.00000  Uiso   1.00
H1254  H     0.28822   0.53273   0.85458   0.00000  Uiso   1.00
H1255  H     0.25438   0.48234   0.85558   0.00000  Uiso   1.00
H1256  H     0.09393   0.42245   0.60796   0.00000  Uiso   1.00
N1257  N     0.16667   0.61736   0.75000   0.00000  Uiso   1.00
N1258  N     0.04510   0.57541   0.78933   0.00000  Uiso   1.00
N1259  N     0.16667   0.38264   0.75000   0.00000  Uiso   1.00
N1260  N     0.23084   0.54424   0.88222   0.00000  Uiso   1.00
N1261  N     0.10248   0.45578   0.61778   0.00000  Uiso   1.00
N1262  N     0.10662   0.44702   0.88150   0.00000  Uiso   1.00
N1263  N     0.22672   0.55297   0.61850   0.00000  Uiso   1.00
N1264  N     0.04019   0.41692   0.72554   0.00000  Uiso   1.00
N1265  N     0.29315   0.58309   0.77443   0.00000  Uiso   1.00
N1266  N     0.28824   0.42460   0.71065   0.00000  Uiso   1.00
O1267  O     0.10655   0.53958   0.74999   0.00000  Uiso   1.00
O1268  O     0.22679   0.46042   0.75001   0.00000  Uiso   1.00
O1269  O     0.22679   0.53958   0.75001   0.00000  Uiso   1.00
O1270  O     0.10655   0.46042   0.74999   0.00000  Uiso   1.00
O1271  O     0.16666   0.53960   0.68513   0.00000  Uiso   1.00
O1272  O     0.16668   0.46040   0.81487   0.00000  Uiso   1.00
O1273  O     0.16668   0.53960   0.81487   0.00000  Uiso   1.00
O1274  O     0.16666   0.46040   0.68513   0.00000  Uiso   1.00
C1275  C     0.42070   0.49944   0.75127   0.00000  Uiso   1.00
C1276  C     0.37597   0.49832   0.75305   0.00000  Uiso   1.00
C1277  C     0.47635   0.35784   0.72030   0.00000  Uiso   1.00
C1278  C     0.52365   0.64216   0.77970   0.00000  Uiso   1.00
C1279  C     0.52381   0.35842   0.77956   0.00000  Uiso   1.00
C1280  C     0.47619   0.64158   0.72044   0.00000  Uiso   1.00
C1281  C     0.50017   0.50029   0.66449   0.00000  Uiso   1.00
C1282  C     0.49983   0.49971   0.83551   0.00000  Uiso   1.00
C1283  C     0.53185   0.52274   0.90675   0.00000  Uiso   1.00
C1284  C     0.46815   0.47726   0.59325   0.00000  Uiso   1.00
C1285  C     0.50036   0.49874   0.88376   0.00000  Uiso   1.00
C1286  C     0.57929   0.50056   0.74872   0.00000  Uiso   1.00
C1287  C     0.49964   0.50126   0.61624   0.00000  Uiso   1.00
C1288  C     0.46963   0.47360   0.90634   0.00000  Uiso   1.00
C1289  C     0.53037   0.52639   0.59366   0.00000  Uiso   1.00
C1290  C     0.46861   0.47538   0.95296   0.00000  Uiso   1.00
C1291  C     0.53140   0.52460   0.54704   0.00000  Uiso   1.00
C1292  C     0.50008   0.49974   0.97655   0.00000  Uiso   1.00
C1293  C     0.49993   0.50024   0.52345   0.00000  Uiso   1.00
C1294  C     0.53193   0.52318   0.95344   0.00000  Uiso   1.00
C1295  C     0.46807   0.47681   0.54656   0.00000  Uiso   1.00
C1296  C     0.43693   0.45323   0.97654   0.00000  Uiso   1.00
C1297  C     0.43659   0.45407   0.52242   0.00000  Uiso   1.00
C1298  C     0.56308   0.54675   0.52346   0.00000  Uiso   1.00
C1299  C     0.59819   0.51381   0.87436   0.00000  Uiso   1.00
C1300  C     0.40181   0.48623   0.62562   0.00000  Uiso   1.00
C1301  C     0.44771   0.39720   0.87991   0.00000  Uiso   1.00
C1302  C     0.55231   0.60279   0.62008   0.00000  Uiso   1.00
C1303  C     0.37621   0.38319   0.76152   0.00000  Uiso   1.00
C1304  C     0.62378   0.61680   0.73843   0.00000  Uiso   1.00
C1305  C     0.61135   0.43312   0.66451   0.00000  Uiso   1.00
C1306  C     0.38858   0.56693   0.83549   0.00000  Uiso   1.00
C1307  C     0.56342   0.54592   0.97758   0.00000  Uiso   1.00
C1308  C     0.35342   0.45902   0.73691   0.00000  Uiso   1.00
C1309  C     0.64658   0.54098   0.76307   0.00000  Uiso   1.00
C1310  C     0.64425   0.46172   0.73176   0.00000  Uiso   1.00
C1311  C     0.35575   0.53828   0.76822   0.00000  Uiso   1.00
C1312  C     0.62403   0.50169   0.74693   0.00000  Uiso   1.00
Cu1313 Cu    0.50000   0.54689   0.75000   0.00000  Uiso   1.00
Cu1314 Cu    0.50000   0.45311   0.75000   0.00000  Uiso   1.00
F1315  F     0.45262   0.38080   0.69041   0.00000  Uiso   1.00
F1316  F     0.54739   0.61920   0.80959   0.00000  Uiso   1.00
F1317  F     0.54806   0.38199   0.80898   0.00000  Uiso   1.00
F1318  F     0.45194   0.61801   0.69102   0.00000  Uiso   1.00
H1319  H     0.41185   0.43502   0.95997   0.00000  Uiso   1.00
H1320  H     0.38744   0.49733   0.59373   0.00000  Uiso   1.00
H1321  H     0.41230   0.51771   0.64438   0.00000  Uiso   1.00
H1322  H     0.37845   0.46733   0.64541   0.00000  Uiso   1.00
H1323  H     0.40999   0.45467   0.88819   0.00000  Uiso   1.00
H1324  H     0.44582   0.38115   0.91345   0.00000  Uiso   1.00
H1325  H     0.47852   0.39087   0.86646   0.00000  Uiso   1.00
H1326  H     0.42461   0.37965   0.85813   0.00000  Uiso   1.00
H1327  H     0.59001   0.54531   0.61181   0.00000  Uiso   1.00
H1328  H     0.55418   0.61883   0.58654   0.00000  Uiso   1.00
H1329  H     0.57541   0.62034   0.64185   0.00000  Uiso   1.00
H1330  H     0.58816   0.56496   0.54003   0.00000  Uiso   1.00
H1331  H     0.52151   0.60913   0.63354   0.00000  Uiso   1.00
H1332  H     0.36402   0.40207   0.69600   0.00000  Uiso   1.00
H1333  H     0.39332   0.35220   0.75064   0.00000  Uiso   1.00
H1334  H     0.34528   0.37135   0.77198   0.00000  Uiso   1.00
H1335  H     0.39258   0.39898   0.79036   0.00000  Uiso   1.00
H1336  H     0.63599   0.59797   0.80394   0.00000  Uiso   1.00
H1337  H     0.65471   0.62865   0.72797   0.00000  Uiso   1.00
H1338  H     0.60666   0.64779   0.74928   0.00000  Uiso   1.00
H1339  H     0.60743   0.60098   0.70959   0.00000  Uiso   1.00
H1340  H     0.63150   0.39110   0.71671   0.00000  Uiso   1.00
H1341  H     0.41112   0.43670   0.53847   0.00000  Uiso   1.00
H1342  H     0.63954   0.43459   0.64446   0.00000  Uiso   1.00
H1343  H     0.59478   0.46656   0.66053   0.00000  Uiso   1.00
H1344  H     0.59115   0.40427   0.65200   0.00000  Uiso   1.00
H1345  H     0.36853   0.60890   0.78321   0.00000  Uiso   1.00
H1346  H     0.36037   0.56577   0.85553   0.00000  Uiso   1.00
H1347  H     0.40896   0.59567   0.84793   0.00000  Uiso   1.00
H1348  H     0.40494   0.53335   0.83956   0.00000  Uiso   1.00
H1349  H     0.58889   0.56328   0.96153   0.00000  Uiso   1.00
H1350  H     0.57272   0.57757   0.89206   0.00000  Uiso   1.00
H1351  H     0.61256   0.50268   0.90624   0.00000  Uiso   1.00
H1352  H     0.62155   0.53273   0.85458   0.00000  Uiso   1.00
H1353  H     0.58771   0.48234   0.85558   0.00000  Uiso   1.00
H1354  H     0.42726   0.42245   0.60796   0.00000  Uiso   1.00
N1355  N     0.50000   0.61736   0.75000   0.00000  Uiso   1.00
N1356  N     0.37843   0.57541   0.78933   0.00000  Uiso   1.00
N1357  N     0.50000   0.38264   0.75000   0.00000  Uiso   1.00
N1358  N     0.56418   0.54424   0.88222   0.00000  Uiso   1.00
N1359  N     0.43582   0.45578   0.61778   0.00000  Uiso   1.00
N1360  N     0.43995   0.44702   0.88150   0.00000  Uiso   1.00
N1361  N     0.56005   0.55297   0.61850   0.00000  Uiso   1.00
N1362  N     0.37352   0.41692   0.72554   0.00000  Uiso   1.00
N1363  N     0.62648   0.58309   0.77443   0.00000  Uiso   1.00
N1364  N     0.62157   0.42460   0.71065   0.00000  Uiso   1.00
O1365  O     0.43988   0.53958   0.74999   0.00000  Uiso   1.00
O1366  O     0.56012   0.46042   0.75001   0.00000  Uiso   1.00
O1367  O     0.56012   0.53958   0.75001   0.00000  Uiso   1.00
O1368  O     0.43988   0.46042   0.74999   0.00000  Uiso   1.00
O1369  O     0.49999   0.53960   0.68513   0.00000  Uiso   1.00
O1370  O     0.50001   0.46040   0.81487   0.00000  Uiso   1.00
O1371  O     0.50001   0.53960   0.81487   0.00000  Uiso   1.00
O1372  O     0.49999   0.46040   0.68513   0.00000  Uiso   1.00
C1373  C     0.75404   0.49944   0.75127   0.00000  Uiso   1.00
C1374  C     0.70930   0.49832   0.75305   0.00000  Uiso   1.00
C1375  C     0.80969   0.35784   0.72030   0.00000  Uiso   1.00
C1376  C     0.85698   0.64216   0.77970   0.00000  Uiso   1.00
C1377  C     0.85714   0.35842   0.77956   0.00000  Uiso   1.00
C1378  C     0.80953   0.64158   0.72044   0.00000  Uiso   1.00
C1379  C     0.83351   0.50029   0.66449   0.00000  Uiso   1.00
C1380  C     0.83316   0.49971   0.83551   0.00000  Uiso   1.00
C1381  C     0.86519   0.52274   0.90675   0.00000  Uiso   1.00
C1382  C     0.80148   0.47726   0.59325   0.00000  Uiso   1.00
C1383  C     0.83369   0.49874   0.88376   0.00000  Uiso   1.00
C1384  C     0.91263   0.50056   0.74872   0.00000  Uiso   1.00
C1385  C     0.83298   0.50126   0.61624   0.00000  Uiso   1.00
C1386  C     0.80297   0.47360   0.90634   0.00000  Uiso   1.00
C1387  C     0.86371   0.52639   0.59366   0.00000  Uiso   1.00
C1388  C     0.80194   0.47538   0.95296   0.00000  Uiso   1.00
C1389  C     0.86473   0.52460   0.54704   0.00000  Uiso   1.00
C1390  C     0.83341   0.49974   0.97655   0.00000  Uiso   1.00
C1391  C     0.83326   0.50024   0.52345   0.00000  Uiso   1.00
C1392  C     0.86527   0.52318   0.95344   0.00000  Uiso   1.00
C1393  C     0.80141   0.47681   0.54656   0.00000  Uiso   1.00
C1394  C     0.77027   0.45323   0.97654   0.00000  Uiso   1.00
C1395  C     0.76992   0.45407   0.52242   0.00000  Uiso   1.00
C1396  C     0.89641   0.54675   0.52346   0.00000  Uiso   1.00
C1397  C     0.93153   0.51381   0.87436   0.00000  Uiso   1.00
C1398  C     0.73514   0.48623   0.62562   0.00000  Uiso   1.00
C1399  C     0.78104   0.39720   0.87991   0.00000  Uiso   1.00
C1400  C     0.88564   0.60279   0.62008   0.00000  Uiso   1.00
C1401  C     0.70954   0.38319   0.76152   0.00000  Uiso   1.00
C1402  C     0.95712   0.61680   0.73843   0.00000  Uiso   1.00
C1403  C     0.94468   0.43312   0.66451   0.00000  Uiso   1.00
C1404  C     0.72191   0.56693   0.83549   0.00000  Uiso   1.00
C1405  C     0.89675   0.54592   0.97758   0.00000  Uiso   1.00
C1406  C     0.68675   0.45902   0.73691   0.00000  Uiso   1.00
C1407  C     0.97991   0.54098   0.76307   0.00000  Uiso   1.00
C1408  C     0.97758   0.46172   0.73176   0.00000  Uiso   1.00
C1409  C     0.68909   0.53828   0.76822   0.00000  Uiso   1.00
C1410  C     0.95736   0.50169   0.74693   0.00000  Uiso   1.00
Cu1411 Cu    0.83333   0.54689   0.75000   0.00000  Uiso   1.00
Cu1412 Cu    0.83333   0.45311   0.75000   0.00000  Uiso   1.00
F1413  F     0.78595   0.38080   0.69041   0.00000  Uiso   1.00
F1414  F     0.88072   0.61920   0.80959   0.00000  Uiso   1.00
F1415  F     0.88140   0.38199   0.80898   0.00000  Uiso   1.00
F1416  F     0.78527   0.61801   0.69102   0.00000  Uiso   1.00
H1417  H     0.74519   0.43502   0.95997   0.00000  Uiso   1.00
H1418  H     0.72077   0.49733   0.59373   0.00000  Uiso   1.00
H1419  H     0.74563   0.51771   0.64438   0.00000  Uiso   1.00
H1420  H     0.71178   0.46733   0.64541   0.00000  Uiso   1.00
H1421  H     0.74333   0.45467   0.88819   0.00000  Uiso   1.00
H1422  H     0.77916   0.38115   0.91345   0.00000  Uiso   1.00
H1423  H     0.81185   0.39087   0.86646   0.00000  Uiso   1.00
H1424  H     0.75795   0.37965   0.85813   0.00000  Uiso   1.00
H1425  H     0.92334   0.54531   0.61181   0.00000  Uiso   1.00
H1426  H     0.88752   0.61883   0.58654   0.00000  Uiso   1.00
H1427  H     0.90875   0.62034   0.64185   0.00000  Uiso   1.00
H1428  H     0.92149   0.56496   0.54003   0.00000  Uiso   1.00
H1429  H     0.85484   0.60913   0.63354   0.00000  Uiso   1.00
H1430  H     0.69735   0.40207   0.69600   0.00000  Uiso   1.00
H1431  H     0.72665   0.35220   0.75064   0.00000  Uiso   1.00
H1432  H     0.67861   0.37135   0.77198   0.00000  Uiso   1.00
H1433  H     0.72591   0.39898   0.79036   0.00000  Uiso   1.00
H1434  H     0.96933   0.59797   0.80394   0.00000  Uiso   1.00
H1435  H     0.98805   0.62865   0.72797   0.00000  Uiso   1.00
H1436  H     0.93999   0.64779   0.74928   0.00000  Uiso   1.00
H1437  H     0.94076   0.60098   0.70959   0.00000  Uiso   1.00
H1438  H     0.96484   0.39110   0.71671   0.00000  Uiso   1.00
H1439  H     0.74445   0.43670   0.53847   0.00000  Uiso   1.00
H1440  H     0.97288   0.43459   0.64446   0.00000  Uiso   1.00
H1441  H     0.92811   0.46656   0.66053   0.00000  Uiso   1.00
H1442  H     0.92449   0.40427   0.65200   0.00000  Uiso   1.00
H1443  H     0.70186   0.60890   0.78321   0.00000  Uiso   1.00
H1444  H     0.69370   0.56577   0.85553   0.00000  Uiso   1.00
H1445  H     0.74230   0.59567   0.84793   0.00000  Uiso   1.00
H1446  H     0.73827   0.53335   0.83956   0.00000  Uiso   1.00
H1447  H     0.92222   0.56328   0.96153   0.00000  Uiso   1.00
H1448  H     0.90606   0.57757   0.89206   0.00000  Uiso   1.00
H1449  H     0.94589   0.50268   0.90624   0.00000  Uiso   1.00
H1450  H     0.95489   0.53273   0.85458   0.00000  Uiso   1.00
H1451  H     0.92104   0.48234   0.85558   0.00000  Uiso   1.00
H1452  H     0.76060   0.42245   0.60796   0.00000  Uiso   1.00
N1453  N     0.83333   0.61736   0.75000   0.00000  Uiso   1.00
N1454  N     0.71177   0.57541   0.78933   0.00000  Uiso   1.00
N1455  N     0.83333   0.38264   0.75000   0.00000  Uiso   1.00
N1456  N     0.89751   0.54424   0.88222   0.00000  Uiso   1.00
N1457  N     0.76915   0.45578   0.61778   0.00000  Uiso   1.00
N1458  N     0.77329   0.44702   0.88150   0.00000  Uiso   1.00
N1459  N     0.89339   0.55297   0.61850   0.00000  Uiso   1.00
N1460  N     0.70685   0.41692   0.72554   0.00000  Uiso   1.00
N1461  N     0.95982   0.58309   0.77443   0.00000  Uiso   1.00
N1462  N     0.95490   0.42460   0.71065   0.00000  Uiso   1.00
O1463  O     0.77321   0.53958   0.74999   0.00000  Uiso   1.00
O1464  O     0.89345   0.46042   0.75001   0.00000  Uiso   1.00
O1465  O     0.89345   0.53958   0.75001   0.00000  Uiso   1.00
O1466  O     0.77321   0.46042   0.74999   0.00000  Uiso   1.00
O1467  O     0.83332   0.53960   0.68513   0.00000  Uiso   1.00
O1468  O     0.83334   0.46040   0.81487   0.00000  Uiso   1.00
O1469  O     0.83334   0.53960   0.81487   0.00000  Uiso   1.00
O1470  O     0.83332   0.46040   0.68513   0.00000  Uiso   1.00
C1471  C     0.08737   0.83278   0.75127   0.00000  Uiso   1.00
C1472  C     0.04264   0.83165   0.75305   0.00000  Uiso   1.00
C1473  C     0.14302   0.69117   0.72030   0.00000  Uiso   1.00
C1474  C     0.19031   0.97549   0.77970   0.00000  Uiso   1.00
C1475  C     0.19047   0.69175   0.77956   0.00000  Uiso   1.00
C1476  C     0.14286   0.97491   0.72044   0.00000  Uiso   1.00
C1477  C     0.16684   0.83363   0.66449   0.00000  Uiso   1.00
C1478  C     0.16649   0.83304   0.83551   0.00000  Uiso   1.00
C1479  C     0.19852   0.85607   0.90675   0.00000  Uiso   1.00
C1480  C     0.13481   0.81060   0.59325   0.00000  Uiso   1.00
C1481  C     0.16702   0.83207   0.88376   0.00000  Uiso   1.00
C1482  C     0.24596   0.83389   0.74872   0.00000  Uiso   1.00
C1483  C     0.16631   0.83459   0.61624   0.00000  Uiso   1.00
C1484  C     0.13630   0.80693   0.90634   0.00000  Uiso   1.00
C1485  C     0.19704   0.85973   0.59366   0.00000  Uiso   1.00
C1486  C     0.13528   0.80872   0.95296   0.00000  Uiso   1.00
C1487  C     0.19806   0.85794   0.54704   0.00000  Uiso   1.00
C1488  C     0.16675   0.83308   0.97655   0.00000  Uiso   1.00
C1489  C     0.16659   0.83358   0.52345   0.00000  Uiso   1.00
C1490  C     0.19860   0.85651   0.95344   0.00000  Uiso   1.00
C1491  C     0.13474   0.81014   0.54656   0.00000  Uiso   1.00
C1492  C     0.10360   0.78656   0.97654   0.00000  Uiso   1.00
C1493  C     0.10325   0.78740   0.52242   0.00000  Uiso   1.00
C1494  C     0.22974   0.88008   0.52346   0.00000  Uiso   1.00
C1495  C     0.26486   0.84714   0.87436   0.00000  Uiso   1.00
C1496  C     0.06847   0.81956   0.62562   0.00000  Uiso   1.00
C1497  C     0.11438   0.73053   0.87991   0.00000  Uiso   1.00
C1498  C     0.21897   0.93612   0.62008   0.00000  Uiso   1.00
C1499  C     0.04288   0.71653   0.76152   0.00000  Uiso   1.00
C1500  C     0.29045   0.95013   0.73843   0.00000  Uiso   1.00
C1501  C     0.27802   0.76646   0.66451   0.00000  Uiso   1.00
C1502  C     0.05525   0.90027   0.83549   0.00000  Uiso   1.00
C1503  C     0.23009   0.87925   0.97758   0.00000  Uiso   1.00
C1504  C     0.02009   0.79236   0.73691   0.00000  Uiso   1.00
C1505  C     0.31324   0.87431   0.76307   0.00000  Uiso   1.00
C1506  C     0.31091   0.79506   0.73176   0.00000  Uiso   1.00
C1507  C     0.02242   0.87161   0.76822   0.00000  Uiso   1.00
C1508  C     0.29069   0.83502   0.74693   0.00000  Uiso   1.00
Cu1509 Cu    0.16667   0.88022   0.75000   0.00000  Uiso   1.00
Cu1510 Cu    0.16667   0.78645   0.75000   0.00000  Uiso   1.00
F1511  F     0.11928   0.71413   0.69041   0.00000  Uiso   1.00
F1512  F     0.21405   0.95253   0.80959   0.00000  Uiso   1.00
F1513  F     0.21473   0.71532   0.80898   0.00000  Uiso   1.00
F1514  F     0.11860   0.95135   0.69102   0.00000  Uiso   1.00
H1515  H     0.07852   0.76836   0.95997   0.00000  Uiso   1.00
H1516  H     0.05410   0.83066   0.59373   0.00000  Uiso   1.00
H1517  H     0.07897   0.85104   0.64438   0.00000  Uiso   1.00
H1518  H     0.04511   0.80066   0.64541   0.00000  Uiso   1.00
H1519  H     0.07666   0.78800   0.88819   0.00000  Uiso   1.00
H1520  H     0.11249   0.71448   0.91345   0.00000  Uiso   1.00
H1521  H     0.14518   0.72420   0.86646   0.00000  Uiso   1.00
H1522  H     0.09128   0.71298   0.85813   0.00000  Uiso   1.00
H1523  H     0.25668   0.87865   0.61181   0.00000  Uiso   1.00
H1524  H     0.22085   0.95217   0.58654   0.00000  Uiso   1.00
H1525  H     0.24208   0.95368   0.64185   0.00000  Uiso   1.00
H1526  H     0.25483   0.89829   0.54003   0.00000  Uiso   1.00
H1527  H     0.18817   0.94246   0.63354   0.00000  Uiso   1.00
H1528  H     0.03068   0.73540   0.69600   0.00000  Uiso   1.00
H1529  H     0.05999   0.68553   0.75064   0.00000  Uiso   1.00
H1530  H     0.01194   0.70469   0.77198   0.00000  Uiso   1.00
H1531  H     0.05925   0.73231   0.79036   0.00000  Uiso   1.00
H1532  H     0.30266   0.93130   0.80394   0.00000  Uiso   1.00
H1533  H     0.32138   0.96198   0.72797   0.00000  Uiso   1.00
H1534  H     0.27332   0.98112   0.74928   0.00000  Uiso   1.00
H1535  H     0.27409   0.93432   0.70959   0.00000  Uiso   1.00
H1536  H     0.29817   0.72444   0.71671   0.00000  Uiso   1.00
H1537  H     0.07778   0.77003   0.53847   0.00000  Uiso   1.00
H1538  H     0.30621   0.76793   0.64446   0.00000  Uiso   1.00
H1539  H     0.26145   0.79990   0.66053   0.00000  Uiso   1.00
H1540  H     0.25782   0.73761   0.65200   0.00000  Uiso   1.00
H1541  H     0.03520   0.94223   0.78321   0.00000  Uiso   1.00
H1542  H     0.02703   0.89911   0.85553   0.00000  Uiso   1.00
H1543  H     0.07563   0.92900   0.84793   0.00000  Uiso   1.00
H1544  H     0.07160   0.86669   0.83956   0.00000  Uiso   1.00
H1545  H     0.25556   0.89662   0.96153   0.00000  Uiso   1.00
H1546  H     0.23939   0.91091   0.89206   0.00000  Uiso   1.00
H1547  H     0.27922   0.83602   0.90624   0.00000  Uiso   1.00
H1548  H     0.28822   0.86606   0.85458   0.00000  Uiso   1.00
H1549  H     0.25438   0.81567   0.85558   0.00000  Uiso   1.00
H1550  H     0.09393   0.75578   0.60796   0.00000  Uiso   1.00
N1551  N     0.16667   0.95069   0.75000   0.00000  Uiso   1.00
N1552  N     0.04510   0.90874   0.78933   0.00000  Uiso   1.00
N1553  N     0.16667   0.71598   0.75000   0.00000  Uiso   1.00
N1554  N     0.23084   0.87758   0.88222   0.00000  Uiso   1.00
N1555  N     0.10248   0.78911   0.61778   0.00000  Uiso   1.00
N1556  N     0.10662   0.78035   0.88150   0.00000  Uiso   1.00
N1557  N     0.22672   0.88630   0.61850   0.00000  Uiso   1.00
N1558  N     0.04019   0.75025   0.72554   0.00000  Uiso   1.00
N1559  N     0.29315   0.91643   0.77443   0.00000  Uiso   1.00
N1560  N     0.28824   0.75793   0.71065   0.00000  Uiso   1.00
O1561  O     0.10655   0.87291   0.74999   0.00000  Uiso   1.00
O1562  O     0.22679   0.79375   0.75001   0.00000  Uiso   1.00
O1563  O     0.22679   0.87291   0.75001   0.00000  Uiso   1.00
O1564  O     0.10655   0.79375   0.74999   0.00000  Uiso   1.00
O1565  O     0.16666   0.87293   0.68513   0.00000  Uiso   1.00
O1566  O     0.16668   0.79373   0.81487   0.00000  Uiso   1.00
O1567  O     0.16668   0.87293   0.81487   0.00000  Uiso   1.00
O1568  O     0.16666   0.79373   0.68513   0.00000  Uiso   1.00
C1569  C     0.42070   0.83278   0.75127   0.00000  Uiso   1.00
C1570  C     0.37597   0.83165   0.75305   0.00000  Uiso   1.00
C1571  C     0.47635   0.69117   0.72030   0.00000  Uiso   1.00
C1572  C     0.52365   0.97549   0.77970   0.00000  Uiso   1.00
C1573  C     0.52381   0.69175   0.77956   0.00000  Uiso   1.00
C1574  C     0.47619   0.97491   0.72044   0.00000  Uiso   1.00
C1575  C     0.50017   0.83363   0.66449   0.00000  Uiso   1.00
C1576  C     0.49983   0.83304   0.83551   0.00000  Uiso   1.00
C1577  C     0.53185   0.85607   0.90675   0.00000  Uiso   1.00
C1578  C     0.46815   0.81060   0.59325   0.00000  Uiso   1.00
C1579  C     0.50036   0.83207   0.88376   0.00000  Uiso   1.00
C1580  C     0.57929   0.83389   0.74872   0.00000  Uiso   1.00
C1581  C     0.49964   0.83459   0.61624   0.00000  Uiso   1.00
C1582  C     0.46963   0.80693   0.90634   0.00000  Uiso   1.00
C1583  C     0.53037   0.85973   0.59366   0.00000  Uiso   1.00
C1584  C     0.46861   0.80872   0.95296   0.00000  Uiso   1.00
C1585  C     0.53140   0.85794   0.54704   0.00000  Uiso   1.00
C1586  C     0.50008   0.83308   0.97655   0.00000  Uiso   1.00
C1587  C     0.49993   0.83358   0.52345   0.00000  Uiso   1.00
C1588  C     0.53193   0.85651   0.95344   0.00000  Uiso   1.00
C1589  C     0.46807   0.81014   0.54656   0.00000  Uiso   1.00
C1590  C     0.43693   0.78656   0.97654   0.00000  Uiso   1.00
C1591  C     0.43659   0.78740   0.52242   0.00000  Uiso   1.00
C1592  C     0.56308   0.88008   0.52346   0.00000  Uiso   1.00
C1593  C     0.59819   0.84714   0.87436   0.00000  Uiso   1.00
C1594  C     0.40181   0.81956   0.62562   0.00000  Uiso   1.00
C1595  C     0.44771   0.73053   0.87991   0.00000  Uiso   1.00
C1596  C     0.55231   0.93612   0.62008   0.00000  Uiso   1.00
C1597  C     0.37621   0.71653   0.76152   0.00000  Uiso   1.00
C1598  C     0.62378   0.95013   0.73843   0.00000  Uiso   1.00
C1599  C     0.61135   0.76646   0.66451   0.00000  Uiso   1.00
C1600  C     0.38858   0.90027   0.83549   0.00000  Uiso   1.00
C1601  C     0.56342   0.87925   0.97758   0.00000  Uiso   1.00
C1602  C     0.35342   0.79236   0.73691   0.00000  Uiso   1.00
C1603  C     0.64658   0.87431   0.76307   0.00000  Uiso   1.00
C1604  C     0.64425   0.79506   0.73176   0.00000  Uiso   1.00
C1605  C     0.35575   0.87161   0.76822   0.00000  Uiso   1.00
C1606  C     0.62403   0.83502   0.74693   0.00000  Uiso   1.00
Cu1607 Cu    0.50000   0.88022   0.75000   0.00000  Uiso   1.00
Cu1608 Cu    0.50000   0.78645   0.75000   0.00000  Uiso   1.00
F1609  F     0.45262   0.71413   0.69041   0.00000  Uiso   1.00
F1610  F     0.54739   0.95253   0.80959   0.00000  Uiso   1.00
F1611  F     0.54806   0.71532   0.80898   0.00000  Uiso   1.00
F1612  F     0.45194   0.95135   0.69102   0.00000  Uiso   1.00
H1613  H     0.41185   0.76836   0.95997   0.00000  Uiso   1.00
H1614  H     0.38744   0.83066   0.59373   0.00000  Uiso   1.00
H1615  H     0.41230   0.85104   0.64438   0.00000  Uiso   1.00
H1616  H     0.37845   0.80066   0.64541   0.00000  Uiso   1.00
H1617  H     0.40999   0.78800   0.88819   0.00000  Uiso   1.00
H1618  H     0.44582   0.71448   0.91345   0.00000  Uiso   1.00
H1619  H     0.47852   0.72420   0.86646   0.00000  Uiso   1.00
H1620  H     0.42461   0.71298   0.85813   0.00000  Uiso   1.00
H1621  H     0.59001   0.87865   0.61181   0.00000  Uiso   1.00
H1622  H     0.55418   0.95217   0.58654   0.00000  Uiso   1.00
H1623  H     0.57541   0.95368   0.64185   0.00000  Uiso   1.00
H1624  H     0.58816   0.89829   0.54003   0.00000  Uiso   1.00
H1625  H     0.52151   0.94246   0.63354   0.00000  Uiso   1.00
H1626  H     0.36402   0.73540   0.69600   0.00000  Uiso   1.00
H1627  H     0.39332   0.68553   0.75064   0.00000  Uiso   1.00
H1628  H     0.34528   0.70469   0.77198   0.00000  Uiso   1.00
H1629  H     0.39258   0.73231   0.79036   0.00000  Uiso   1.00
H1630  H     0.63599   0.93130   0.80394   0.00000  Uiso   1.00
H1631  H     0.65471   0.96198   0.72797   0.00000  Uiso   1.00
H1632  H     0.60666   0.98112   0.74928   0.00000  Uiso   1.00
H1633  H     0.60743   0.93432   0.70959   0.00000  Uiso   1.00
H1634  H     0.63150   0.72444   0.71671   0.00000  Uiso   1.00
H1635  H     0.41112   0.77003   0.53847   0.00000  Uiso   1.00
H1636  H     0.63954   0.76793   0.64446   0.00000  Uiso   1.00
H1637  H     0.59478   0.79990   0.66053   0.00000  Uiso   1.00
H1638  H     0.59115   0.73761   0.65200   0.00000  Uiso   1.00
H1639  H     0.36853   0.94223   0.78321   0.00000  Uiso   1.00
H1640  H     0.36037   0.89911   0.85553   0.00000  Uiso   1.00
H1641  H     0.40896   0.92900   0.84793   0.00000  Uiso   1.00
H1642  H     0.40494   0.86669   0.83956   0.00000  Uiso   1.00
H1643  H     0.58889   0.89662   0.96153   0.00000  Uiso   1.00
H1644  H     0.57272   0.91091   0.89206   0.00000  Uiso   1.00
H1645  H     0.61256   0.83602   0.90624   0.00000  Uiso   1.00
H1646  H     0.62155   0.86606   0.85458   0.00000  Uiso   1.00
H1647  H     0.58771   0.81567   0.85558   0.00000  Uiso   1.00
H1648  H     0.42726   0.75578   0.60796   0.00000  Uiso   1.00
N1649  N     0.50000   0.95069   0.75000   0.00000  Uiso   1.00
N1650  N     0.37843   0.90874   0.78933   0.00000  Uiso   1.00
N1651  N     0.50000   0.71598   0.75000   0.00000  Uiso   1.00
N1652  N     0.56418   0.87758   0.88222   0.00000  Uiso   1.00
N1653  N     0.43582   0.78911   0.61778   0.00000  Uiso   1.00
N1654  N     0.43995   0.78035   0.88150   0.00000  Uiso   1.00
N1655  N     0.56005   0.88630   0.61850   0.00000  Uiso   1.00
N1656  N     0.37352   0.75025   0.72554   0.00000  Uiso   1.00
N1657  N     0.62648   0.91643   0.77443   0.00000  Uiso   1.00
N1658  N     0.62157   0.75793   0.71065   0.00000  Uiso   1.00
O1659  O     0.43988   0.87291   0.74999   0.00000  Uiso   1.00
O1660  O     0.56012   0.79375   0.75001   0.00000  Uiso   1.00
O1661  O     0.56012   0.87291   0.75001   0.00000  Uiso   1.00
O1662  O     0.43988   0.79375   0.74999   0.00000  Uiso   1.00
O1663  O     0.49999   0.87293   0.68513   0.00000  Uiso   1.00
O1664  O     0.50001   0.79373   0.81487   0.00000  Uiso   1.00
O1665  O     0.50001   0.87293   0.81487   0.00000  Uiso   1.00
O1666  O     0.49999   0.79373   0.68513   0.00000  Uiso   1.00
C1667  C     0.75404   0.83278   0.75127   0.00000  Uiso   1.00
C1668  C     0.70930   0.83165   0.75305   0.00000  Uiso   1.00
C1669  C     0.80969   0.69117   0.72030   0.00000  Uiso   1.00
C1670  C     0.85698   0.97549   0.77970   0.00000  Uiso   1.00
C1671  C     0.85714   0.69175   0.77956   0.00000  Uiso   1.00
C1672  C     0.80953   0.97491   0.72044   0.00000  Uiso   1.00
C1673  C     0.83351   0.83363   0.66449   0.00000  Uiso   1.00
C1674  C     0.83316   0.83304   0.83551   0.00000  Uiso   1.00
C1675  C     0.86519   0.85607   0.90675   0.00000  Uiso   1.00
C1676  C     0.80148   0.81060   0.59325   0.00000  Uiso   1.00
C1677  C     0.83369   0.83207   0.88376   0.00000  Uiso   1.00
C1678  C     0.91263   0.83389   0.74872   0.00000  Uiso   1.00
C1679  C     0.83298   0.83459   0.61624   0.00000  Uiso   1.00
C1680  C     0.80297   0.80693   0.90634   0.00000  Uiso   1.00
C1681  C     0.86371   0.85973   0.59366   0.00000  Uiso   1.00
C1682  C     0.80194   0.80872   0.95296   0.00000  Uiso   1.00
C1683  C     0.86473   0.85794   0.54704   0.00000  Uiso   1.00
C1684  C     0.83341   0.83308   0.97655   0.00000  Uiso   1.00
C1685  C     0.83326   0.83358   0.52345   0.00000  Uiso   1.00
C1686  C     0.86527   0.85651   0.95344   0.00000  Uiso   1.00
C1687  C     0.80141   0.81014   0.54656   0.00000  Uiso   1.00
C1688  C     0.77027   0.78656   0.97654   0.00000  Uiso   1.00
C1689  C     0.76992   0.78740   0.52242   0.00000  Uiso   1.00
C1690  C     0.89641   0.88008   0.52346   0.00000  Uiso   1.00
C1691  C     0.93153   0.84714   0.87436   0.00000  Uiso   1.00
C1692  C     0.73514   0.81956   0.62562   0.00000  Uiso   1.00
C1693  C     0.78104   0.73053   0.87991   0.00000  Uiso   1.00
C1694  C     0.88564   0.93612   0.62008   0.00000  Uiso   1.00
C1695  C     0.70954   0.71653   0.76152   0.00000  Uiso   1.00
C1696  C     0.95712   0.95013   0.73843   0.00000  Uiso   1.00
C1697  C     0.94468   0.76646   0.66451   0.00000  Uiso   1.00
C1698  C     0.72191   0.90027   0.83549   0.00000  Uiso   1.00
C1699  C     0.89675   0.87925   0.97758   0.00000  Uiso   1.00
C1700  C     0.68675   0.79236   0.73691   0.00000  Uiso   1.00
C1701  C     0.97991   0.87431   0.76307   0.00000  Uiso   1.00
C1702  C     0.97758   0.79506   0.73176   0.00000  Uiso   1.00
C1703  C     0.68909   0.87161   0.76822   0.00000  Uiso   1.00
C1704  C     0.95736   0.83502   0.74693   0.00000  Uiso   1.00
Cu1705 Cu    0.83333   0.88022   0.75000   0.00000  Uiso   1.00
Cu1706 Cu    0.83333   0.78645   0.75000   0.00000  Uiso   1.00
F1707  F     0.78595   0.71413   0.69041   0.00000  Uiso   1.00
F1708  F     0.88072   0.95253   0.80959   0.00000  Uiso   1.00
F1709  F     0.88140   0.71532   0.80898   0.00000  Uiso   1.00
F1710  F     0.78527   0.95135   0.69102   0.00000  Uiso   1.00
H1711  H     0.74519   0.76836   0.95997   0.00000  Uiso   1.00
H1712  H     0.72077   0.83066   0.59373   0.00000  Uiso   1.00
H1713  H     0.74563   0.85104   0.64438   0.00000  Uiso   1.00
H1714  H     0.71178   0.80066   0.64541   0.00000  Uiso   1.00
H1715  H     0.74333   0.78800   0.88819   0.00000  Uiso   1.00
H1716  H     0.77916   0.71448   0.91345   0.00000  Uiso   1.00
H1717  H     0.81185   0.72420   0.86646   0.00000  Uiso   1.00
H1718  H     0.75795   0.71298   0.85813   0.00000  Uiso   1.00
H1719  H     0.92334   0.87865   0.61181   0.00000  Uiso   1.00
H1720  H     0.88752   0.95217   0.58654   0.00000  Uiso   1.00
H1721  H     0.90875   0.95368   0.64185   0.00000  Uiso   1.00
H1722  H     0.92149   0.89829   0.54003   0.00000  Uiso   1.00
H1723  H     0.85484   0.94246   0.63354   0.00000  Uiso   1.00
H1724  H     0.69735   0.73540   0.69600   0.00000  Uiso   1.00
H1725  H     0.72665   0.68553   0.75064   0.00000  Uiso   1.00
H1726  H     0.67861   0.70469   0.77198   0.00000  Uiso   1.00
H1727  H     0.72591   0.73231   0.79036   0.00000  Uiso   1.00
H1728  H     0.96933   0.93130   0.80394   0.00000  Uiso   1.00
H1729  H     0.98805   0.96198   0.72797   0.00000  Uiso   1.00
H1730  H     0.93999   0.98112   0.74928   0.00000  Uiso   1.00
H1731  H     0.94076   0.93432   0.70959   0.00000  Uiso   1.00
H1732  H     0.96484   0.72444   0.71671   0.00000  Uiso   1.00
H1733  H     0.74445   0.77003   0.53847   0.00000  Uiso   1.00
H1734  H     0.97288   0.76793   0.64446   0.00000  Uiso   1.00
H1735  H     0.92811   0.79990   0.66053   0.00000  Uiso   1.00
H1736  H     0.92449   0.73761   0.65200   0.00000  Uiso   1.00
H1737  H     0.70186   0.94223   0.78321   0.00000  Uiso   1.00
H1738  H     0.69370   0.89911   0.85553   0.00000  Uiso   1.00
H1739  H     0.74230   0.92900   0.84793   0.00000  Uiso   1.00
H1740  H     0.73827   0.86669   0.83956   0.00000  Uiso   1.00
H1741  H     0.92222   0.89662   0.96153   0.00000  Uiso   1.00
H1742  H     0.90606   0.91091   0.89206   0.00000  Uiso   1.00
H1743  H     0.94589   0.83602   0.90624   0.00000  Uiso   1.00
H1744  H     0.95489   0.86606   0.85458   0.00000  Uiso   1.00
H1745  H     0.92104   0.81567   0.85558   0.00000  Uiso   1.00
H1746  H     0.76060   0.75578   0.60796   0.00000  Uiso   1.00
N1747  N     0.83333   0.95069   0.75000   0.00000  Uiso   1.00
N1748  N     0.71177   0.90874   0.78933   0.00000  Uiso   1.00
N1749  N     0.83333   0.71598   0.75000   0.00000  Uiso   1.00
N1750  N     0.89751   0.87758   0.88222   0.00000  Uiso   1.00
N1751  N     0.76915   0.78911   0.61778   0.00000  Uiso   1.00
N1752  N     0.77329   0.78035   0.88150   0.00000  Uiso   1.00
N1753  N     0.89339   0.88630   0.61850   0.00000  Uiso   1.00
N1754  N     0.70685   0.75025   0.72554   0.00000  Uiso   1.00
N1755  N     0.95982   0.91643   0.77443   0.00000  Uiso   1.00
N1756  N     0.95490   0.75793   0.71065   0.00000  Uiso   1.00
O1757  O     0.77321   0.87291   0.74999   0.00000  Uiso   1.00
O1758  O     0.89345   0.79375   0.75001   0.00000  Uiso   1.00
O1759  O     0.89345   0.87291   0.75001   0.00000  Uiso   1.00
O1760  O     0.77321   0.79375   0.74999   0.00000  Uiso   1.00
O1761  O     0.83332   0.87293   0.68513   0.00000  Uiso   1.00
O1762  O     0.83334   0.79373   0.81487   0.00000  Uiso   1.00
O1763  O     0.83334   0.87293   0.81487   0.00000  Uiso   1.00
O1764  O     0.83332   0.79373   0.68513   0.00000  Uiso   1.00
loop_
_geom_bond_atom_site_label_1
_geom_bond_atom_site_label_2
_geom_bond_distance
_geom_bond_site_symmetry_2
_ccdc_geom_bond_type
C1     C2      1.464   .     S
C1     O94     1.289   .     A
C1     O91     1.296   .     A
C2     C34     1.416   .     A
C2     C37     1.411   .     A
C3     N83     1.367   .     A
C3     F41     1.354   .     S
C3     C594    1.414   1_545 S
C4     N81     1.367   .     A
C4     F42     1.354   .     S
C4     C299    1.414   .     S
C5     N83     1.367   .     A
C5     F43     1.355   .     S
C5     C592    1.414   1_545 S
C6     N81     1.367   .     A
C6     F44     1.355   .     S
C6     C297    1.414   .     S
C7     O98     1.293   .     A
C7     C13     1.456   .     S
C7     O95     1.287   .     A
C8     O96     1.287   .     A
C8     C11     1.456   .     S
C8     O97     1.293   .     A
C9     C20     1.409   .     A
C9     C11     1.403   .     A
C9     N84     1.427   .     S
C10    N85     1.427   .     S
C10    C21     1.409   .     A
C10    C13     1.403   .     A
C11    C14     1.406   .     A
C12    O92     1.296   .     A
C12    C38     1.464   .     S
C12    O93     1.289   .     A
C13    C15     1.406   .     A
C14    N86     1.427   .     S
C14    C16     1.409   .     A
C15    N87     1.427   .     S
C15    C17     1.409   .     A
C16    C22     1.404   .     A
C16    C18     1.417   .     A
C17    C24     1.404   .     A
C17    C19     1.417   .     A
C18    C20     1.417   .     A
C18    C901    1.416   .     S
C19    C21     1.417   .     A
C19    C900    1.416   1_554 S
C20    C33     1.404   .     A
C21    C23     1.404   .     A
C22    H45     1.081   .     S
C22    C905    1.385   .     S
C23    H67     1.081   .     S
C23    C904    1.385   1_554 S
C24    H56     1.081   .     S
C24    C915    1.385   1_554 S
C25    H77     1.111   .     S
C25    N84     1.447   .     S
C25    H78     1.107   .     S
C25    H79     1.111   .     S
C26    H48     1.107   .     S
C26    H47     1.111   .     S
C26    N85     1.447   .     S
C26    H46     1.111   .     S
C27    H50     1.110   .     S
C27    H51     1.110   .     S
C27    N86     1.449   .     S
C27    H52     1.108   .     S
C28    H57     1.110   .     S
C28    H55     1.108   .     S
C28    H54     1.110   .     S
C28    N87     1.449   .     S
C29    N88     1.448   .     S
C29    H59     1.109   .     S
C29    H61     1.109   .     S
C29    H60     1.110   .     S
C30    H64     1.109   .     S
C30    H63     1.110   .     S
C30    N89     1.448   .     S
C30    H65     1.109   .     S
C31    H70     1.110   .     S
C31    H68     1.110   .     S
C31    N90     1.447   .     S
C31    H69     1.110   .     S
C32    H74     1.111   .     S
C32    H72     1.111   .     S
C32    H73     1.111   .     S
C32    N82     1.447   .     S
C33    H75     1.081   .     S
C33    C906    1.385   .     S
C34    N88     1.426   .     S
C34    C232    1.400   1_455 S
C35    C38     1.416   .     A
C35    N89     1.426   .     S
C35    C135    1.400   .     S
C36    N90     1.430   .     S
C36    C38     1.411   .     A
C36    C132    1.400   .     S
C37    N82     1.430   .     S
C37    C231    1.400   1_455 S
Cu39   O97     1.967   .     S
Cu39   O93     1.981   .     S
Cu39   O91     1.973   .     S
Cu39   N81     2.010   .     S
Cu39   O95     1.970   .     S
Cu39   Cu40    2.675   .     S
Cu40   N83     2.010   .     S
Cu40   O96     1.970   .     S
Cu40   O92     1.973   .     S
Cu40   O94     1.981   .     S
Cu40   O98     1.967   .     S
H49    N86     1.031   .     S
H53    N87     1.031   .     S
H58    N88     1.031   .     S
H62    N89     1.031   .     S
H66    N90     1.029   .     S
H71    N82     1.029   .     S
H76    N84     1.030   .     S
H80    N85     1.030   .     S
C99    C100    1.464   .     S
C99    O192    1.289   .     A
C99    O189    1.296   .     A
C100   C132    1.416   .     A
C100   C135    1.411   .     A
C101   N181    1.367   .     A
C101   F139    1.354   .     S
C101   C692    1.414   1_545 S
C102   N179    1.367   .     A
C102   F140    1.354   .     S
C102   C397    1.414   .     S
C103   N181    1.367   .     A
C103   F141    1.355   .     S
C103   C690    1.414   1_545 S
C104   N179    1.367   .     A
C104   F142    1.355   .     S
C104   C395    1.414   .     S
C105   O196    1.293   .     A
C105   C111    1.456   .     S
C105   O193    1.287   .     A
C106   O194    1.287   .     A
C106   C109    1.456   .     S
C106   O195    1.293   .     A
C107   C118    1.409   .     A
C107   C109    1.403   .     A
C107   N182    1.427   .     S
C108   N183    1.427   .     S
C108   C119    1.409   .     A
C108   C111    1.403   .     A
C109   C112    1.406   .     A
C110   O190    1.296   .     A
C110   C136    1.464   .     S
C110   O191    1.289   .     A
C111   C113    1.406   .     A
C112   N184    1.427   .     S
C112   C114    1.409   .     A
C113   N185    1.427   .     S
C113   C115    1.409   .     A
C114   C120    1.404   .     A
C114   C116    1.417   .     A
C115   C122    1.404   .     A
C115   C117    1.417   .     A
C116   C118    1.417   .     A
C116   C999    1.416   .     S
C117   C119    1.417   .     A
C117   C998    1.416   1_554 S
C118   C131    1.404   .     A
C119   C121    1.404   .     A
C120   H143    1.081   .     S
C120   C1003   1.385   .     S
C121   H165    1.081   .     S
C121   C1002   1.385   1_554 S
C122   H154    1.081   .     S
C122   C1013   1.385   1_554 S
C123   H175    1.111   .     S
C123   N182    1.447   .     S
C123   H176    1.107   .     S
C123   H177    1.111   .     S
C124   H146    1.107   .     S
C124   H145    1.111   .     S
C124   N183    1.447   .     S
C124   H144    1.111   .     S
C125   H148    1.110   .     S
C125   H149    1.110   .     S
C125   N184    1.449   .     S
C125   H150    1.108   .     S
C126   H155    1.110   .     S
C126   H153    1.108   .     S
C126   H152    1.110   .     S
C126   N185    1.449   .     S
C127   N186    1.448   .     S
C127   H157    1.109   .     S
C127   H159    1.109   .     S
C127   H158    1.110   .     S
C128   H162    1.109   .     S
C128   H161    1.110   .     S
C128   N187    1.448   .     S
C128   H163    1.109   .     S
C129   H168    1.110   .     S
C129   H166    1.110   .     S
C129   N188    1.447   .     S
C129   H167    1.110   .     S
C130   H172    1.111   .     S
C130   H170    1.111   .     S
C130   H171    1.111   .     S
C130   N180    1.447   .     S
C131   H173    1.081   .     S
C131   C1004   1.385   .     S
C132   N186    1.426   .     S
C133   C136    1.416   .     A
C133   N187    1.426   .     S
C133   C233    1.400   .     S
C134   N188    1.430   .     S
C134   C136    1.411   .     A
C134   C230    1.400   .     S
C135   N180    1.430   .     S
Cu137  O195    1.967   .     S
Cu137  O191    1.981   .     S
Cu137  O189    1.973   .     S
Cu137  N179    2.010   .     S
Cu137  O193    1.970   .     S
Cu137  Cu138   2.675   .     S
Cu138  N181    2.010   .     S
Cu138  O194    1.970   .     S
Cu138  O190    1.973   .     S
Cu138  O192    1.981   .     S
Cu138  O196    1.967   .     S
H147   N184    1.031   .     S
H151   N185    1.031   .     S
H156   N186    1.031   .     S
H160   N187    1.031   .     S
H164   N188    1.029   .     S
H169   N180    1.029   .     S
H174   N182    1.030   .     S
H178   N183    1.030   .     S
C197   C198    1.464   .     S
C197   O290    1.289   .     A
C197   O287    1.296   .     A
C198   C230    1.416   .     A
C198   C233    1.411   .     A
C199   N279    1.367   .     A
C199   F237    1.354   .     S
C199   C790    1.414   1_545 S
C200   N277    1.367   .     A
C200   F238    1.354   .     S
C200   C495    1.414   .     S
C201   N279    1.367   .     A
C201   F239    1.355   .     S
C201   C788    1.414   1_545 S
C202   N277    1.367   .     A
C202   F240    1.355   .     S
C202   C493    1.414   .     S
C203   O294    1.293   .     A
C203   C209    1.456   .     S
C203   O291    1.287   .     A
C204   O292    1.287   .     A
C204   C207    1.456   .     S
C204   O293    1.293   .     A
C205   C216    1.409   .     A
C205   C207    1.403   .     A
C205   N280    1.427   .     S
C206   N281    1.427   .     S
C206   C217    1.409   .     A
C206   C209    1.403   .     A
C207   C210    1.406   .     A
C208   O288    1.296   .     A
C208   C234    1.464   .     S
C208   O289    1.289   .     A
C209   C211    1.406   .     A
C210   N282    1.427   .     S
C210   C212    1.409   .     A
C211   N283    1.427   .     S
C211   C213    1.409   .     A
C212   C218    1.404   .     A
C212   C214    1.417   .     A
C213   C220    1.404   .     A
C213   C215    1.417   .     A
C214   C216    1.417   .     A
C214   C1097   1.416   .     S
C215   C217    1.417   .     A
C215   C1096   1.416   1_554 S
C216   C229    1.404   .     A
C217   C219    1.404   .     A
C218   H241    1.081   .     S
C218   C1101   1.385   .     S
C219   H263    1.081   .     S
C219   C1100   1.385   1_554 S
C220   H252    1.081   .     S
C220   C1111   1.385   1_554 S
C221   H273    1.111   .     S
C221   N280    1.447   .     S
C221   H274    1.107   .     S
C221   H275    1.111   .     S
C222   H244    1.107   .     S
C222   H243    1.111   .     S
C222   N281    1.447   .     S
C222   H242    1.111   .     S
C223   H246    1.110   .     S
C223   H247    1.110   .     S
C223   N282    1.449   .     S
C223   H248    1.108   .     S
C224   H253    1.110   .     S
C224   H251    1.108   .     S
C224   H250    1.110   .     S
C224   N283    1.449   .     S
C225   N284    1.448   .     S
C225   H255    1.109   .     S
C225   H257    1.109   .     S
C225   H256    1.110   .     S
C226   H260    1.109   .     S
C226   H259    1.110   .     S
C226   N285    1.448   .     S
C226   H261    1.109   .     S
C227   H266    1.110   .     S
C227   H264    1.110   .     S
C227   N286    1.447   .     S
C227   H265    1.110   .     S
C228   H270    1.111   .     S
C228   H268    1.111   .     S
C228   H269    1.111   .     S
C228   N278    1.447   .     S
C229   H271    1.081   .     S
C229   C1102   1.385   .     S
C230   N284    1.426   .     S
C231   C234    1.416   .     A
C231   N285    1.426   .     S
C231   C37     1.400   1_655 S
C232   N286    1.430   .     S
C232   C234    1.411   .     A
C232   C34     1.400   1_655 S
C233   N278    1.430   .     S
Cu235  O293    1.967   .     S
Cu235  O289    1.981   .     S
Cu235  O287    1.973   .     S
Cu235  N277    2.010   .     S
Cu235  O291    1.970   .     S
Cu235  Cu236   2.675   .     S
Cu236  N279    2.010   .     S
Cu236  O292    1.970   .     S
Cu236  O288    1.973   .     S
Cu236  O290    1.981   .     S
Cu236  O294    1.967   .     S
H245   N282    1.031   .     S
H249   N283    1.031   .     S
H254   N284    1.031   .     S
H258   N285    1.031   .     S
H262   N286    1.029   .     S
H267   N278    1.029   .     S
H272   N280    1.030   .     S
H276   N281    1.030   .     S
C295   C296    1.464   .     S
C295   O388    1.289   .     A
C295   O385    1.296   .     A
C296   C328    1.416   .     A
C296   C331    1.411   .     A
C297   N377    1.367   .     A
C297   F335    1.354   .     S
C298   N375    1.367   .     A
C298   F336    1.354   .     S
C298   C593    1.414   .     S
C299   N377    1.367   .     A
C299   F337    1.355   .     S
C300   N375    1.367   .     A
C300   F338    1.355   .     S
C300   C591    1.414   .     S
C301   O392    1.293   .     A
C301   C307    1.456   .     S
C301   O389    1.287   .     A
C302   O390    1.287   .     A
C302   C305    1.456   .     S
C302   O391    1.293   .     A
C303   C314    1.409   .     A
C303   C305    1.403   .     A
C303   N378    1.427   .     S
C304   N379    1.427   .     S
C304   C315    1.409   .     A
C304   C307    1.403   .     A
C305   C308    1.406   .     A
C306   O386    1.296   .     A
C306   C332    1.464   .     S
C306   O387    1.289   .     A
C307   C309    1.406   .     A
C308   N380    1.427   .     S
C308   C310    1.409   .     A
C309   N381    1.427   .     S
C309   C311    1.409   .     A
C310   C316    1.404   .     A
C310   C312    1.417   .     A
C311   C318    1.404   .     A
C311   C313    1.417   .     A
C312   C314    1.417   .     A
C312   C1195   1.416   .     S
C313   C315    1.417   .     A
C313   C1194   1.416   1_554 S
C314   C327    1.404   .     A
C315   C317    1.404   .     A
C316   H339    1.081   .     S
C316   C1199   1.385   .     S
C317   H361    1.081   .     S
C317   C1198   1.385   1_554 S
C318   H350    1.081   .     S
C318   C1209   1.385   1_554 S
C319   H371    1.111   .     S
C319   N378    1.447   .     S
C319   H372    1.107   .     S
C319   H373    1.111   .     S
C320   H342    1.107   .     S
C320   H341    1.111   .     S
C320   N379    1.447   .     S
C320   H340    1.111   .     S
C321   H344    1.110   .     S
C321   H345    1.110   .     S
C321   N380    1.449   .     S
C321   H346    1.108   .     S
C322   H351    1.110   .     S
C322   H349    1.108   .     S
C322   H348    1.110   .     S
C322   N381    1.449   .     S
C323   N382    1.448   .     S
C323   H353    1.109   .     S
C323   H355    1.109   .     S
C323   H354    1.110   .     S
C324   H358    1.109   .     S
C324   H357    1.110   .     S
C324   N383    1.448   .     S
C324   H359    1.109   .     S
C325   H364    1.110   .     S
C325   H362    1.110   .     S
C325   N384    1.447   .     S
C325   H363    1.110   .     S
C326   H368    1.111   .     S
C326   H366    1.111   .     S
C326   H367    1.111   .     S
C326   N376    1.447   .     S
C327   H369    1.081   .     S
C327   C1200   1.385   .     S
C328   N382    1.426   .     S
C328   C526    1.400   1_455 S
C329   C332    1.416   .     A
C329   N383    1.426   .     S
C329   C429    1.400   .     S
C330   N384    1.430   .     S
C330   C332    1.411   .     A
C330   C426    1.400   .     S
C331   N376    1.430   .     S
C331   C525    1.400   1_455 S
Cu333  O391    1.967   .     S
Cu333  O387    1.981   .     S
Cu333  O385    1.973   .     S
Cu333  N375    2.010   .     S
Cu333  O389    1.970   .     S
Cu333  Cu334   2.675   .     S
Cu334  N377    2.010   .     S
Cu334  O390    1.970   .     S
Cu334  O386    1.973   .     S
Cu334  O388    1.981   .     S
Cu334  O392    1.967   .     S
H343   N380    1.031   .     S
H347   N381    1.031   .     S
H352   N382    1.031   .     S
H356   N383    1.031   .     S
H360   N384    1.029   .     S
H365   N376    1.029   .     S
H370   N378    1.030   .     S
H374   N379    1.030   .     S
C393   C394    1.464   .     S
C393   O486    1.289   .     A
C393   O483    1.296   .     A
C394   C426    1.416   .     A
C394   C429    1.411   .     A
C395   N475    1.367   .     A
C395   F433    1.354   .     S
C396   N473    1.367   .     A
C396   F434    1.354   .     S
C396   C691    1.414   .     S
C397   N475    1.367   .     A
C397   F435    1.355   .     S
C398   N473    1.367   .     A
C398   F436    1.355   .     S
C398   C689    1.414   .     S
C399   O490    1.293   .     A
C399   C405    1.456   .     S
C399   O487    1.287   .     A
C400   O488    1.287   .     A
C400   C403    1.456   .     S
C400   O489    1.293   .     A
C401   C412    1.409   .     A
C401   C403    1.403   .     A
C401   N476    1.427   .     S
C402   N477    1.427   .     S
C402   C413    1.409   .     A
C402   C405    1.403   .     A
C403   C406    1.406   .     A
C404   O484    1.296   .     A
C404   C430    1.464   .     S
C404   O485    1.289   .     A
C405   C407    1.406   .     A
C406   N478    1.427   .     S
C406   C408    1.409   .     A
C407   N479    1.427   .     S
C407   C409    1.409   .     A
C408   C414    1.404   .     A
C408   C410    1.417   .     A
C409   C416    1.404   .     A
C409   C411    1.417   .     A
C410   C412    1.417   .     A
C410   C1293   1.416   .     S
C411   C413    1.417   .     A
C411   C1292   1.416   1_554 S
C412   C425    1.404   .     A
C413   C415    1.404   .     A
C414   H437    1.081   .     S
C414   C1297   1.385   .     S
C415   H459    1.081   .     S
C415   C1296   1.385   1_554 S
C416   H448    1.081   .     S
C416   C1307   1.385   1_554 S
C417   H469    1.111   .     S
C417   N476    1.447   .     S
C417   H470    1.107   .     S
C417   H471    1.111   .     S
C418   H440    1.107   .     S
C418   H439    1.111   .     S
C418   N477    1.447   .     S
C418   H438    1.111   .     S
C419   H442    1.110   .     S
C419   H443    1.110   .     S
C419   N478    1.449   .     S
C419   H444    1.108   .     S
C420   H449    1.110   .     S
C420   H447    1.108   .     S
C420   H446    1.110   .     S
C420   N479    1.449   .     S
C421   N480    1.448   .     S
C421   H451    1.109   .     S
C421   H453    1.109   .     S
C421   H452    1.110   .     S
C422   H456    1.109   .     S
C422   H455    1.110   .     S
C422   N481    1.448   .     S
C422   H457    1.109   .     S
C423   H462    1.110   .     S
C423   H460    1.110   .     S
C423   N482    1.447   .     S
C423   H461    1.110   .     S
C424   H466    1.111   .     S
C424   H464    1.111   .     S
C424   H465    1.111   .     S
C424   N474    1.447   .     S
C425   H467    1.081   .     S
C425   C1298   1.385   .     S
C426   N480    1.426   .     S
C427   C430    1.416   .     A
C427   N481    1.426   .     S
C427   C527    1.400   .     S
C428   N482    1.430   .     S
C428   C430    1.411   .     A
C428   C524    1.400   .     S
C429   N474    1.430   .     S
Cu431  O489    1.967   .     S
Cu431  O485    1.981   .     S
Cu431  O483    1.973   .     S
Cu431  N473    2.010   .     S
Cu431  O487    1.970   .     S
Cu431  Cu432   2.675   .     S
Cu432  N475    2.010   .     S
Cu432  O488    1.970   .     S
Cu432  O484    1.973   .     S
Cu432  O486    1.981   .     S
Cu432  O490    1.967   .     S
H441   N478    1.031   .     S
H445   N479    1.031   .     S
H450   N480    1.031   .     S
H454   N481    1.031   .     S
H458   N482    1.029   .     S
H463   N474    1.029   .     S
H468   N476    1.030   .     S
H472   N477    1.030   .     S
C491   C492    1.464   .     S
C491   O584    1.289   .     A
C491   O581    1.296   .     A
C492   C524    1.416   .     A
C492   C527    1.411   .     A
C493   N573    1.367   .     A
C493   F531    1.354   .     S
C494   N571    1.367   .     A
C494   F532    1.354   .     S
C494   C789    1.414   .     S
C495   N573    1.367   .     A
C495   F533    1.355   .     S
C496   N571    1.367   .     A
C496   F534    1.355   .     S
C496   C787    1.414   .     S
C497   O588    1.293   .     A
C497   C503    1.456   .     S
C497   O585    1.287   .     A
C498   O586    1.287   .     A
C498   C501    1.456   .     S
C498   O587    1.293   .     A
C499   C510    1.409   .     A
C499   C501    1.403   .     A
C499   N574    1.427   .     S
C500   N575    1.427   .     S
C500   C511    1.409   .     A
C500   C503    1.403   .     A
C501   C504    1.406   .     A
C502   O582    1.296   .     A
C502   C528    1.464   .     S
C502   O583    1.289   .     A
C503   C505    1.406   .     A
C504   N576    1.427   .     S
C504   C506    1.409   .     A
C505   N577    1.427   .     S
C505   C507    1.409   .     A
C506   C512    1.404   .     A
C506   C508    1.417   .     A
C507   C514    1.404   .     A
C507   C509    1.417   .     A
C508   C510    1.417   .     A
C508   C1391   1.416   .     S
C509   C511    1.417   .     A
C509   C1390   1.416   1_554 S
C510   C523    1.404   .     A
C511   C513    1.404   .     A
C512   H535    1.081   .     S
C512   C1395   1.385   .     S
C513   H557    1.081   .     S
C513   C1394   1.385   1_554 S
C514   H546    1.081   .     S
C514   C1405   1.385   1_554 S
C515   H567    1.111   .     S
C515   N574    1.447   .     S
C515   H568    1.107   .     S
C515   H569    1.111   .     S
C516   H538    1.107   .     S
C516   H537    1.111   .     S
C516   N575    1.447   .     S
C516   H536    1.111   .     S
C517   H540    1.110   .     S
C517   H541    1.110   .     S
C517   N576    1.449   .     S
C517   H542    1.108   .     S
C518   H547    1.110   .     S
C518   H545    1.108   .     S
C518   H544    1.110   .     S
C518   N577    1.449   .     S
C519   N578    1.448   .     S
C519   H549    1.109   .     S
C519   H551    1.109   .     S
C519   H550    1.110   .     S
C520   H554    1.109   .     S
C520   H553    1.110   .     S
C520   N579    1.448   .     S
C520   H555    1.109   .     S
C521   H560    1.110   .     S
C521   H558    1.110   .     S
C521   N580    1.447   .     S
C521   H559    1.110   .     S
C522   H564    1.111   .     S
C522   H562    1.111   .     S
C522   H563    1.111   .     S
C522   N572    1.447   .     S
C523   H565    1.081   .     S
C523   C1396   1.385   .     S
C524   N578    1.426   .     S
C525   C528    1.416   .     A
C525   N579    1.426   .     S
C525   C331    1.400   1_655 S
C526   N580    1.430   .     S
C526   C528    1.411   .     A
C526   C328    1.400   1_655 S
C527   N572    1.430   .     S
Cu529  O587    1.967   .     S
Cu529  O583    1.981   .     S
Cu529  O581    1.973   .     S
Cu529  N571    2.010   .     S
Cu529  O585    1.970   .     S
Cu529  Cu530   2.675   .     S
Cu530  N573    2.010   .     S
Cu530  O586    1.970   .     S
Cu530  O582    1.973   .     S
Cu530  O584    1.981   .     S
Cu530  O588    1.967   .     S
H539   N576    1.031   .     S
H543   N577    1.031   .     S
H548   N578    1.031   .     S
H552   N579    1.031   .     S
H556   N580    1.029   .     S
H561   N572    1.029   .     S
H566   N574    1.030   .     S
H570   N575    1.030   .     S
C589   C590    1.464   .     S
C589   O682    1.289   .     A
C589   O679    1.296   .     A
C590   C622    1.416   .     A
C590   C625    1.411   .     A
C591   N671    1.367   .     A
C591   F629    1.354   .     S
C592   N669    1.367   .     A
C592   F630    1.354   .     S
C592   C5      1.414   1_565 S
C593   N671    1.367   .     A
C593   F631    1.355   .     S
C594   N669    1.367   .     A
C594   F632    1.355   .     S
C594   C3      1.414   1_565 S
C595   O686    1.293   .     A
C595   C601    1.456   .     S
C595   O683    1.287   .     A
C596   O684    1.287   .     A
C596   C599    1.456   .     S
C596   O685    1.293   .     A
C597   C608    1.409   .     A
C597   C599    1.403   .     A
C597   N672    1.427   .     S
C598   N673    1.427   .     S
C598   C609    1.409   .     A
C598   C601    1.403   .     A
C599   C602    1.406   .     A
C600   O680    1.296   .     A
C600   C626    1.464   .     S
C600   O681    1.289   .     A
C601   C603    1.406   .     A
C602   N674    1.427   .     S
C602   C604    1.409   .     A
C603   N675    1.427   .     S
C603   C605    1.409   .     A
C604   C610    1.404   .     A
C604   C606    1.417   .     A
C605   C612    1.404   .     A
C605   C607    1.417   .     A
C606   C608    1.417   .     A
C606   C1489   1.416   .     S
C607   C609    1.417   .     A
C607   C1488   1.416   1_554 S
C608   C621    1.404   .     A
C609   C611    1.404   .     A
C610   H633    1.081   .     S
C610   C1493   1.385   .     S
C611   H655    1.081   .     S
C611   C1492   1.385   1_554 S
C612   H644    1.081   .     S
C612   C1503   1.385   1_554 S
C613   H665    1.111   .     S
C613   N672    1.447   .     S
C613   H666    1.107   .     S
C613   H667    1.111   .     S
C614   H636    1.107   .     S
C614   H635    1.111   .     S
C614   N673    1.447   .     S
C614   H634    1.111   .     S
C615   H638    1.110   .     S
C615   H639    1.110   .     S
C615   N674    1.449   .     S
C615   H640    1.108   .     S
C616   H645    1.110   .     S
C616   H643    1.108   .     S
C616   H642    1.110   .     S
C616   N675    1.449   .     S
C617   N676    1.448   .     S
C617   H647    1.109   .     S
C617   H649    1.109   .     S
C617   H648    1.110   .     S
C618   H652    1.109   .     S
C618   H651    1.110   .     S
C618   N677    1.448   .     S
C618   H653    1.109   .     S
C619   H658    1.110   .     S
C619   H656    1.110   .     S
C619   N678    1.447   .     S
C619   H657    1.110   .     S
C620   H662    1.111   .     S
C620   H660    1.111   .     S
C620   H661    1.111   .     S
C620   N670    1.447   .     S
C621   H663    1.081   .     S
C621   C1494   1.385   .     S
C622   N676    1.426   .     S
C622   C820    1.400   1_455 S
C623   C626    1.416   .     A
C623   N677    1.426   .     S
C623   C723    1.400   .     S
C624   N678    1.430   .     S
C624   C626    1.411   .     A
C624   C720    1.400   .     S
C625   N670    1.430   .     S
C625   C819    1.400   1_455 S
Cu627  O685    1.967   .     S
Cu627  O681    1.981   .     S
Cu627  O679    1.973   .     S
Cu627  N669    2.010   .     S
Cu627  O683    1.970   .     S
Cu627  Cu628   2.675   .     S
Cu628  N671    2.010   .     S
Cu628  O684    1.970   .     S
Cu628  O680    1.973   .     S
Cu628  O682    1.981   .     S
Cu628  O686    1.967   .     S
H637   N674    1.031   .     S
H641   N675    1.031   .     S
H646   N676    1.031   .     S
H650   N677    1.031   .     S
H654   N678    1.029   .     S
H659   N670    1.029   .     S
H664   N672    1.030   .     S
H668   N673    1.030   .     S
C687   C688    1.464   .     S
C687   O780    1.289   .     A
C687   O777    1.296   .     A
C688   C720    1.416   .     A
C688   C723    1.411   .     A
C689   N769    1.367   .     A
C689   F727    1.354   .     S
C690   N767    1.367   .     A
C690   F728    1.354   .     S
C690   C103    1.414   1_565 S
C691   N769    1.367   .     A
C691   F729    1.355   .     S
C692   N767    1.367   .     A
C692   F730    1.355   .     S
C692   C101    1.414   1_565 S
C693   O784    1.293   .     A
C693   C699    1.456   .     S
C693   O781    1.287   .     A
C694   O782    1.287   .     A
C694   C697    1.456   .     S
C694   O783    1.293   .     A
C695   C706    1.409   .     A
C695   C697    1.403   .     A
C695   N770    1.427   .     S
C696   N771    1.427   .     S
C696   C707    1.409   .     A
C696   C699    1.403   .     A
C697   C700    1.406   .     A
C698   O778    1.296   .     A
C698   C724    1.464   .     S
C698   O779    1.289   .     A
C699   C701    1.406   .     A
C700   N772    1.427   .     S
C700   C702    1.409   .     A
C701   N773    1.427   .     S
C701   C703    1.409   .     A
C702   C708    1.404   .     A
C702   C704    1.417   .     A
C703   C710    1.404   .     A
C703   C705    1.417   .     A
C704   C706    1.417   .     A
C704   C1587   1.416   .     S
C705   C707    1.417   .     A
C705   C1586   1.416   1_554 S
C706   C719    1.404   .     A
C707   C709    1.404   .     A
C708   H731    1.081   .     S
C708   C1591   1.385   .     S
C709   H753    1.081   .     S
C709   C1590   1.385   1_554 S
C710   H742    1.081   .     S
C710   C1601   1.385   1_554 S
C711   H763    1.111   .     S
C711   N770    1.447   .     S
C711   H764    1.107   .     S
C711   H765    1.111   .     S
C712   H734    1.107   .     S
C712   H733    1.111   .     S
C712   N771    1.447   .     S
C712   H732    1.111   .     S
C713   H736    1.110   .     S
C713   H737    1.110   .     S
C713   N772    1.449   .     S
C713   H738    1.108   .     S
C714   H743    1.110   .     S
C714   H741    1.108   .     S
C714   H740    1.110   .     S
C714   N773    1.449   .     S
C715   N774    1.448   .     S
C715   H745    1.109   .     S
C715   H747    1.109   .     S
C715   H746    1.110   .     S
C716   H750    1.109   .     S
C716   H749    1.110   .     S
C716   N775    1.448   .     S
C716   H751    1.109   .     S
C717   H756    1.110   .     S
C717   H754    1.110   .     S
C717   N776    1.447   .     S
C717   H755    1.110   .     S
C718   H760    1.111   .     S
C718   H758    1.111   .     S
C718   H759    1.111   .     S
C718   N768    1.447   .     S
C719   H761    1.081   .     S
C719   C1592   1.385   .     S
C720   N774    1.426   .     S
C721   C724    1.416   .     A
C721   N775    1.426   .     S
C721   C821    1.400   .     S
C722   N776    1.430   .     S
C722   C724    1.411   .     A
C722   C818    1.400   .     S
C723   N768    1.430   .     S
Cu725  O783    1.967   .     S
Cu725  O779    1.981   .     S
Cu725  O777    1.973   .     S
Cu725  N767    2.010   .     S
Cu725  O781    1.970   .     S
Cu725  Cu726   2.675   .     S
Cu726  N769    2.010   .     S
Cu726  O782    1.970   .     S
Cu726  O778    1.973   .     S
Cu726  O780    1.981   .     S
Cu726  O784    1.967   .     S
H735   N772    1.031   .     S
H739   N773    1.031   .     S
H744   N774    1.031   .     S
H748   N775    1.031   .     S
H752   N776    1.029   .     S
H757   N768    1.029   .     S
H762   N770    1.030   .     S
H766   N771    1.030   .     S
C785   C786    1.464   .     S
C785   O878    1.289   .     A
C785   O875    1.296   .     A
C786   C818    1.416   .     A
C786   C821    1.411   .     A
C787   N867    1.367   .     A
C787   F825    1.354   .     S
C788   N865    1.367   .     A
C788   F826    1.354   .     S
C788   C201    1.414   1_565 S
C789   N867    1.367   .     A
C789   F827    1.355   .     S
C790   N865    1.367   .     A
C790   F828    1.355   .     S
C790   C199    1.414   1_565 S
C791   O882    1.293   .     A
C791   C797    1.456   .     S
C791   O879    1.287   .     A
C792   O880    1.287   .     A
C792   C795    1.456   .     S
C792   O881    1.293   .     A
C793   C804    1.409   .     A
C793   C795    1.403   .     A
C793   N868    1.427   .     S
C794   N869    1.427   .     S
C794   C805    1.409   .     A
C794   C797    1.403   .     A
C795   C798    1.406   .     A
C796   O876    1.296   .     A
C796   C822    1.464   .     S
C796   O877    1.289   .     A
C797   C799    1.406   .     A
C798   N870    1.427   .     S
C798   C800    1.409   .     A
C799   N871    1.427   .     S
C799   C801    1.409   .     A
C800   C806    1.404   .     A
C800   C802    1.417   .     A
C801   C808    1.404   .     A
C801   C803    1.417   .     A
C802   C804    1.417   .     A
C802   C1685   1.416   .     S
C803   C805    1.417   .     A
C803   C1684   1.416   1_554 S
C804   C817    1.404   .     A
C805   C807    1.404   .     A
C806   H829    1.081   .     S
C806   C1689   1.385   .     S
C807   H851    1.081   .     S
C807   C1688   1.385   1_554 S
C808   H840    1.081   .     S
C808   C1699   1.385   1_554 S
C809   H861    1.111   .     S
C809   N868    1.447   .     S
C809   H862    1.107   .     S
C809   H863    1.111   .     S
C810   H832    1.107   .     S
C810   H831    1.111   .     S
C810   N869    1.447   .     S
C810   H830    1.111   .     S
C811   H834    1.110   .     S
C811   H835    1.110   .     S
C811   N870    1.449   .     S
C811   H836    1.108   .     S
C812   H841    1.110   .     S
C812   H839    1.108   .     S
C812   H838    1.110   .     S
C812   N871    1.449   .     S
C813   N872    1.448   .     S
C813   H843    1.109   .     S
C813   H845    1.109   .     S
C813   H844    1.110   .     S
C814   H848    1.109   .     S
C814   H847    1.110   .     S
C814   N873    1.448   .     S
C814   H849    1.109   .     S
C815   H854    1.110   .     S
C815   H852    1.110   .     S
C815   N874    1.447   .     S
C815   H853    1.110   .     S
C816   H858    1.111   .     S
C816   H856    1.111   .     S
C816   H857    1.111   .     S
C816   N866    1.447   .     S
C817   H859    1.081   .     S
C817   C1690   1.385   .     S
C818   N872    1.426   .     S
C819   C822    1.416   .     A
C819   N873    1.426   .     S
C819   C625    1.400   1_655 S
C820   N874    1.430   .     S
C820   C822    1.411   .     A
C820   C622    1.400   1_655 S
C821   N866    1.430   .     S
Cu823  O881    1.967   .     S
Cu823  O877    1.981   .     S
Cu823  O875    1.973   .     S
Cu823  N865    2.010   .     S
Cu823  O879    1.970   .     S
Cu823  Cu824   2.675   .     S
Cu824  N867    2.010   .     S
Cu824  O880    1.970   .     S
Cu824  O876    1.973   .     S
Cu824  O878    1.981   .     S
Cu824  O882    1.967   .     S
H833   N870    1.031   .     S
H837   N871    1.031   .     S
H842   N872    1.031   .     S
H846   N873    1.031   .     S
H850   N874    1.029   .     S
H855   N866    1.029   .     S
H860   N868    1.030   .     S
H864   N869    1.030   .     S
C883   C884    1.464   .     S
C883   O976    1.289   .     A
C883   O973    1.296   .     A
C884   C916    1.416   .     A
C884   C919    1.411   .     A
C885   N965    1.367   .     A
C885   F923    1.354   .     S
C885   C1476   1.414   1_545 S
C886   N963    1.367   .     A
C886   F924    1.354   .     S
C886   C1181   1.414   .     S
C887   N965    1.367   .     A
C887   F925    1.355   .     S
C887   C1474   1.414   1_545 S
C888   N963    1.367   .     A
C888   F926    1.355   .     S
C888   C1179   1.414   .     S
C889   O980    1.293   .     A
C889   C895    1.456   .     S
C889   O977    1.287   .     A
C890   O978    1.287   .     A
C890   C893    1.456   .     S
C890   O979    1.293   .     A
C891   C902    1.409   .     A
C891   C893    1.403   .     A
C891   N966    1.427   .     S
C892   N967    1.427   .     S
C892   C903    1.409   .     A
C892   C895    1.403   .     A
C893   C896    1.406   .     A
C894   O974    1.296   .     A
C894   C920    1.464   .     S
C894   O975    1.289   .     A
C895   C897    1.406   .     A
C896   N968    1.427   .     S
C896   C898    1.409   .     A
C897   N969    1.427   .     S
C897   C899    1.409   .     A
C898   C904    1.404   .     A
C898   C900    1.417   .     A
C899   C906    1.404   .     A
C899   C901    1.417   .     A
C900   C902    1.417   .     A
C900   C19     1.416   1_556 S
C901   C903    1.417   .     A
C902   C915    1.404   .     A
C903   C905    1.404   .     A
C904   H927    1.081   .     S
C904   C23     1.385   1_556 S
C905   H949    1.081   .     S
C906   H938    1.081   .     S
C907   H959    1.111   .     S
C907   N966    1.447   .     S
C907   H960    1.107   .     S
C907   H961    1.111   .     S
C908   H930    1.107   .     S
C908   H929    1.111   .     S
C908   N967    1.447   .     S
C908   H928    1.111   .     S
C909   H932    1.110   .     S
C909   H933    1.110   .     S
C909   N968    1.449   .     S
C909   H934    1.108   .     S
C910   H939    1.110   .     S
C910   H937    1.108   .     S
C910   H936    1.110   .     S
C910   N969    1.449   .     S
C911   N970    1.448   .     S
C911   H941    1.109   .     S
C911   H943    1.109   .     S
C911   H942    1.110   .     S
C912   H946    1.109   .     S
C912   H945    1.110   .     S
C912   N971    1.448   .     S
C912   H947    1.109   .     S
C913   H952    1.110   .     S
C913   H950    1.110   .     S
C913   N972    1.447   .     S
C913   H951    1.110   .     S
C914   H956    1.111   .     S
C914   H954    1.111   .     S
C914   H955    1.111   .     S
C914   N964    1.447   .     S
C915   H957    1.081   .     S
C915   C24     1.385   1_556 S
C916   N970    1.426   .     S
C916   C1114   1.400   1_455 S
C917   C920    1.416   .     A
C917   N971    1.426   .     S
C917   C1017   1.400   .     S
C918   N972    1.430   .     S
C918   C920    1.411   .     A
C918   C1014   1.400   .     S
C919   N964    1.430   .     S
C919   C1113   1.400   1_455 S
Cu921  O979    1.967   .     S
Cu921  O975    1.981   .     S
Cu921  O973    1.973   .     S
Cu921  N963    2.010   .     S
Cu921  O977    1.970   .     S
Cu921  Cu922   2.675   .     S
Cu922  N965    2.010   .     S
Cu922  O978    1.970   .     S
Cu922  O974    1.973   .     S
Cu922  O976    1.981   .     S
Cu922  O980    1.967   .     S
H931   N968    1.031   .     S
H935   N969    1.031   .     S
H940   N970    1.031   .     S
H944   N971    1.031   .     S
H948   N972    1.029   .     S
H953   N964    1.029   .     S
H958   N966    1.030   .     S
H962   N967    1.030   .     S
C981   C982    1.464   .     S
C981   O1074   1.289   .     A
C981   O1071   1.296   .     A
C982   C1014   1.416   .     A
C982   C1017   1.411   .     A
C983   N1063   1.367   .     A
C983   F1021   1.354   .     S
C983   C1574   1.414   1_545 S
C984   N1061   1.367   .     A
C984   F1022   1.354   .     S
C984   C1279   1.414   .     S
C985   N1063   1.367   .     A
C985   F1023   1.355   .     S
C985   C1572   1.414   1_545 S
C986   N1061   1.367   .     A
C986   F1024   1.355   .     S
C986   C1277   1.414   .     S
C987   O1078   1.293   .     A
C987   C993    1.456   .     S
C987   O1075   1.287   .     A
C988   O1076   1.287   .     A
C988   C991    1.456   .     S
C988   O1077   1.293   .     A
C989   C1000   1.409   .     A
C989   C991    1.403   .     A
C989   N1064   1.427   .     S
C990   N1065   1.427   .     S
C990   C1001   1.409   .     A
C990   C993    1.403   .     A
C991   C994    1.406   .     A
C992   O1072   1.296   .     A
C992   C1018   1.464   .     S
C992   O1073   1.289   .     A
C993   C995    1.406   .     A
C994   N1066   1.427   .     S
C994   C996    1.409   .     A
C995   N1067   1.427   .     S
C995   C997    1.409   .     A
C996   C1002   1.404   .     A
C996   C998    1.417   .     A
C997   C1004   1.404   .     A
C997   C999    1.417   .     A
C998   C1000   1.417   .     A
C998   C117    1.416   1_556 S
C999   C1001   1.417   .     A
C1000  C1013   1.404   .     A
C1001  C1003   1.404   .     A
C1002  H1025   1.081   .     S
C1002  C121    1.385   1_556 S
C1003  H1047   1.081   .     S
C1004  H1036   1.081   .     S
C1005  H1057   1.111   .     S
C1005  N1064   1.447   .     S
C1005  H1058   1.107   .     S
C1005  H1059   1.111   .     S
C1006  H1028   1.107   .     S
C1006  H1027   1.111   .     S
C1006  N1065   1.447   .     S
C1006  H1026   1.111   .     S
C1007  H1030   1.110   .     S
C1007  H1031   1.110   .     S
C1007  N1066   1.449   .     S
C1007  H1032   1.108   .     S
C1008  H1037   1.110   .     S
C1008  H1035   1.108   .     S
C1008  H1034   1.110   .     S
C1008  N1067   1.449   .     S
C1009  N1068   1.448   .     S
C1009  H1039   1.109   .     S
C1009  H1041   1.109   .     S
C1009  H1040   1.110   .     S
C1010  H1044   1.109   .     S
C1010  H1043   1.110   .     S
C1010  N1069   1.448   .     S
C1010  H1045   1.109   .     S
C1011  H1050   1.110   .     S
C1011  H1048   1.110   .     S
C1011  N1070   1.447   .     S
C1011  H1049   1.110   .     S
C1012  H1054   1.111   .     S
C1012  H1052   1.111   .     S
C1012  H1053   1.111   .     S
C1012  N1062   1.447   .     S
C1013  H1055   1.081   .     S
C1013  C122    1.385   1_556 S
C1014  N1068   1.426   .     S
C1015  C1018   1.416   .     A
C1015  N1069   1.426   .     S
C1015  C1115   1.400   .     S
C1016  N1070   1.430   .     S
C1016  C1018   1.411   .     A
C1016  C1112   1.400   .     S
C1017  N1062   1.430   .     S
Cu1019 O1077   1.967   .     S
Cu1019 O1073   1.981   .     S
Cu1019 O1071   1.973   .     S
Cu1019 N1061   2.010   .     S
Cu1019 O1075   1.970   .     S
Cu1019 Cu1020  2.675   .     S
Cu1020 N1063   2.010   .     S
Cu1020 O1076   1.970   .     S
Cu1020 O1072   1.973   .     S
Cu1020 O1074   1.981   .     S
Cu1020 O1078   1.967   .     S
H1029  N1066   1.031   .     S
H1033  N1067   1.031   .     S
H1038  N1068   1.031   .     S
H1042  N1069   1.031   .     S
H1046  N1070   1.029   .     S
H1051  N1062   1.029   .     S
H1056  N1064   1.030   .     S
H1060  N1065   1.030   .     S
C1079  C1080   1.464   .     S
C1079  O1172   1.289   .     A
C1079  O1169   1.296   .     A
C1080  C1112   1.416   .     A
C1080  C1115   1.411   .     A
C1081  N1161   1.367   .     A
C1081  F1119   1.354   .     S
C1081  C1672   1.414   1_545 S
C1082  N1159   1.367   .     A
C1082  F1120   1.354   .     S
C1082  C1377   1.414   .     S
C1083  N1161   1.367   .     A
C1083  F1121   1.355   .     S
C1083  C1670   1.414   1_545 S
C1084  N1159   1.367   .     A
C1084  F1122   1.355   .     S
C1084  C1375   1.414   .     S
C1085  O1176   1.293   .     A
C1085  C1091   1.456   .     S
C1085  O1173   1.287   .     A
C1086  O1174   1.287   .     A
C1086  C1089   1.456   .     S
C1086  O1175   1.293   .     A
C1087  C1098   1.409   .     A
C1087  C1089   1.403   .     A
C1087  N1162   1.427   .     S
C1088  N1163   1.427   .     S
C1088  C1099   1.409   .     A
C1088  C1091   1.403   .     A
C1089  C1092   1.406   .     A
C1090  O1170   1.296   .     A
C1090  C1116   1.464   .     S
C1090  O1171   1.289   .     A
C1091  C1093   1.406   .     A
C1092  N1164   1.427   .     S
C1092  C1094   1.409   .     A
C1093  N1165   1.427   .     S
C1093  C1095   1.409   .     A
C1094  C1100   1.404   .     A
C1094  C1096   1.417   .     A
C1095  C1102   1.404   .     A
C1095  C1097   1.417   .     A
C1096  C1098   1.417   .     A
C1096  C215    1.416   1_556 S
C1097  C1099   1.417   .     A
C1098  C1111   1.404   .     A
C1099  C1101   1.404   .     A
C1100  H1123   1.081   .     S
C1100  C219    1.385   1_556 S
C1101  H1145   1.081   .     S
C1102  H1134   1.081   .     S
C1103  H1155   1.111   .     S
C1103  N1162   1.447   .     S
C1103  H1156   1.107   .     S
C1103  H1157   1.111   .     S
C1104  H1126   1.107   .     S
C1104  H1125   1.111   .     S
C1104  N1163   1.447   .     S
C1104  H1124   1.111   .     S
C1105  H1128   1.110   .     S
C1105  H1129   1.110   .     S
C1105  N1164   1.449   .     S
C1105  H1130   1.108   .     S
C1106  H1135   1.110   .     S
C1106  H1133   1.108   .     S
C1106  H1132   1.110   .     S
C1106  N1165   1.449   .     S
C1107  N1166   1.448   .     S
C1107  H1137   1.109   .     S
C1107  H1139   1.109   .     S
C1107  H1138   1.110   .     S
C1108  H1142   1.109   .     S
C1108  H1141   1.110   .     S
C1108  N1167   1.448   .     S
C1108  H1143   1.109   .     S
C1109  H1148   1.110   .     S
C1109  H1146   1.110   .     S
C1109  N1168   1.447   .     S
C1109  H1147   1.110   .     S
C1110  H1152   1.111   .     S
C1110  H1150   1.111   .     S
C1110  H1151   1.111   .     S
C1110  N1160   1.447   .     S
C1111  H1153   1.081   .     S
C1111  C220    1.385   1_556 S
C1112  N1166   1.426   .     S
C1113  C1116   1.416   .     A
C1113  N1167   1.426   .     S
C1113  C919    1.400   1_655 S
C1114  N1168   1.430   .     S
C1114  C1116   1.411   .     A
C1114  C916    1.400   1_655 S
C1115  N1160   1.430   .     S
Cu1117 O1175   1.967   .     S
Cu1117 O1171   1.981   .     S
Cu1117 O1169   1.973   .     S
Cu1117 N1159   2.010   .     S
Cu1117 O1173   1.970   .     S
Cu1117 Cu1118  2.675   .     S
Cu1118 N1161   2.010   .     S
Cu1118 O1174   1.970   .     S
Cu1118 O1170   1.973   .     S
Cu1118 O1172   1.981   .     S
Cu1118 O1176   1.967   .     S
H1127  N1164   1.031   .     S
H1131  N1165   1.031   .     S
H1136  N1166   1.031   .     S
H1140  N1167   1.031   .     S
H1144  N1168   1.029   .     S
H1149  N1160   1.029   .     S
H1154  N1162   1.030   .     S
H1158  N1163   1.030   .     S
C1177  C1178   1.464   .     S
C1177  O1270   1.289   .     A
C1177  O1267   1.296   .     A
C1178  C1210   1.416   .     A
C1178  C1213   1.411   .     A
C1179  N1259   1.367   .     A
C1179  F1217   1.354   .     S
C1180  N1257   1.367   .     A
C1180  F1218   1.354   .     S
C1180  C1475   1.414   .     S
C1181  N1259   1.367   .     A
C1181  F1219   1.355   .     S
C1182  N1257   1.367   .     A
C1182  F1220   1.355   .     S
C1182  C1473   1.414   .     S
C1183  O1274   1.293   .     A
C1183  C1189   1.456   .     S
C1183  O1271   1.287   .     A
C1184  O1272   1.287   .     A
C1184  C1187   1.456   .     S
C1184  O1273   1.293   .     A
C1185  C1196   1.409   .     A
C1185  C1187   1.403   .     A
C1185  N1260   1.427   .     S
C1186  N1261   1.427   .     S
C1186  C1197   1.409   .     A
C1186  C1189   1.403   .     A
C1187  C1190   1.406   .     A
C1188  O1268   1.296   .     A
C1188  C1214   1.464   .     S
C1188  O1269   1.289   .     A
C1189  C1191   1.406   .     A
C1190  N1262   1.427   .     S
C1190  C1192   1.409   .     A
C1191  N1263   1.427   .     S
C1191  C1193   1.409   .     A
C1192  C1198   1.404   .     A
C1192  C1194   1.417   .     A
C1193  C1200   1.404   .     A
C1193  C1195   1.417   .     A
C1194  C1196   1.417   .     A
C1194  C313    1.416   1_556 S
C1195  C1197   1.417   .     A
C1196  C1209   1.404   .     A
C1197  C1199   1.404   .     A
C1198  H1221   1.081   .     S
C1198  C317    1.385   1_556 S
C1199  H1243   1.081   .     S
C1200  H1232   1.081   .     S
C1201  H1253   1.111   .     S
C1201  N1260   1.447   .     S
C1201  H1254   1.107   .     S
C1201  H1255   1.111   .     S
C1202  H1224   1.107   .     S
C1202  H1223   1.111   .     S
C1202  N1261   1.447   .     S
C1202  H1222   1.111   .     S
C1203  H1226   1.110   .     S
C1203  H1227   1.110   .     S
C1203  N1262   1.449   .     S
C1203  H1228   1.108   .     S
C1204  H1233   1.110   .     S
C1204  H1231   1.108   .     S
C1204  H1230   1.110   .     S
C1204  N1263   1.449   .     S
C1205  N1264   1.448   .     S
C1205  H1235   1.109   .     S
C1205  H1237   1.109   .     S
C1205  H1236   1.110   .     S
C1206  H1240   1.109   .     S
C1206  H1239   1.110   .     S
C1206  N1265   1.448   .     S
C1206  H1241   1.109   .     S
C1207  H1246   1.110   .     S
C1207  H1244   1.110   .     S
C1207  N1266   1.447   .     S
C1207  H1245   1.110   .     S
C1208  H1250   1.111   .     S
C1208  H1248   1.111   .     S
C1208  H1249   1.111   .     S
C1208  N1258   1.447   .     S
C1209  H1251   1.081   .     S
C1209  C318    1.385   1_556 S
C1210  N1264   1.426   .     S
C1210  C1408   1.400   1_455 S
C1211  C1214   1.416   .     A
C1211  N1265   1.426   .     S
C1211  C1311   1.400   .     S
C1212  N1266   1.430   .     S
C1212  C1214   1.411   .     A
C1212  C1308   1.400   .     S
C1213  N1258   1.430   .     S
C1213  C1407   1.400   1_455 S
Cu1215 O1273   1.967   .     S
Cu1215 O1269   1.981   .     S
Cu1215 O1267   1.973   .     S
Cu1215 N1257   2.010   .     S
Cu1215 O1271   1.970   .     S
Cu1215 Cu1216  2.675   .     S
Cu1216 N1259   2.010   .     S
Cu1216 O1272   1.970   .     S
Cu1216 O1268   1.973   .     S
Cu1216 O1270   1.981   .     S
Cu1216 O1274   1.967   .     S
H1225  N1262   1.031   .     S
H1229  N1263   1.031   .     S
H1234  N1264   1.031   .     S
H1238  N1265   1.031   .     S
H1242  N1266   1.029   .     S
H1247  N1258   1.029   .     S
H1252  N1260   1.030   .     S
H1256  N1261   1.030   .     S
C1275  C1276   1.464   .     S
C1275  O1368   1.289   .     A
C1275  O1365   1.296   .     A
C1276  C1308   1.416   .     A
C1276  C1311   1.411   .     A
C1277  N1357   1.367   .     A
C1277  F1315   1.354   .     S
C1278  N1355   1.367   .     A
C1278  F1316   1.354   .     S
C1278  C1573   1.414   .     S
C1279  N1357   1.367   .     A
C1279  F1317   1.355   .     S
C1280  N1355   1.367   .     A
C1280  F1318   1.355   .     S
C1280  C1571   1.414   .     S
C1281  O1372   1.293   .     A
C1281  C1287   1.456   .     S
C1281  O1369   1.287   .     A
C1282  O1370   1.287   .     A
C1282  C1285   1.456   .     S
C1282  O1371   1.293   .     A
C1283  C1294   1.409   .     A
C1283  C1285   1.403   .     A
C1283  N1358   1.427   .     S
C1284  N1359   1.427   .     S
C1284  C1295   1.409   .     A
C1284  C1287   1.403   .     A
C1285  C1288   1.406   .     A
C1286  O1366   1.296   .     A
C1286  C1312   1.464   .     S
C1286  O1367   1.289   .     A
C1287  C1289   1.406   .     A
C1288  N1360   1.427   .     S
C1288  C1290   1.409   .     A
C1289  N1361   1.427   .     S
C1289  C1291   1.409   .     A
C1290  C1296   1.404   .     A
C1290  C1292   1.417   .     A
C1291  C1298   1.404   .     A
C1291  C1293   1.417   .     A
C1292  C1294   1.417   .     A
C1292  C411    1.416   1_556 S
C1293  C1295   1.417   .     A
C1294  C1307   1.404   .     A
C1295  C1297   1.404   .     A
C1296  H1319   1.081   .     S
C1296  C415    1.385   1_556 S
C1297  H1341   1.081   .     S
C1298  H1330   1.081   .     S
C1299  H1351   1.111   .     S
C1299  N1358   1.447   .     S
C1299  H1352   1.107   .     S
C1299  H1353   1.111   .     S
C1300  H1322   1.107   .     S
C1300  H1321   1.111   .     S
C1300  N1359   1.447   .     S
C1300  H1320   1.111   .     S
C1301  H1324   1.110   .     S
C1301  H1325   1.110   .     S
C1301  N1360   1.449   .     S
C1301  H1326   1.108   .     S
C1302  H1331   1.110   .     S
C1302  H1329   1.108   .     S
C1302  H1328   1.110   .     S
C1302  N1361   1.449   .     S
C1303  N1362   1.448   .     S
C1303  H1333   1.109   .     S
C1303  H1335   1.109   .     S
C1303  H1334   1.110   .     S
C1304  H1338   1.109   .     S
C1304  H1337   1.110   .     S
C1304  N1363   1.448   .     S
C1304  H1339   1.109   .     S
C1305  H1344   1.110   .     S
C1305  H1342   1.110   .     S
C1305  N1364   1.447   .     S
C1305  H1343   1.110   .     S
C1306  H1348   1.111   .     S
C1306  H1346   1.111   .     S
C1306  H1347   1.111   .     S
C1306  N1356   1.447   .     S
C1307  H1349   1.081   .     S
C1307  C416    1.385   1_556 S
C1308  N1362   1.426   .     S
C1309  C1312   1.416   .     A
C1309  N1363   1.426   .     S
C1309  C1409   1.400   .     S
C1310  N1364   1.430   .     S
C1310  C1312   1.411   .     A
C1310  C1406   1.400   .     S
C1311  N1356   1.430   .     S
Cu1313 O1371   1.967   .     S
Cu1313 O1367   1.981   .     S
Cu1313 O1365   1.973   .     S
Cu1313 N1355   2.010   .     S
Cu1313 O1369   1.970   .     S
Cu1313 Cu1314  2.675   .     S
Cu1314 N1357   2.010   .     S
Cu1314 O1370   1.970   .     S
Cu1314 O1366   1.973   .     S
Cu1314 O1368   1.981   .     S
Cu1314 O1372   1.967   .     S
H1323  N1360   1.031   .     S
H1327  N1361   1.031   .     S
H1332  N1362   1.031   .     S
H1336  N1363   1.031   .     S
H1340  N1364   1.029   .     S
H1345  N1356   1.029   .     S
H1350  N1358   1.030   .     S
H1354  N1359   1.030   .     S
C1373  C1374   1.464   .     S
C1373  O1466   1.289   .     A
C1373  O1463   1.296   .     A
C1374  C1406   1.416   .     A
C1374  C1409   1.411   .     A
C1375  N1455   1.367   .     A
C1375  F1413   1.354   .     S
C1376  N1453   1.367   .     A
C1376  F1414   1.354   .     S
C1376  C1671   1.414   .     S
C1377  N1455   1.367   .     A
C1377  F1415   1.355   .     S
C1378  N1453   1.367   .     A
C1378  F1416   1.355   .     S
C1378  C1669   1.414   .     S
C1379  O1470   1.293   .     A
C1379  C1385   1.456   .     S
C1379  O1467   1.287   .     A
C1380  O1468   1.287   .     A
C1380  C1383   1.456   .     S
C1380  O1469   1.293   .     A
C1381  C1392   1.409   .     A
C1381  C1383   1.403   .     A
C1381  N1456   1.427   .     S
C1382  N1457   1.427   .     S
C1382  C1393   1.409   .     A
C1382  C1385   1.403   .     A
C1383  C1386   1.406   .     A
C1384  O1464   1.296   .     A
C1384  C1410   1.464   .     S
C1384  O1465   1.289   .     A
C1385  C1387   1.406   .     A
C1386  N1458   1.427   .     S
C1386  C1388   1.409   .     A
C1387  N1459   1.427   .     S
C1387  C1389   1.409   .     A
C1388  C1394   1.404   .     A
C1388  C1390   1.417   .     A
C1389  C1396   1.404   .     A
C1389  C1391   1.417   .     A
C1390  C1392   1.417   .     A
C1390  C509    1.416   1_556 S
C1391  C1393   1.417   .     A
C1392  C1405   1.404   .     A
C1393  C1395   1.404   .     A
C1394  H1417   1.081   .     S
C1394  C513    1.385   1_556 S
C1395  H1439   1.081   .     S
C1396  H1428   1.081   .     S
C1397  H1449   1.111   .     S
C1397  N1456   1.447   .     S
C1397  H1450   1.107   .     S
C1397  H1451   1.111   .     S
C1398  H1420   1.107   .     S
C1398  H1419   1.111   .     S
C1398  N1457   1.447   .     S
C1398  H1418   1.111   .     S
C1399  H1422   1.110   .     S
C1399  H1423   1.110   .     S
C1399  N1458   1.449   .     S
C1399  H1424   1.108   .     S
C1400  H1429   1.110   .     S
C1400  H1427   1.108   .     S
C1400  H1426   1.110   .     S
C1400  N1459   1.449   .     S
C1401  N1460   1.448   .     S
C1401  H1431   1.109   .     S
C1401  H1433   1.109   .     S
C1401  H1432   1.110   .     S
C1402  H1436   1.109   .     S
C1402  H1435   1.110   .     S
C1402  N1461   1.448   .     S
C1402  H1437   1.109   .     S
C1403  H1442   1.110   .     S
C1403  H1440   1.110   .     S
C1403  N1462   1.447   .     S
C1403  H1441   1.110   .     S
C1404  H1446   1.111   .     S
C1404  H1444   1.111   .     S
C1404  H1445   1.111   .     S
C1404  N1454   1.447   .     S
C1405  H1447   1.081   .     S
C1405  C514    1.385   1_556 S
C1406  N1460   1.426   .     S
C1407  C1410   1.416   .     A
C1407  N1461   1.426   .     S
C1407  C1213   1.400   1_655 S
C1408  N1462   1.430   .     S
C1408  C1410   1.411   .     A
C1408  C1210   1.400   1_655 S
C1409  N1454   1.430   .     S
Cu1411 O1469   1.967   .     S
Cu1411 O1465   1.981   .     S
Cu1411 O1463   1.973   .     S
Cu1411 N1453   2.010   .     S
Cu1411 O1467   1.970   .     S
Cu1411 Cu1412  2.675   .     S
Cu1412 N1455   2.010   .     S
Cu1412 O1468   1.970   .     S
Cu1412 O1464   1.973   .     S
Cu1412 O1466   1.981   .     S
Cu1412 O1470   1.967   .     S
H1421  N1458   1.031   .     S
H1425  N1459   1.031   .     S
H1430  N1460   1.031   .     S
H1434  N1461   1.031   .     S
H1438  N1462   1.029   .     S
H1443  N1454   1.029   .     S
H1448  N1456   1.030   .     S
H1452  N1457   1.030   .     S
C1471  C1472   1.464   .     S
C1471  O1564   1.289   .     A
C1471  O1561   1.296   .     A
C1472  C1504   1.416   .     A
C1472  C1507   1.411   .     A
C1473  N1553   1.367   .     A
C1473  F1511   1.354   .     S
C1474  N1551   1.367   .     A
C1474  F1512   1.354   .     S
C1474  C887    1.414   1_565 S
C1475  N1553   1.367   .     A
C1475  F1513   1.355   .     S
C1476  N1551   1.367   .     A
C1476  F1514   1.355   .     S
C1476  C885    1.414   1_565 S
C1477  O1568   1.293   .     A
C1477  C1483   1.456   .     S
C1477  O1565   1.287   .     A
C1478  O1566   1.287   .     A
C1478  C1481   1.456   .     S
C1478  O1567   1.293   .     A
C1479  C1490   1.409   .     A
C1479  C1481   1.403   .     A
C1479  N1554   1.427   .     S
C1480  N1555   1.427   .     S
C1480  C1491   1.409   .     A
C1480  C1483   1.403   .     A
C1481  C1484   1.406   .     A
C1482  O1562   1.296   .     A
C1482  C1508   1.464   .     S
C1482  O1563   1.289   .     A
C1483  C1485   1.406   .     A
C1484  N1556   1.427   .     S
C1484  C1486   1.409   .     A
C1485  N1557   1.427   .     S
C1485  C1487   1.409   .     A
C1486  C1492   1.404   .     A
C1486  C1488   1.417   .     A
C1487  C1494   1.404   .     A
C1487  C1489   1.417   .     A
C1488  C1490   1.417   .     A
C1488  C607    1.416   1_556 S
C1489  C1491   1.417   .     A
C1490  C1503   1.404   .     A
C1491  C1493   1.404   .     A
C1492  H1515   1.081   .     S
C1492  C611    1.385   1_556 S
C1493  H1537   1.081   .     S
C1494  H1526   1.081   .     S
C1495  H1547   1.111   .     S
C1495  N1554   1.447   .     S
C1495  H1548   1.107   .     S
C1495  H1549   1.111   .     S
C1496  H1518   1.107   .     S
C1496  H1517   1.111   .     S
C1496  N1555   1.447   .     S
C1496  H1516   1.111   .     S
C1497  H1520   1.110   .     S
C1497  H1521   1.110   .     S
C1497  N1556   1.449   .     S
C1497  H1522   1.108   .     S
C1498  H1527   1.110   .     S
C1498  H1525   1.108   .     S
C1498  H1524   1.110   .     S
C1498  N1557   1.449   .     S
C1499  N1558   1.448   .     S
C1499  H1529   1.109   .     S
C1499  H1531   1.109   .     S
C1499  H1530   1.110   .     S
C1500  H1534   1.109   .     S
C1500  H1533   1.110   .     S
C1500  N1559   1.448   .     S
C1500  H1535   1.109   .     S
C1501  H1540   1.110   .     S
C1501  H1538   1.110   .     S
C1501  N1560   1.447   .     S
C1501  H1539   1.110   .     S
C1502  H1544   1.111   .     S
C1502  H1542   1.111   .     S
C1502  H1543   1.111   .     S
C1502  N1552   1.447   .     S
C1503  H1545   1.081   .     S
C1503  C612    1.385   1_556 S
C1504  N1558   1.426   .     S
C1504  C1702   1.400   1_455 S
C1505  C1508   1.416   .     A
C1505  N1559   1.426   .     S
C1505  C1605   1.400   .     S
C1506  N1560   1.430   .     S
C1506  C1508   1.411   .     A
C1506  C1602   1.400   .     S
C1507  N1552   1.430   .     S
C1507  C1701   1.400   1_455 S
Cu1509 O1567   1.967   .     S
Cu1509 O1563   1.981   .     S
Cu1509 O1561   1.973   .     S
Cu1509 N1551   2.010   .     S
Cu1509 O1565   1.970   .     S
Cu1509 Cu1510  2.675   .     S
Cu1510 N1553   2.010   .     S
Cu1510 O1566   1.970   .     S
Cu1510 O1562   1.973   .     S
Cu1510 O1564   1.981   .     S
Cu1510 O1568   1.967   .     S
H1519  N1556   1.031   .     S
H1523  N1557   1.031   .     S
H1528  N1558   1.031   .     S
H1532  N1559   1.031   .     S
H1536  N1560   1.029   .     S
H1541  N1552   1.029   .     S
H1546  N1554   1.030   .     S
H1550  N1555   1.030   .     S
C1569  C1570   1.464   .     S
C1569  O1662   1.289   .     A
C1569  O1659   1.296   .     A
C1570  C1602   1.416   .     A
C1570  C1605   1.411   .     A
C1571  N1651   1.367   .     A
C1571  F1609   1.354   .     S
C1572  N1649   1.367   .     A
C1572  F1610   1.354   .     S
C1572  C985    1.414   1_565 S
C1573  N1651   1.367   .     A
C1573  F1611   1.355   .     S
C1574  N1649   1.367   .     A
C1574  F1612   1.355   .     S
C1574  C983    1.414   1_565 S
C1575  O1666   1.293   .     A
C1575  C1581   1.456   .     S
C1575  O1663   1.287   .     A
C1576  O1664   1.287   .     A
C1576  C1579   1.456   .     S
C1576  O1665   1.293   .     A
C1577  C1588   1.409   .     A
C1577  C1579   1.403   .     A
C1577  N1652   1.427   .     S
C1578  N1653   1.427   .     S
C1578  C1589   1.409   .     A
C1578  C1581   1.403   .     A
C1579  C1582   1.406   .     A
C1580  O1660   1.296   .     A
C1580  C1606   1.464   .     S
C1580  O1661   1.289   .     A
C1581  C1583   1.406   .     A
C1582  N1654   1.427   .     S
C1582  C1584   1.409   .     A
C1583  N1655   1.427   .     S
C1583  C1585   1.409   .     A
C1584  C1590   1.404   .     A
C1584  C1586   1.417   .     A
C1585  C1592   1.404   .     A
C1585  C1587   1.417   .     A
C1586  C1588   1.417   .     A
C1586  C705    1.416   1_556 S
C1587  C1589   1.417   .     A
C1588  C1601   1.404   .     A
C1589  C1591   1.404   .     A
C1590  H1613   1.081   .     S
C1590  C709    1.385   1_556 S
C1591  H1635   1.081   .     S
C1592  H1624   1.081   .     S
C1593  H1645   1.111   .     S
C1593  N1652   1.447   .     S
C1593  H1646   1.107   .     S
C1593  H1647   1.111   .     S
C1594  H1616   1.107   .     S
C1594  H1615   1.111   .     S
C1594  N1653   1.447   .     S
C1594  H1614   1.111   .     S
C1595  H1618   1.110   .     S
C1595  H1619   1.110   .     S
C1595  N1654   1.449   .     S
C1595  H1620   1.108   .     S
C1596  H1625   1.110   .     S
C1596  H1623   1.108   .     S
C1596  H1622   1.110   .     S
C1596  N1655   1.449   .     S
C1597  N1656   1.448   .     S
C1597  H1627   1.109   .     S
C1597  H1629   1.109   .     S
C1597  H1628   1.110   .     S
C1598  H1632   1.109   .     S
C1598  H1631   1.110   .     S
C1598  N1657   1.448   .     S
C1598  H1633   1.109   .     S
C1599  H1638   1.110   .     S
C1599  H1636   1.110   .     S
C1599  N1658   1.447   .     S
C1599  H1637   1.110   .     S
C1600  H1642   1.111   .     S
C1600  H1640   1.111   .     S
C1600  H1641   1.111   .     S
C1600  N1650   1.447   .     S
C1601  H1643   1.081   .     S
C1601  C710    1.385   1_556 S
C1602  N1656   1.426   .     S
C1603  C1606   1.416   .     A
C1603  N1657   1.426   .     S
C1603  C1703   1.400   .     S
C1604  N1658   1.430   .     S
C1604  C1606   1.411   .     A
C1604  C1700   1.400   .     S
C1605  N1650   1.430   .     S
Cu1607 O1665   1.967   .     S
Cu1607 O1661   1.981   .     S
Cu1607 O1659   1.973   .     S
Cu1607 N1649   2.010   .     S
Cu1607 O1663   1.970   .     S
Cu1607 Cu1608  2.675   .     S
Cu1608 N1651   2.010   .     S
Cu1608 O1664   1.970   .     S
Cu1608 O1660   1.973   .     S
Cu1608 O1662   1.981   .     S
Cu1608 O1666   1.967   .     S
H1617  N1654   1.031   .     S
H1621  N1655   1.031   .     S
H1626  N1656   1.031   .     S
H1630  N1657   1.031   .     S
H1634  N1658   1.029   .     S
H1639  N1650   1.029   .     S
H1644  N1652   1.030   .     S
H1648  N1653   1.030   .     S
C1667  C1668   1.464   .     S
C1667  O1760   1.289   .     A
C1667  O1757   1.296   .     A
C1668  C1700   1.416   .     A
C1668  C1703   1.411   .     A
C1669  N1749   1.367   .     A
C1669  F1707   1.354   .     S
C1670  N1747   1.367   .     A
C1670  F1708   1.354   .     S
C1670  C1083   1.414   1_565 S
C1671  N1749   1.367   .     A
C1671  F1709   1.355   .     S
C1672  N1747   1.367   .     A
C1672  F1710   1.355   .     S
C1672  C1081   1.414   1_565 S
C1673  O1764   1.293   .     A
C1673  C1679   1.456   .     S
C1673  O1761   1.287   .     A
C1674  O1762   1.287   .     A
C1674  C1677   1.456   .     S
C1674  O1763   1.293   .     A
C1675  C1686   1.409   .     A
C1675  C1677   1.403   .     A
C1675  N1750   1.427   .     S
C1676  N1751   1.427   .     S
C1676  C1687   1.409   .     A
C1676  C1679   1.403   .     A
C1677  C1680   1.406   .     A
C1678  O1758   1.296   .     A
C1678  C1704   1.464   .     S
C1678  O1759   1.289   .     A
C1679  C1681   1.406   .     A
C1680  N1752   1.427   .     S
C1680  C1682   1.409   .     A
C1681  N1753   1.427   .     S
C1681  C1683   1.409   .     A
C1682  C1688   1.404   .     A
C1682  C1684   1.417   .     A
C1683  C1690   1.404   .     A
C1683  C1685   1.417   .     A
C1684  C1686   1.417   .     A
C1684  C803    1.416   1_556 S
C1685  C1687   1.417   .     A
C1686  C1699   1.404   .     A
C1687  C1689   1.404   .     A
C1688  H1711   1.081   .     S
C1688  C807    1.385   1_556 S
C1689  H1733   1.081   .     S
C1690  H1722   1.081   .     S
C1691  H1743   1.111   .     S
C1691  N1750   1.447   .     S
C1691  H1744   1.107   .     S
C1691  H1745   1.111   .     S
C1692  H1714   1.107   .     S
C1692  H1713   1.111   .     S
C1692  N1751   1.447   .     S
C1692  H1712   1.111   .     S
C1693  H1716   1.110   .     S
C1693  H1717   1.110   .     S
C1693  N1752   1.449   .     S
C1693  H1718   1.108   .     S
C1694  H1723   1.110   .     S
C1694  H1721   1.108   .     S
C1694  H1720   1.110   .     S
C1694  N1753   1.449   .     S
C1695  N1754   1.448   .     S
C1695  H1725   1.109   .     S
C1695  H1727   1.109   .     S
C1695  H1726   1.110   .     S
C1696  H1730   1.109   .     S
C1696  H1729   1.110   .     S
C1696  N1755   1.448   .     S
C1696  H1731   1.109   .     S
C1697  H1736   1.110   .     S
C1697  H1734   1.110   .     S
C1697  N1756   1.447   .     S
C1697  H1735   1.110   .     S
C1698  H1740   1.111   .     S
C1698  H1738   1.111   .     S
C1698  H1739   1.111   .     S
C1698  N1748   1.447   .     S
C1699  H1741   1.081   .     S
C1699  C808    1.385   1_556 S
C1700  N1754   1.426   .     S
C1701  C1704   1.416   .     A
C1701  N1755   1.426   .     S
C1701  C1507   1.400   1_655 S
C1702  N1756   1.430   .     S
C1702  C1704   1.411   .     A
C1702  C1504   1.400   1_655 S
C1703  N1748   1.430   .     S
Cu1705 O1763   1.967   .     S
Cu1705 O1759   1.981   .     S
Cu1705 O1757   1.973   .     S
Cu1705 N1747   2.010   .     S
Cu1705 O1761   1.970   .     S
Cu1705 Cu1706  2.675   .     S
Cu1706 N1749   2.010   .     S
Cu1706 O1762   1.970   .     S
Cu1706 O1758   1.973   .     S
Cu1706 O1760   1.981   .     S
Cu1706 O1764   1.967   .     S
H1715  N1752   1.031   .     S
H1719  N1753   1.031   .     S
H1724  N1754   1.031   .     S
H1728  N1755   1.031   .     S
H1732  N1756   1.029   .     S
H1737  N1748   1.029   .     S
H1742  N1750   1.030   .     S
H1746  N1751   1.030   .     S
