data_str_m2_o10_o16_pcu_sym.121
_audit_creation_date              2020-01-03
_audit_creation_method            'Materials Studio'
_symmetry_space_group_name_H-M    'P1'
_symmetry_Int_Tables_number       1
_symmetry_cell_setting            triclinic
loop_
_symmetry_equiv_pos_as_xyz
  x,y,z
_cell_length_a                    22.2832
_cell_length_b                    26.0832
_cell_length_c                    26.7404
_cell_angle_alpha                 93.9857
_cell_angle_beta                  77.0884
_cell_angle_gamma                 103.1753
loop_
_atom_site_label
_atom_site_type_symbol
_atom_site_fract_x
_atom_site_fract_y
_atom_site_fract_z
_atom_site_U_iso_or_equiv
_atom_site_adp_type
_atom_site_occupancy
C1     C     0.18175   0.26674   0.25159   0.00000  Uiso   1.00
C2     C     0.13902   0.16969   0.48807   0.00000  Uiso   1.00
C3     C     0.15367   0.18695   0.43665   0.00000  Uiso   1.00
C4     C     0.18652   0.18185   0.01753   0.00000  Uiso   1.00
C5     C     0.24565   0.21503   0.49719   0.00000  Uiso   1.00
C6     C     0.25610   0.23748   0.44940   0.00000  Uiso   1.00
C7     C     0.20978   0.22574   0.41989   0.00000  Uiso   1.00
C8     C     0.17685   0.16234   0.06701   0.00000  Uiso   1.00
C9     C     0.28042   0.21025   0.07631   0.00000  Uiso   1.00
C10    C     0.11087   0.16568   0.40406   0.00000  Uiso   1.00
C11    C     0.19022   0.32269   0.25247   0.00000  Uiso   1.00
C12    C     0.13277   0.16584   0.34744   0.00000  Uiso   1.00
C13    C     0.14298   0.01063   0.24790   0.00000  Uiso   1.00
C14    C     0.15153   0.06660   0.24856   0.00000  Uiso   1.00
C15    C     0.20074   0.17029   0.15279   0.00000  Uiso   1.00
C16    C     0.29266   0.22781   0.02618   0.00000  Uiso   1.00
C17    C     0.22149   0.17890   0.09740   0.00000  Uiso   1.00
C18    C     0.04895   0.13822   0.42579   0.00000  Uiso   1.00
C19    C     0.03233   0.12825   0.47833   0.00000  Uiso   1.00
C20    C     0.07679   0.14218   0.00859   0.00000  Uiso   1.00
Cu21   Cu    0.10710   0.16105   0.24436   0.00000  Uiso   1.00
Cu22   Cu    0.22623   0.17228   0.25565   0.00000  Uiso   1.00
H23    H     0.31562   0.22336   0.09928   0.00000  Uiso   1.00
H24    H     0.09746   0.32016   0.24358   0.00000  Uiso   1.00
H25    H     0.00353   0.20583   0.28975   0.00000  Uiso   1.00
H26    H     0.32976   0.12748   0.21029   0.00000  Uiso   1.00
H27    H     0.29981   0.26569   0.43564   0.00000  Uiso   1.00
H28    H     0.00467   0.25316   0.01080   0.00000  Uiso   1.00
H29    H     0.13401   0.13516   0.08378   0.00000  Uiso   1.00
H30    H     0.06000   0.13226   0.04846   0.00000  Uiso   1.00
H31    H     0.31829   0.10786   0.49582   0.00000  Uiso   1.00
H32    H     0.23573   0.01317   0.25682   0.00000  Uiso   1.00
N33    N     0.31574   0.18074   0.26416   0.00000  Uiso   1.00
N34    N     0.01759   0.15259   0.23584   0.00000  Uiso   1.00
O35    O     0.12797   0.23807   0.24633   0.00000  Uiso   1.00
O36    O     0.22858   0.24755   0.25586   0.00000  Uiso   1.00
O37    O     0.09181   0.15960   0.31840   0.00000  Uiso   1.00
O38    O     0.19242   0.16908   0.32793   0.00000  Uiso   1.00
O39    O     0.10476   0.08578   0.24414   0.00000  Uiso   1.00
O40    O     0.20536   0.09526   0.25367   0.00000  Uiso   1.00
O41    O     0.14092   0.16425   0.17207   0.00000  Uiso   1.00
O42    O     0.24152   0.17373   0.18160   0.00000  Uiso   1.00
O43    O     0.00580   0.12038   0.39506   0.00000  Uiso   1.00
H44    H     0.29825   0.10265   0.41651   0.00000  Uiso   1.00
O45    O     0.21602   0.25521   0.37723   0.00000  Uiso   1.00
H46    H     0.25731   0.28067   0.37120   0.00000  Uiso   1.00
C47    C     0.51508   0.26674   0.25159   0.00000  Uiso   1.00
C48    C     0.47236   0.16969   0.48807   0.00000  Uiso   1.00
C49    C     0.48701   0.18695   0.43665   0.00000  Uiso   1.00
C50    C     0.51985   0.18185   0.01753   0.00000  Uiso   1.00
C51    C     0.57898   0.21503   0.49719   0.00000  Uiso   1.00
C52    C     0.58943   0.23748   0.44940   0.00000  Uiso   1.00
C53    C     0.54311   0.22574   0.41989   0.00000  Uiso   1.00
C54    C     0.51019   0.16234   0.06701   0.00000  Uiso   1.00
C55    C     0.61376   0.21025   0.07631   0.00000  Uiso   1.00
C56    C     0.44420   0.16568   0.40406   0.00000  Uiso   1.00
C57    C     0.52355   0.32269   0.25247   0.00000  Uiso   1.00
C58    C     0.46610   0.16584   0.34744   0.00000  Uiso   1.00
C59    C     0.47632   0.01063   0.24790   0.00000  Uiso   1.00
C60    C     0.48486   0.06660   0.24856   0.00000  Uiso   1.00
C61    C     0.53408   0.17029   0.15279   0.00000  Uiso   1.00
C62    C     0.62600   0.22781   0.02618   0.00000  Uiso   1.00
C63    C     0.55482   0.17890   0.09740   0.00000  Uiso   1.00
C64    C     0.38229   0.13822   0.42579   0.00000  Uiso   1.00
C65    C     0.36566   0.12825   0.47833   0.00000  Uiso   1.00
C66    C     0.41012   0.14218   0.00859   0.00000  Uiso   1.00
Cu67   Cu    0.44043   0.16105   0.24436   0.00000  Uiso   1.00
Cu68   Cu    0.55957   0.17228   0.25565   0.00000  Uiso   1.00
H69    H     0.64895   0.22336   0.09928   0.00000  Uiso   1.00
H70    H     0.43080   0.32016   0.24358   0.00000  Uiso   1.00
H71    H     0.33687   0.20583   0.28975   0.00000  Uiso   1.00
H72    H     0.66310   0.12748   0.21029   0.00000  Uiso   1.00
H73    H     0.63314   0.26569   0.43564   0.00000  Uiso   1.00
H74    H     0.33801   0.25316   0.01080   0.00000  Uiso   1.00
H75    H     0.46734   0.13516   0.08378   0.00000  Uiso   1.00
H76    H     0.39334   0.13226   0.04846   0.00000  Uiso   1.00
H77    H     0.65163   0.10786   0.49582   0.00000  Uiso   1.00
H78    H     0.56906   0.01317   0.25682   0.00000  Uiso   1.00
N79    N     0.64908   0.18074   0.26416   0.00000  Uiso   1.00
N80    N     0.35092   0.15259   0.23584   0.00000  Uiso   1.00
O81    O     0.46131   0.23807   0.24633   0.00000  Uiso   1.00
O82    O     0.56191   0.24755   0.25586   0.00000  Uiso   1.00
O83    O     0.42515   0.15960   0.31840   0.00000  Uiso   1.00
O84    O     0.52575   0.16908   0.32793   0.00000  Uiso   1.00
O85    O     0.43809   0.08578   0.24414   0.00000  Uiso   1.00
O86    O     0.53869   0.09526   0.25367   0.00000  Uiso   1.00
O87    O     0.47425   0.16425   0.17207   0.00000  Uiso   1.00
O88    O     0.57485   0.17373   0.18160   0.00000  Uiso   1.00
O89    O     0.33914   0.12038   0.39506   0.00000  Uiso   1.00
H90    H     0.63159   0.10265   0.41651   0.00000  Uiso   1.00
O91    O     0.54935   0.25521   0.37723   0.00000  Uiso   1.00
H92    H     0.59065   0.28067   0.37120   0.00000  Uiso   1.00
C93    C     0.84842   0.26674   0.25159   0.00000  Uiso   1.00
C94    C     0.80569   0.16969   0.48807   0.00000  Uiso   1.00
C95    C     0.82034   0.18695   0.43665   0.00000  Uiso   1.00
C96    C     0.85319   0.18185   0.01753   0.00000  Uiso   1.00
C97    C     0.91232   0.21503   0.49719   0.00000  Uiso   1.00
C98    C     0.92277   0.23748   0.44940   0.00000  Uiso   1.00
C99    C     0.87644   0.22574   0.41989   0.00000  Uiso   1.00
C100   C     0.84352   0.16234   0.06701   0.00000  Uiso   1.00
C101   C     0.94709   0.21025   0.07631   0.00000  Uiso   1.00
C102   C     0.77754   0.16568   0.40406   0.00000  Uiso   1.00
C103   C     0.85688   0.32269   0.25247   0.00000  Uiso   1.00
C104   C     0.79944   0.16584   0.34744   0.00000  Uiso   1.00
C105   C     0.80965   0.01063   0.24790   0.00000  Uiso   1.00
C106   C     0.81819   0.06660   0.24856   0.00000  Uiso   1.00
C107   C     0.86741   0.17029   0.15279   0.00000  Uiso   1.00
C108   C     0.95933   0.22781   0.02618   0.00000  Uiso   1.00
C109   C     0.88815   0.17890   0.09740   0.00000  Uiso   1.00
C110   C     0.71562   0.13822   0.42579   0.00000  Uiso   1.00
C111   C     0.69900   0.12825   0.47833   0.00000  Uiso   1.00
C112   C     0.74345   0.14218   0.00859   0.00000  Uiso   1.00
Cu113  Cu    0.77377   0.16105   0.24436   0.00000  Uiso   1.00
Cu114  Cu    0.89290   0.17228   0.25565   0.00000  Uiso   1.00
H115   H     0.98229   0.22336   0.09928   0.00000  Uiso   1.00
H116   H     0.76413   0.32016   0.24358   0.00000  Uiso   1.00
H117   H     0.67020   0.20583   0.28975   0.00000  Uiso   1.00
H118   H     0.99643   0.12748   0.21029   0.00000  Uiso   1.00
H119   H     0.96647   0.26569   0.43564   0.00000  Uiso   1.00
H120   H     0.67134   0.25316   0.01080   0.00000  Uiso   1.00
H121   H     0.80068   0.13516   0.08378   0.00000  Uiso   1.00
H122   H     0.72667   0.13226   0.04846   0.00000  Uiso   1.00
H123   H     0.98496   0.10786   0.49582   0.00000  Uiso   1.00
H124   H     0.90239   0.01317   0.25682   0.00000  Uiso   1.00
N125   N     0.98241   0.18074   0.26416   0.00000  Uiso   1.00
N126   N     0.68426   0.15259   0.23584   0.00000  Uiso   1.00
O127   O     0.79464   0.23807   0.24633   0.00000  Uiso   1.00
O128   O     0.89524   0.24755   0.25586   0.00000  Uiso   1.00
O129   O     0.75848   0.15960   0.31840   0.00000  Uiso   1.00
O130   O     0.85908   0.16908   0.32793   0.00000  Uiso   1.00
O131   O     0.77142   0.08578   0.24414   0.00000  Uiso   1.00
O132   O     0.87203   0.09526   0.25367   0.00000  Uiso   1.00
O133   O     0.80758   0.16425   0.17207   0.00000  Uiso   1.00
O134   O     0.90819   0.17373   0.18160   0.00000  Uiso   1.00
O135   O     0.67247   0.12038   0.39506   0.00000  Uiso   1.00
H136   H     0.96492   0.10265   0.41651   0.00000  Uiso   1.00
O137   O     0.88268   0.25521   0.37723   0.00000  Uiso   1.00
H138   H     0.92398   0.28067   0.37120   0.00000  Uiso   1.00
C139   C     0.18175   0.60007   0.25159   0.00000  Uiso   1.00
C140   C     0.13902   0.50302   0.48807   0.00000  Uiso   1.00
C141   C     0.15367   0.52028   0.43665   0.00000  Uiso   1.00
C142   C     0.18652   0.51519   0.01753   0.00000  Uiso   1.00
C143   C     0.24565   0.54836   0.49719   0.00000  Uiso   1.00
C144   C     0.25610   0.57081   0.44940   0.00000  Uiso   1.00
C145   C     0.20978   0.55908   0.41989   0.00000  Uiso   1.00
C146   C     0.17685   0.49567   0.06701   0.00000  Uiso   1.00
C147   C     0.28042   0.54359   0.07631   0.00000  Uiso   1.00
C148   C     0.11087   0.49902   0.40406   0.00000  Uiso   1.00
C149   C     0.19022   0.65603   0.25247   0.00000  Uiso   1.00
C150   C     0.13277   0.49918   0.34744   0.00000  Uiso   1.00
C151   C     0.14298   0.34397   0.24790   0.00000  Uiso   1.00
C152   C     0.15153   0.39993   0.24856   0.00000  Uiso   1.00
C153   C     0.20074   0.50363   0.15279   0.00000  Uiso   1.00
C154   C     0.29266   0.56114   0.02618   0.00000  Uiso   1.00
C155   C     0.22149   0.51224   0.09740   0.00000  Uiso   1.00
C156   C     0.04895   0.47155   0.42579   0.00000  Uiso   1.00
C157   C     0.03233   0.46159   0.47833   0.00000  Uiso   1.00
C158   C     0.07679   0.47551   0.00859   0.00000  Uiso   1.00
Cu159  Cu    0.10710   0.49439   0.24436   0.00000  Uiso   1.00
Cu160  Cu    0.22623   0.50561   0.25565   0.00000  Uiso   1.00
H161   H     0.31562   0.55669   0.09928   0.00000  Uiso   1.00
H162   H     0.09746   0.65349   0.24358   0.00000  Uiso   1.00
H163   H     0.00353   0.53916   0.28975   0.00000  Uiso   1.00
H164   H     0.32976   0.46081   0.21029   0.00000  Uiso   1.00
H165   H     0.29981   0.59902   0.43564   0.00000  Uiso   1.00
H166   H     0.00467   0.58649   0.01080   0.00000  Uiso   1.00
H167   H     0.13401   0.46850   0.08378   0.00000  Uiso   1.00
H168   H     0.06000   0.46560   0.04846   0.00000  Uiso   1.00
H169   H     0.31829   0.44119   0.49582   0.00000  Uiso   1.00
H170   H     0.23573   0.34650   0.25682   0.00000  Uiso   1.00
N171   N     0.31574   0.51407   0.26416   0.00000  Uiso   1.00
N172   N     0.01759   0.48593   0.23584   0.00000  Uiso   1.00
O173   O     0.12797   0.57141   0.24633   0.00000  Uiso   1.00
O174   O     0.22858   0.58089   0.25586   0.00000  Uiso   1.00
O175   O     0.09181   0.49293   0.31840   0.00000  Uiso   1.00
O176   O     0.19242   0.50241   0.32793   0.00000  Uiso   1.00
O177   O     0.10476   0.41911   0.24414   0.00000  Uiso   1.00
O178   O     0.20536   0.42859   0.25367   0.00000  Uiso   1.00
O179   O     0.14092   0.49759   0.17207   0.00000  Uiso   1.00
O180   O     0.24152   0.50707   0.18160   0.00000  Uiso   1.00
O181   O     0.00580   0.45371   0.39506   0.00000  Uiso   1.00
H182   H     0.29825   0.43599   0.41651   0.00000  Uiso   1.00
O183   O     0.21602   0.58854   0.37723   0.00000  Uiso   1.00
H184   H     0.25731   0.61400   0.37120   0.00000  Uiso   1.00
C185   C     0.51508   0.60007   0.25159   0.00000  Uiso   1.00
C186   C     0.47236   0.50302   0.48807   0.00000  Uiso   1.00
C187   C     0.48701   0.52028   0.43665   0.00000  Uiso   1.00
C188   C     0.51985   0.51519   0.01753   0.00000  Uiso   1.00
C189   C     0.57898   0.54836   0.49719   0.00000  Uiso   1.00
C190   C     0.58943   0.57081   0.44940   0.00000  Uiso   1.00
C191   C     0.54311   0.55908   0.41989   0.00000  Uiso   1.00
C192   C     0.51019   0.49567   0.06701   0.00000  Uiso   1.00
C193   C     0.61376   0.54359   0.07631   0.00000  Uiso   1.00
C194   C     0.44420   0.49902   0.40406   0.00000  Uiso   1.00
C195   C     0.52355   0.65603   0.25247   0.00000  Uiso   1.00
C196   C     0.46610   0.49918   0.34744   0.00000  Uiso   1.00
C197   C     0.47632   0.34397   0.24790   0.00000  Uiso   1.00
C198   C     0.48486   0.39993   0.24856   0.00000  Uiso   1.00
C199   C     0.53408   0.50363   0.15279   0.00000  Uiso   1.00
C200   C     0.62600   0.56114   0.02618   0.00000  Uiso   1.00
C201   C     0.55482   0.51224   0.09740   0.00000  Uiso   1.00
C202   C     0.38229   0.47155   0.42579   0.00000  Uiso   1.00
C203   C     0.36566   0.46159   0.47833   0.00000  Uiso   1.00
C204   C     0.41012   0.47551   0.00859   0.00000  Uiso   1.00
Cu205  Cu    0.44043   0.49439   0.24436   0.00000  Uiso   1.00
Cu206  Cu    0.55957   0.50561   0.25565   0.00000  Uiso   1.00
H207   H     0.64895   0.55669   0.09928   0.00000  Uiso   1.00
H208   H     0.43080   0.65349   0.24358   0.00000  Uiso   1.00
H209   H     0.33687   0.53916   0.28975   0.00000  Uiso   1.00
H210   H     0.66310   0.46081   0.21029   0.00000  Uiso   1.00
H211   H     0.63314   0.59902   0.43564   0.00000  Uiso   1.00
H212   H     0.33801   0.58649   0.01080   0.00000  Uiso   1.00
H213   H     0.46734   0.46850   0.08378   0.00000  Uiso   1.00
H214   H     0.39334   0.46560   0.04846   0.00000  Uiso   1.00
H215   H     0.65163   0.44119   0.49582   0.00000  Uiso   1.00
H216   H     0.56906   0.34650   0.25682   0.00000  Uiso   1.00
N217   N     0.64908   0.51407   0.26416   0.00000  Uiso   1.00
N218   N     0.35092   0.48593   0.23584   0.00000  Uiso   1.00
O219   O     0.46131   0.57141   0.24633   0.00000  Uiso   1.00
O220   O     0.56191   0.58089   0.25586   0.00000  Uiso   1.00
O221   O     0.42515   0.49293   0.31840   0.00000  Uiso   1.00
O222   O     0.52575   0.50241   0.32793   0.00000  Uiso   1.00
O223   O     0.43809   0.41911   0.24414   0.00000  Uiso   1.00
O224   O     0.53869   0.42859   0.25367   0.00000  Uiso   1.00
O225   O     0.47425   0.49759   0.17207   0.00000  Uiso   1.00
O226   O     0.57485   0.50707   0.18160   0.00000  Uiso   1.00
O227   O     0.33914   0.45371   0.39506   0.00000  Uiso   1.00
H228   H     0.63159   0.43599   0.41651   0.00000  Uiso   1.00
O229   O     0.54935   0.58854   0.37723   0.00000  Uiso   1.00
H230   H     0.59065   0.61400   0.37120   0.00000  Uiso   1.00
C231   C     0.84842   0.60007   0.25159   0.00000  Uiso   1.00
C232   C     0.80569   0.50302   0.48807   0.00000  Uiso   1.00
C233   C     0.82034   0.52028   0.43665   0.00000  Uiso   1.00
C234   C     0.85319   0.51519   0.01753   0.00000  Uiso   1.00
C235   C     0.91232   0.54836   0.49719   0.00000  Uiso   1.00
C236   C     0.92277   0.57081   0.44940   0.00000  Uiso   1.00
C237   C     0.87644   0.55908   0.41989   0.00000  Uiso   1.00
C238   C     0.84352   0.49567   0.06701   0.00000  Uiso   1.00
C239   C     0.94709   0.54359   0.07631   0.00000  Uiso   1.00
C240   C     0.77754   0.49902   0.40406   0.00000  Uiso   1.00
C241   C     0.85688   0.65603   0.25247   0.00000  Uiso   1.00
C242   C     0.79944   0.49918   0.34744   0.00000  Uiso   1.00
C243   C     0.80965   0.34397   0.24790   0.00000  Uiso   1.00
C244   C     0.81819   0.39993   0.24856   0.00000  Uiso   1.00
C245   C     0.86741   0.50363   0.15279   0.00000  Uiso   1.00
C246   C     0.95933   0.56114   0.02618   0.00000  Uiso   1.00
C247   C     0.88815   0.51224   0.09740   0.00000  Uiso   1.00
C248   C     0.71562   0.47155   0.42579   0.00000  Uiso   1.00
C249   C     0.69900   0.46159   0.47833   0.00000  Uiso   1.00
C250   C     0.74345   0.47551   0.00859   0.00000  Uiso   1.00
Cu251  Cu    0.77377   0.49439   0.24436   0.00000  Uiso   1.00
Cu252  Cu    0.89290   0.50561   0.25565   0.00000  Uiso   1.00
H253   H     0.98229   0.55669   0.09928   0.00000  Uiso   1.00
H254   H     0.76413   0.65349   0.24358   0.00000  Uiso   1.00
H255   H     0.67020   0.53916   0.28975   0.00000  Uiso   1.00
H256   H     0.99643   0.46081   0.21029   0.00000  Uiso   1.00
H257   H     0.96647   0.59902   0.43564   0.00000  Uiso   1.00
H258   H     0.67134   0.58649   0.01080   0.00000  Uiso   1.00
H259   H     0.80068   0.46850   0.08378   0.00000  Uiso   1.00
H260   H     0.72667   0.46560   0.04846   0.00000  Uiso   1.00
H261   H     0.98496   0.44119   0.49582   0.00000  Uiso   1.00
H262   H     0.90239   0.34650   0.25682   0.00000  Uiso   1.00
N263   N     0.98241   0.51407   0.26416   0.00000  Uiso   1.00
N264   N     0.68426   0.48593   0.23584   0.00000  Uiso   1.00
O265   O     0.79464   0.57141   0.24633   0.00000  Uiso   1.00
O266   O     0.89524   0.58089   0.25586   0.00000  Uiso   1.00
O267   O     0.75848   0.49293   0.31840   0.00000  Uiso   1.00
O268   O     0.85908   0.50241   0.32793   0.00000  Uiso   1.00
O269   O     0.77142   0.41911   0.24414   0.00000  Uiso   1.00
O270   O     0.87203   0.42859   0.25367   0.00000  Uiso   1.00
O271   O     0.80758   0.49759   0.17207   0.00000  Uiso   1.00
O272   O     0.90819   0.50707   0.18160   0.00000  Uiso   1.00
O273   O     0.67247   0.45371   0.39506   0.00000  Uiso   1.00
H274   H     0.96492   0.43599   0.41651   0.00000  Uiso   1.00
O275   O     0.88268   0.58854   0.37723   0.00000  Uiso   1.00
H276   H     0.92398   0.61400   0.37120   0.00000  Uiso   1.00
C277   C     0.18175   0.93340   0.25159   0.00000  Uiso   1.00
C278   C     0.13902   0.83635   0.48807   0.00000  Uiso   1.00
C279   C     0.15367   0.85362   0.43665   0.00000  Uiso   1.00
C280   C     0.18652   0.84852   0.01753   0.00000  Uiso   1.00
C281   C     0.24565   0.88169   0.49719   0.00000  Uiso   1.00
C282   C     0.25610   0.90415   0.44940   0.00000  Uiso   1.00
C283   C     0.20978   0.89241   0.41989   0.00000  Uiso   1.00
C284   C     0.17685   0.82900   0.06701   0.00000  Uiso   1.00
C285   C     0.28042   0.87692   0.07631   0.00000  Uiso   1.00
C286   C     0.11087   0.83235   0.40406   0.00000  Uiso   1.00
C287   C     0.19022   0.98936   0.25247   0.00000  Uiso   1.00
C288   C     0.13277   0.83251   0.34744   0.00000  Uiso   1.00
C289   C     0.14298   0.67730   0.24790   0.00000  Uiso   1.00
C290   C     0.15153   0.73326   0.24856   0.00000  Uiso   1.00
C291   C     0.20074   0.83696   0.15279   0.00000  Uiso   1.00
C292   C     0.29266   0.89447   0.02618   0.00000  Uiso   1.00
C293   C     0.22149   0.84557   0.09740   0.00000  Uiso   1.00
C294   C     0.04895   0.80488   0.42579   0.00000  Uiso   1.00
C295   C     0.03233   0.79492   0.47833   0.00000  Uiso   1.00
C296   C     0.07679   0.80884   0.00859   0.00000  Uiso   1.00
Cu297  Cu    0.10710   0.82772   0.24436   0.00000  Uiso   1.00
Cu298  Cu    0.22623   0.83895   0.25565   0.00000  Uiso   1.00
H299   H     0.31562   0.89002   0.09928   0.00000  Uiso   1.00
H300   H     0.09746   0.98682   0.24358   0.00000  Uiso   1.00
H301   H     0.00353   0.87249   0.28975   0.00000  Uiso   1.00
H302   H     0.32976   0.79414   0.21029   0.00000  Uiso   1.00
H303   H     0.29981   0.93235   0.43564   0.00000  Uiso   1.00
H304   H     0.00467   0.91982   0.01080   0.00000  Uiso   1.00
H305   H     0.13401   0.80183   0.08378   0.00000  Uiso   1.00
H306   H     0.06000   0.79893   0.04846   0.00000  Uiso   1.00
H307   H     0.31829   0.77452   0.49582   0.00000  Uiso   1.00
H308   H     0.23573   0.67983   0.25682   0.00000  Uiso   1.00
N309   N     0.31574   0.84741   0.26416   0.00000  Uiso   1.00
N310   N     0.01759   0.81926   0.23584   0.00000  Uiso   1.00
O311   O     0.12797   0.90474   0.24633   0.00000  Uiso   1.00
O312   O     0.22858   0.91422   0.25586   0.00000  Uiso   1.00
O313   O     0.09181   0.82627   0.31840   0.00000  Uiso   1.00
O314   O     0.19242   0.83575   0.32793   0.00000  Uiso   1.00
O315   O     0.10476   0.75245   0.24414   0.00000  Uiso   1.00
O316   O     0.20536   0.76193   0.25367   0.00000  Uiso   1.00
O317   O     0.14092   0.83092   0.17207   0.00000  Uiso   1.00
O318   O     0.24152   0.84040   0.18160   0.00000  Uiso   1.00
O319   O     0.00580   0.78705   0.39506   0.00000  Uiso   1.00
H320   H     0.29825   0.76932   0.41651   0.00000  Uiso   1.00
O321   O     0.21602   0.92188   0.37723   0.00000  Uiso   1.00
H322   H     0.25731   0.94734   0.37120   0.00000  Uiso   1.00
C323   C     0.51508   0.93340   0.25159   0.00000  Uiso   1.00
C324   C     0.47236   0.83635   0.48807   0.00000  Uiso   1.00
C325   C     0.48701   0.85362   0.43665   0.00000  Uiso   1.00
C326   C     0.51985   0.84852   0.01753   0.00000  Uiso   1.00
C327   C     0.57898   0.88169   0.49719   0.00000  Uiso   1.00
C328   C     0.58943   0.90415   0.44940   0.00000  Uiso   1.00
C329   C     0.54311   0.89241   0.41989   0.00000  Uiso   1.00
C330   C     0.51019   0.82900   0.06701   0.00000  Uiso   1.00
C331   C     0.61376   0.87692   0.07631   0.00000  Uiso   1.00
C332   C     0.44420   0.83235   0.40406   0.00000  Uiso   1.00
C333   C     0.52355   0.98936   0.25247   0.00000  Uiso   1.00
C334   C     0.46610   0.83251   0.34744   0.00000  Uiso   1.00
C335   C     0.47632   0.67730   0.24790   0.00000  Uiso   1.00
C336   C     0.48486   0.73326   0.24856   0.00000  Uiso   1.00
C337   C     0.53408   0.83696   0.15279   0.00000  Uiso   1.00
C338   C     0.62600   0.89447   0.02618   0.00000  Uiso   1.00
C339   C     0.55482   0.84557   0.09740   0.00000  Uiso   1.00
C340   C     0.38229   0.80488   0.42579   0.00000  Uiso   1.00
C341   C     0.36566   0.79492   0.47833   0.00000  Uiso   1.00
C342   C     0.41012   0.80884   0.00859   0.00000  Uiso   1.00
Cu343  Cu    0.44043   0.82772   0.24436   0.00000  Uiso   1.00
Cu344  Cu    0.55957   0.83895   0.25565   0.00000  Uiso   1.00
H345   H     0.64895   0.89002   0.09928   0.00000  Uiso   1.00
H346   H     0.43080   0.98682   0.24358   0.00000  Uiso   1.00
H347   H     0.33687   0.87249   0.28975   0.00000  Uiso   1.00
H348   H     0.66310   0.79414   0.21029   0.00000  Uiso   1.00
H349   H     0.63314   0.93235   0.43564   0.00000  Uiso   1.00
H350   H     0.33801   0.91982   0.01080   0.00000  Uiso   1.00
H351   H     0.46734   0.80183   0.08378   0.00000  Uiso   1.00
H352   H     0.39334   0.79893   0.04846   0.00000  Uiso   1.00
H353   H     0.65163   0.77452   0.49582   0.00000  Uiso   1.00
H354   H     0.56906   0.67983   0.25682   0.00000  Uiso   1.00
N355   N     0.64908   0.84741   0.26416   0.00000  Uiso   1.00
N356   N     0.35092   0.81926   0.23584   0.00000  Uiso   1.00
O357   O     0.46131   0.90474   0.24633   0.00000  Uiso   1.00
O358   O     0.56191   0.91422   0.25586   0.00000  Uiso   1.00
O359   O     0.42515   0.82627   0.31840   0.00000  Uiso   1.00
O360   O     0.52575   0.83575   0.32793   0.00000  Uiso   1.00
O361   O     0.43809   0.75245   0.24414   0.00000  Uiso   1.00
O362   O     0.53869   0.76193   0.25367   0.00000  Uiso   1.00
O363   O     0.47425   0.83092   0.17207   0.00000  Uiso   1.00
O364   O     0.57485   0.84040   0.18160   0.00000  Uiso   1.00
O365   O     0.33914   0.78705   0.39506   0.00000  Uiso   1.00
H366   H     0.63159   0.76932   0.41651   0.00000  Uiso   1.00
O367   O     0.54935   0.92188   0.37723   0.00000  Uiso   1.00
H368   H     0.59065   0.94734   0.37120   0.00000  Uiso   1.00
C369   C     0.84842   0.93340   0.25159   0.00000  Uiso   1.00
C370   C     0.80569   0.83635   0.48807   0.00000  Uiso   1.00
C371   C     0.82034   0.85362   0.43665   0.00000  Uiso   1.00
C372   C     0.85319   0.84852   0.01753   0.00000  Uiso   1.00
C373   C     0.91232   0.88169   0.49719   0.00000  Uiso   1.00
C374   C     0.92277   0.90415   0.44940   0.00000  Uiso   1.00
C375   C     0.87644   0.89241   0.41989   0.00000  Uiso   1.00
C376   C     0.84352   0.82900   0.06701   0.00000  Uiso   1.00
C377   C     0.94709   0.87692   0.07631   0.00000  Uiso   1.00
C378   C     0.77754   0.83235   0.40406   0.00000  Uiso   1.00
C379   C     0.85688   0.98936   0.25247   0.00000  Uiso   1.00
C380   C     0.79944   0.83251   0.34744   0.00000  Uiso   1.00
C381   C     0.80965   0.67730   0.24790   0.00000  Uiso   1.00
C382   C     0.81819   0.73326   0.24856   0.00000  Uiso   1.00
C383   C     0.86741   0.83696   0.15279   0.00000  Uiso   1.00
C384   C     0.95933   0.89447   0.02618   0.00000  Uiso   1.00
C385   C     0.88815   0.84557   0.09740   0.00000  Uiso   1.00
C386   C     0.71562   0.80488   0.42579   0.00000  Uiso   1.00
C387   C     0.69900   0.79492   0.47833   0.00000  Uiso   1.00
C388   C     0.74345   0.80884   0.00859   0.00000  Uiso   1.00
Cu389  Cu    0.77377   0.82772   0.24436   0.00000  Uiso   1.00
Cu390  Cu    0.89290   0.83895   0.25565   0.00000  Uiso   1.00
H391   H     0.98229   0.89002   0.09928   0.00000  Uiso   1.00
H392   H     0.76413   0.98682   0.24358   0.00000  Uiso   1.00
H393   H     0.67020   0.87249   0.28975   0.00000  Uiso   1.00
H394   H     0.99643   0.79414   0.21029   0.00000  Uiso   1.00
H395   H     0.96647   0.93235   0.43564   0.00000  Uiso   1.00
H396   H     0.67134   0.91982   0.01080   0.00000  Uiso   1.00
H397   H     0.80068   0.80183   0.08378   0.00000  Uiso   1.00
H398   H     0.72667   0.79893   0.04846   0.00000  Uiso   1.00
H399   H     0.98496   0.77452   0.49582   0.00000  Uiso   1.00
H400   H     0.90239   0.67983   0.25682   0.00000  Uiso   1.00
N401   N     0.98241   0.84741   0.26416   0.00000  Uiso   1.00
N402   N     0.68426   0.81926   0.23584   0.00000  Uiso   1.00
O403   O     0.79464   0.90474   0.24633   0.00000  Uiso   1.00
O404   O     0.89524   0.91422   0.25586   0.00000  Uiso   1.00
O405   O     0.75848   0.82627   0.31840   0.00000  Uiso   1.00
O406   O     0.85908   0.83575   0.32793   0.00000  Uiso   1.00
O407   O     0.77142   0.75245   0.24414   0.00000  Uiso   1.00
O408   O     0.87203   0.76193   0.25367   0.00000  Uiso   1.00
O409   O     0.80758   0.83092   0.17207   0.00000  Uiso   1.00
O410   O     0.90819   0.84040   0.18160   0.00000  Uiso   1.00
O411   O     0.67247   0.78705   0.39506   0.00000  Uiso   1.00
H412   H     0.96492   0.76932   0.41651   0.00000  Uiso   1.00
O413   O     0.88268   0.92188   0.37723   0.00000  Uiso   1.00
H414   H     0.92398   0.94734   0.37120   0.00000  Uiso   1.00
C415   C     0.18175   0.26674   0.75159   0.00000  Uiso   1.00
C416   C     0.13902   0.16969   0.98807   0.00000  Uiso   1.00
C417   C     0.15367   0.18695   0.93665   0.00000  Uiso   1.00
C418   C     0.18652   0.18185   0.51753   0.00000  Uiso   1.00
C419   C     0.24565   0.21503   0.99719   0.00000  Uiso   1.00
C420   C     0.25610   0.23748   0.94940   0.00000  Uiso   1.00
C421   C     0.20978   0.22574   0.91989   0.00000  Uiso   1.00
C422   C     0.17685   0.16234   0.56701   0.00000  Uiso   1.00
C423   C     0.28042   0.21025   0.57631   0.00000  Uiso   1.00
C424   C     0.11087   0.16568   0.90406   0.00000  Uiso   1.00
C425   C     0.19022   0.32269   0.75247   0.00000  Uiso   1.00
C426   C     0.13277   0.16584   0.84744   0.00000  Uiso   1.00
C427   C     0.14298   0.01063   0.74790   0.00000  Uiso   1.00
C428   C     0.15153   0.06660   0.74856   0.00000  Uiso   1.00
C429   C     0.20074   0.17029   0.65279   0.00000  Uiso   1.00
C430   C     0.29266   0.22781   0.52618   0.00000  Uiso   1.00
C431   C     0.22149   0.17890   0.59740   0.00000  Uiso   1.00
C432   C     0.04895   0.13822   0.92579   0.00000  Uiso   1.00
C433   C     0.03233   0.12825   0.97833   0.00000  Uiso   1.00
C434   C     0.07679   0.14218   0.50859   0.00000  Uiso   1.00
Cu435  Cu    0.10710   0.16105   0.74436   0.00000  Uiso   1.00
Cu436  Cu    0.22623   0.17228   0.75565   0.00000  Uiso   1.00
H437   H     0.31562   0.22336   0.59928   0.00000  Uiso   1.00
H438   H     0.09746   0.32016   0.74358   0.00000  Uiso   1.00
H439   H     0.00353   0.20583   0.78975   0.00000  Uiso   1.00
H440   H     0.32976   0.12748   0.71029   0.00000  Uiso   1.00
H441   H     0.29981   0.26569   0.93564   0.00000  Uiso   1.00
H442   H     0.00467   0.25316   0.51080   0.00000  Uiso   1.00
H443   H     0.13401   0.13516   0.58378   0.00000  Uiso   1.00
H444   H     0.06000   0.13226   0.54846   0.00000  Uiso   1.00
H445   H     0.31829   0.10786   0.99582   0.00000  Uiso   1.00
H446   H     0.23573   0.01317   0.75682   0.00000  Uiso   1.00
N447   N     0.31574   0.18074   0.76416   0.00000  Uiso   1.00
N448   N     0.01759   0.15259   0.73584   0.00000  Uiso   1.00
O449   O     0.12797   0.23807   0.74633   0.00000  Uiso   1.00
O450   O     0.22858   0.24755   0.75586   0.00000  Uiso   1.00
O451   O     0.09181   0.15960   0.81840   0.00000  Uiso   1.00
O452   O     0.19242   0.16908   0.82793   0.00000  Uiso   1.00
O453   O     0.10476   0.08578   0.74414   0.00000  Uiso   1.00
O454   O     0.20536   0.09526   0.75367   0.00000  Uiso   1.00
O455   O     0.14092   0.16425   0.67207   0.00000  Uiso   1.00
O456   O     0.24152   0.17373   0.68160   0.00000  Uiso   1.00
O457   O     0.00580   0.12038   0.89506   0.00000  Uiso   1.00
H458   H     0.29825   0.10265   0.91651   0.00000  Uiso   1.00
O459   O     0.21602   0.25521   0.87723   0.00000  Uiso   1.00
H460   H     0.25731   0.28067   0.87120   0.00000  Uiso   1.00
C461   C     0.51508   0.26674   0.75159   0.00000  Uiso   1.00
C462   C     0.47236   0.16969   0.98807   0.00000  Uiso   1.00
C463   C     0.48701   0.18695   0.93665   0.00000  Uiso   1.00
C464   C     0.51985   0.18185   0.51753   0.00000  Uiso   1.00
C465   C     0.57898   0.21503   0.99719   0.00000  Uiso   1.00
C466   C     0.58943   0.23748   0.94940   0.00000  Uiso   1.00
C467   C     0.54311   0.22574   0.91989   0.00000  Uiso   1.00
C468   C     0.51019   0.16234   0.56701   0.00000  Uiso   1.00
C469   C     0.61376   0.21025   0.57631   0.00000  Uiso   1.00
C470   C     0.44420   0.16568   0.90406   0.00000  Uiso   1.00
C471   C     0.52355   0.32269   0.75247   0.00000  Uiso   1.00
C472   C     0.46610   0.16584   0.84744   0.00000  Uiso   1.00
C473   C     0.47632   0.01063   0.74790   0.00000  Uiso   1.00
C474   C     0.48486   0.06660   0.74856   0.00000  Uiso   1.00
C475   C     0.53408   0.17029   0.65279   0.00000  Uiso   1.00
C476   C     0.62600   0.22781   0.52618   0.00000  Uiso   1.00
C477   C     0.55482   0.17890   0.59740   0.00000  Uiso   1.00
C478   C     0.38229   0.13822   0.92579   0.00000  Uiso   1.00
C479   C     0.36566   0.12825   0.97833   0.00000  Uiso   1.00
C480   C     0.41012   0.14218   0.50859   0.00000  Uiso   1.00
Cu481  Cu    0.44043   0.16105   0.74436   0.00000  Uiso   1.00
Cu482  Cu    0.55957   0.17228   0.75565   0.00000  Uiso   1.00
H483   H     0.64895   0.22336   0.59928   0.00000  Uiso   1.00
H484   H     0.43080   0.32016   0.74358   0.00000  Uiso   1.00
H485   H     0.33687   0.20583   0.78975   0.00000  Uiso   1.00
H486   H     0.66310   0.12748   0.71029   0.00000  Uiso   1.00
H487   H     0.63314   0.26569   0.93564   0.00000  Uiso   1.00
H488   H     0.33801   0.25316   0.51080   0.00000  Uiso   1.00
H489   H     0.46734   0.13516   0.58378   0.00000  Uiso   1.00
H490   H     0.39334   0.13226   0.54846   0.00000  Uiso   1.00
H491   H     0.65163   0.10786   0.99582   0.00000  Uiso   1.00
H492   H     0.56906   0.01317   0.75682   0.00000  Uiso   1.00
N493   N     0.64908   0.18074   0.76416   0.00000  Uiso   1.00
N494   N     0.35092   0.15259   0.73584   0.00000  Uiso   1.00
O495   O     0.46131   0.23807   0.74633   0.00000  Uiso   1.00
O496   O     0.56191   0.24755   0.75586   0.00000  Uiso   1.00
O497   O     0.42515   0.15960   0.81840   0.00000  Uiso   1.00
O498   O     0.52575   0.16908   0.82793   0.00000  Uiso   1.00
O499   O     0.43809   0.08578   0.74414   0.00000  Uiso   1.00
O500   O     0.53869   0.09526   0.75367   0.00000  Uiso   1.00
O501   O     0.47425   0.16425   0.67207   0.00000  Uiso   1.00
O502   O     0.57485   0.17373   0.68160   0.00000  Uiso   1.00
O503   O     0.33914   0.12038   0.89506   0.00000  Uiso   1.00
H504   H     0.63159   0.10265   0.91651   0.00000  Uiso   1.00
O505   O     0.54935   0.25521   0.87723   0.00000  Uiso   1.00
H506   H     0.59065   0.28067   0.87120   0.00000  Uiso   1.00
C507   C     0.84842   0.26674   0.75159   0.00000  Uiso   1.00
C508   C     0.80569   0.16969   0.98807   0.00000  Uiso   1.00
C509   C     0.82034   0.18695   0.93665   0.00000  Uiso   1.00
C510   C     0.85319   0.18185   0.51753   0.00000  Uiso   1.00
C511   C     0.91232   0.21503   0.99719   0.00000  Uiso   1.00
C512   C     0.92277   0.23748   0.94940   0.00000  Uiso   1.00
C513   C     0.87644   0.22574   0.91989   0.00000  Uiso   1.00
C514   C     0.84352   0.16234   0.56701   0.00000  Uiso   1.00
C515   C     0.94709   0.21025   0.57631   0.00000  Uiso   1.00
C516   C     0.77754   0.16568   0.90406   0.00000  Uiso   1.00
C517   C     0.85688   0.32269   0.75247   0.00000  Uiso   1.00
C518   C     0.79944   0.16584   0.84744   0.00000  Uiso   1.00
C519   C     0.80965   0.01063   0.74790   0.00000  Uiso   1.00
C520   C     0.81819   0.06660   0.74856   0.00000  Uiso   1.00
C521   C     0.86741   0.17029   0.65279   0.00000  Uiso   1.00
C522   C     0.95933   0.22781   0.52618   0.00000  Uiso   1.00
C523   C     0.88815   0.17890   0.59740   0.00000  Uiso   1.00
C524   C     0.71562   0.13822   0.92579   0.00000  Uiso   1.00
C525   C     0.69900   0.12825   0.97833   0.00000  Uiso   1.00
C526   C     0.74345   0.14218   0.50859   0.00000  Uiso   1.00
Cu527  Cu    0.77377   0.16105   0.74436   0.00000  Uiso   1.00
Cu528  Cu    0.89290   0.17228   0.75565   0.00000  Uiso   1.00
H529   H     0.98229   0.22336   0.59928   0.00000  Uiso   1.00
H530   H     0.76413   0.32016   0.74358   0.00000  Uiso   1.00
H531   H     0.67020   0.20583   0.78975   0.00000  Uiso   1.00
H532   H     0.99643   0.12748   0.71029   0.00000  Uiso   1.00
H533   H     0.96647   0.26569   0.93564   0.00000  Uiso   1.00
H534   H     0.67134   0.25316   0.51080   0.00000  Uiso   1.00
H535   H     0.80068   0.13516   0.58378   0.00000  Uiso   1.00
H536   H     0.72667   0.13226   0.54846   0.00000  Uiso   1.00
H537   H     0.98496   0.10786   0.99582   0.00000  Uiso   1.00
H538   H     0.90239   0.01317   0.75682   0.00000  Uiso   1.00
N539   N     0.98241   0.18074   0.76416   0.00000  Uiso   1.00
N540   N     0.68426   0.15259   0.73584   0.00000  Uiso   1.00
O541   O     0.79464   0.23807   0.74633   0.00000  Uiso   1.00
O542   O     0.89524   0.24755   0.75586   0.00000  Uiso   1.00
O543   O     0.75848   0.15960   0.81840   0.00000  Uiso   1.00
O544   O     0.85908   0.16908   0.82793   0.00000  Uiso   1.00
O545   O     0.77142   0.08578   0.74414   0.00000  Uiso   1.00
O546   O     0.87203   0.09526   0.75367   0.00000  Uiso   1.00
O547   O     0.80758   0.16425   0.67207   0.00000  Uiso   1.00
O548   O     0.90819   0.17373   0.68160   0.00000  Uiso   1.00
O549   O     0.67247   0.12038   0.89506   0.00000  Uiso   1.00
H550   H     0.96492   0.10265   0.91651   0.00000  Uiso   1.00
O551   O     0.88268   0.25521   0.87723   0.00000  Uiso   1.00
H552   H     0.92398   0.28067   0.87120   0.00000  Uiso   1.00
C553   C     0.18175   0.60007   0.75159   0.00000  Uiso   1.00
C554   C     0.13902   0.50302   0.98807   0.00000  Uiso   1.00
C555   C     0.15367   0.52028   0.93665   0.00000  Uiso   1.00
C556   C     0.18652   0.51519   0.51753   0.00000  Uiso   1.00
C557   C     0.24565   0.54836   0.99719   0.00000  Uiso   1.00
C558   C     0.25610   0.57081   0.94940   0.00000  Uiso   1.00
C559   C     0.20978   0.55908   0.91989   0.00000  Uiso   1.00
C560   C     0.17685   0.49567   0.56701   0.00000  Uiso   1.00
C561   C     0.28042   0.54359   0.57631   0.00000  Uiso   1.00
C562   C     0.11087   0.49902   0.90406   0.00000  Uiso   1.00
C563   C     0.19022   0.65603   0.75247   0.00000  Uiso   1.00
C564   C     0.13277   0.49918   0.84744   0.00000  Uiso   1.00
C565   C     0.14298   0.34397   0.74790   0.00000  Uiso   1.00
C566   C     0.15153   0.39993   0.74856   0.00000  Uiso   1.00
C567   C     0.20074   0.50363   0.65279   0.00000  Uiso   1.00
C568   C     0.29266   0.56114   0.52618   0.00000  Uiso   1.00
C569   C     0.22149   0.51224   0.59740   0.00000  Uiso   1.00
C570   C     0.04895   0.47155   0.92579   0.00000  Uiso   1.00
C571   C     0.03233   0.46159   0.97833   0.00000  Uiso   1.00
C572   C     0.07679   0.47551   0.50859   0.00000  Uiso   1.00
Cu573  Cu    0.10710   0.49439   0.74436   0.00000  Uiso   1.00
Cu574  Cu    0.22623   0.50561   0.75565   0.00000  Uiso   1.00
H575   H     0.31562   0.55669   0.59928   0.00000  Uiso   1.00
H576   H     0.09746   0.65349   0.74358   0.00000  Uiso   1.00
H577   H     0.00353   0.53916   0.78975   0.00000  Uiso   1.00
H578   H     0.32976   0.46081   0.71029   0.00000  Uiso   1.00
H579   H     0.29981   0.59902   0.93564   0.00000  Uiso   1.00
H580   H     0.00467   0.58649   0.51080   0.00000  Uiso   1.00
H581   H     0.13401   0.46850   0.58378   0.00000  Uiso   1.00
H582   H     0.06000   0.46560   0.54846   0.00000  Uiso   1.00
H583   H     0.31829   0.44119   0.99582   0.00000  Uiso   1.00
H584   H     0.23573   0.34650   0.75682   0.00000  Uiso   1.00
N585   N     0.31574   0.51407   0.76416   0.00000  Uiso   1.00
N586   N     0.01759   0.48593   0.73584   0.00000  Uiso   1.00
O587   O     0.12797   0.57141   0.74633   0.00000  Uiso   1.00
O588   O     0.22858   0.58089   0.75586   0.00000  Uiso   1.00
O589   O     0.09181   0.49293   0.81840   0.00000  Uiso   1.00
O590   O     0.19242   0.50241   0.82793   0.00000  Uiso   1.00
O591   O     0.10476   0.41911   0.74414   0.00000  Uiso   1.00
O592   O     0.20536   0.42859   0.75367   0.00000  Uiso   1.00
O593   O     0.14092   0.49759   0.67207   0.00000  Uiso   1.00
O594   O     0.24152   0.50707   0.68160   0.00000  Uiso   1.00
O595   O     0.00580   0.45371   0.89506   0.00000  Uiso   1.00
H596   H     0.29825   0.43599   0.91651   0.00000  Uiso   1.00
O597   O     0.21602   0.58854   0.87723   0.00000  Uiso   1.00
H598   H     0.25731   0.61400   0.87120   0.00000  Uiso   1.00
C599   C     0.51508   0.60007   0.75159   0.00000  Uiso   1.00
C600   C     0.47236   0.50302   0.98807   0.00000  Uiso   1.00
C601   C     0.48701   0.52028   0.93665   0.00000  Uiso   1.00
C602   C     0.51985   0.51519   0.51753   0.00000  Uiso   1.00
C603   C     0.57898   0.54836   0.99719   0.00000  Uiso   1.00
C604   C     0.58943   0.57081   0.94940   0.00000  Uiso   1.00
C605   C     0.54311   0.55908   0.91989   0.00000  Uiso   1.00
C606   C     0.51019   0.49567   0.56701   0.00000  Uiso   1.00
C607   C     0.61376   0.54359   0.57631   0.00000  Uiso   1.00
C608   C     0.44420   0.49902   0.90406   0.00000  Uiso   1.00
C609   C     0.52355   0.65603   0.75247   0.00000  Uiso   1.00
C610   C     0.46610   0.49918   0.84744   0.00000  Uiso   1.00
C611   C     0.47632   0.34397   0.74790   0.00000  Uiso   1.00
C612   C     0.48486   0.39993   0.74856   0.00000  Uiso   1.00
C613   C     0.53408   0.50363   0.65279   0.00000  Uiso   1.00
C614   C     0.62600   0.56114   0.52618   0.00000  Uiso   1.00
C615   C     0.55482   0.51224   0.59740   0.00000  Uiso   1.00
C616   C     0.38229   0.47155   0.92579   0.00000  Uiso   1.00
C617   C     0.36566   0.46159   0.97833   0.00000  Uiso   1.00
C618   C     0.41012   0.47551   0.50859   0.00000  Uiso   1.00
Cu619  Cu    0.44043   0.49439   0.74436   0.00000  Uiso   1.00
Cu620  Cu    0.55957   0.50561   0.75565   0.00000  Uiso   1.00
H621   H     0.64895   0.55669   0.59928   0.00000  Uiso   1.00
H622   H     0.43080   0.65349   0.74358   0.00000  Uiso   1.00
H623   H     0.33687   0.53916   0.78975   0.00000  Uiso   1.00
H624   H     0.66310   0.46081   0.71029   0.00000  Uiso   1.00
H625   H     0.63314   0.59902   0.93564   0.00000  Uiso   1.00
H626   H     0.33801   0.58649   0.51080   0.00000  Uiso   1.00
H627   H     0.46734   0.46850   0.58378   0.00000  Uiso   1.00
H628   H     0.39334   0.46560   0.54846   0.00000  Uiso   1.00
H629   H     0.65163   0.44119   0.99582   0.00000  Uiso   1.00
H630   H     0.56906   0.34650   0.75682   0.00000  Uiso   1.00
N631   N     0.64908   0.51407   0.76416   0.00000  Uiso   1.00
N632   N     0.35092   0.48593   0.73584   0.00000  Uiso   1.00
O633   O     0.46131   0.57141   0.74633   0.00000  Uiso   1.00
O634   O     0.56191   0.58089   0.75586   0.00000  Uiso   1.00
O635   O     0.42515   0.49293   0.81840   0.00000  Uiso   1.00
O636   O     0.52575   0.50241   0.82793   0.00000  Uiso   1.00
O637   O     0.43809   0.41911   0.74414   0.00000  Uiso   1.00
O638   O     0.53869   0.42859   0.75367   0.00000  Uiso   1.00
O639   O     0.47425   0.49759   0.67207   0.00000  Uiso   1.00
O640   O     0.57485   0.50707   0.68160   0.00000  Uiso   1.00
O641   O     0.33914   0.45371   0.89506   0.00000  Uiso   1.00
H642   H     0.63159   0.43599   0.91651   0.00000  Uiso   1.00
O643   O     0.54935   0.58854   0.87723   0.00000  Uiso   1.00
H644   H     0.59065   0.61400   0.87120   0.00000  Uiso   1.00
C645   C     0.84842   0.60007   0.75159   0.00000  Uiso   1.00
C646   C     0.80569   0.50302   0.98807   0.00000  Uiso   1.00
C647   C     0.82034   0.52028   0.93665   0.00000  Uiso   1.00
C648   C     0.85319   0.51519   0.51753   0.00000  Uiso   1.00
C649   C     0.91232   0.54836   0.99719   0.00000  Uiso   1.00
C650   C     0.92277   0.57081   0.94940   0.00000  Uiso   1.00
C651   C     0.87644   0.55908   0.91989   0.00000  Uiso   1.00
C652   C     0.84352   0.49567   0.56701   0.00000  Uiso   1.00
C653   C     0.94709   0.54359   0.57631   0.00000  Uiso   1.00
C654   C     0.77754   0.49902   0.90406   0.00000  Uiso   1.00
C655   C     0.85688   0.65603   0.75247   0.00000  Uiso   1.00
C656   C     0.79944   0.49918   0.84744   0.00000  Uiso   1.00
C657   C     0.80965   0.34397   0.74790   0.00000  Uiso   1.00
C658   C     0.81819   0.39993   0.74856   0.00000  Uiso   1.00
C659   C     0.86741   0.50363   0.65279   0.00000  Uiso   1.00
C660   C     0.95933   0.56114   0.52618   0.00000  Uiso   1.00
C661   C     0.88815   0.51224   0.59740   0.00000  Uiso   1.00
C662   C     0.71562   0.47155   0.92579   0.00000  Uiso   1.00
C663   C     0.69900   0.46159   0.97833   0.00000  Uiso   1.00
C664   C     0.74345   0.47551   0.50859   0.00000  Uiso   1.00
Cu665  Cu    0.77377   0.49439   0.74436   0.00000  Uiso   1.00
Cu666  Cu    0.89290   0.50561   0.75565   0.00000  Uiso   1.00
H667   H     0.98229   0.55669   0.59928   0.00000  Uiso   1.00
H668   H     0.76413   0.65349   0.74358   0.00000  Uiso   1.00
H669   H     0.67020   0.53916   0.78975   0.00000  Uiso   1.00
H670   H     0.99643   0.46081   0.71029   0.00000  Uiso   1.00
H671   H     0.96647   0.59902   0.93564   0.00000  Uiso   1.00
H672   H     0.67134   0.58649   0.51080   0.00000  Uiso   1.00
H673   H     0.80068   0.46850   0.58378   0.00000  Uiso   1.00
H674   H     0.72667   0.46560   0.54846   0.00000  Uiso   1.00
H675   H     0.98496   0.44119   0.99582   0.00000  Uiso   1.00
H676   H     0.90239   0.34650   0.75682   0.00000  Uiso   1.00
N677   N     0.98241   0.51407   0.76416   0.00000  Uiso   1.00
N678   N     0.68426   0.48593   0.73584   0.00000  Uiso   1.00
O679   O     0.79464   0.57141   0.74633   0.00000  Uiso   1.00
O680   O     0.89524   0.58089   0.75586   0.00000  Uiso   1.00
O681   O     0.75848   0.49293   0.81840   0.00000  Uiso   1.00
O682   O     0.85908   0.50241   0.82793   0.00000  Uiso   1.00
O683   O     0.77142   0.41911   0.74414   0.00000  Uiso   1.00
O684   O     0.87203   0.42859   0.75367   0.00000  Uiso   1.00
O685   O     0.80758   0.49759   0.67207   0.00000  Uiso   1.00
O686   O     0.90819   0.50707   0.68160   0.00000  Uiso   1.00
O687   O     0.67247   0.45371   0.89506   0.00000  Uiso   1.00
H688   H     0.96492   0.43599   0.91651   0.00000  Uiso   1.00
O689   O     0.88268   0.58854   0.87723   0.00000  Uiso   1.00
H690   H     0.92398   0.61400   0.87120   0.00000  Uiso   1.00
C691   C     0.18175   0.93340   0.75159   0.00000  Uiso   1.00
C692   C     0.13902   0.83635   0.98807   0.00000  Uiso   1.00
C693   C     0.15367   0.85362   0.93665   0.00000  Uiso   1.00
C694   C     0.18652   0.84852   0.51753   0.00000  Uiso   1.00
C695   C     0.24565   0.88169   0.99719   0.00000  Uiso   1.00
C696   C     0.25610   0.90415   0.94940   0.00000  Uiso   1.00
C697   C     0.20978   0.89241   0.91989   0.00000  Uiso   1.00
C698   C     0.17685   0.82900   0.56701   0.00000  Uiso   1.00
C699   C     0.28042   0.87692   0.57631   0.00000  Uiso   1.00
C700   C     0.11087   0.83235   0.90406   0.00000  Uiso   1.00
C701   C     0.19022   0.98936   0.75247   0.00000  Uiso   1.00
C702   C     0.13277   0.83251   0.84744   0.00000  Uiso   1.00
C703   C     0.14298   0.67730   0.74790   0.00000  Uiso   1.00
C704   C     0.15153   0.73326   0.74856   0.00000  Uiso   1.00
C705   C     0.20074   0.83696   0.65279   0.00000  Uiso   1.00
C706   C     0.29266   0.89447   0.52618   0.00000  Uiso   1.00
C707   C     0.22149   0.84557   0.59740   0.00000  Uiso   1.00
C708   C     0.04895   0.80488   0.92579   0.00000  Uiso   1.00
C709   C     0.03233   0.79492   0.97833   0.00000  Uiso   1.00
C710   C     0.07679   0.80884   0.50859   0.00000  Uiso   1.00
Cu711  Cu    0.10710   0.82772   0.74436   0.00000  Uiso   1.00
Cu712  Cu    0.22623   0.83895   0.75565   0.00000  Uiso   1.00
H713   H     0.31562   0.89002   0.59928   0.00000  Uiso   1.00
H714   H     0.09746   0.98682   0.74358   0.00000  Uiso   1.00
H715   H     0.00353   0.87249   0.78975   0.00000  Uiso   1.00
H716   H     0.32976   0.79414   0.71029   0.00000  Uiso   1.00
H717   H     0.29981   0.93235   0.93564   0.00000  Uiso   1.00
H718   H     0.00467   0.91982   0.51080   0.00000  Uiso   1.00
H719   H     0.13401   0.80183   0.58378   0.00000  Uiso   1.00
H720   H     0.06000   0.79893   0.54846   0.00000  Uiso   1.00
H721   H     0.31829   0.77452   0.99582   0.00000  Uiso   1.00
H722   H     0.23573   0.67983   0.75682   0.00000  Uiso   1.00
N723   N     0.31574   0.84741   0.76416   0.00000  Uiso   1.00
N724   N     0.01759   0.81926   0.73584   0.00000  Uiso   1.00
O725   O     0.12797   0.90474   0.74633   0.00000  Uiso   1.00
O726   O     0.22858   0.91422   0.75586   0.00000  Uiso   1.00
O727   O     0.09181   0.82627   0.81840   0.00000  Uiso   1.00
O728   O     0.19242   0.83575   0.82793   0.00000  Uiso   1.00
O729   O     0.10476   0.75245   0.74414   0.00000  Uiso   1.00
O730   O     0.20536   0.76193   0.75367   0.00000  Uiso   1.00
O731   O     0.14092   0.83092   0.67207   0.00000  Uiso   1.00
O732   O     0.24152   0.84040   0.68160   0.00000  Uiso   1.00
O733   O     0.00580   0.78705   0.89506   0.00000  Uiso   1.00
H734   H     0.29825   0.76932   0.91651   0.00000  Uiso   1.00
O735   O     0.21602   0.92188   0.87723   0.00000  Uiso   1.00
H736   H     0.25731   0.94734   0.87120   0.00000  Uiso   1.00
C737   C     0.51508   0.93340   0.75159   0.00000  Uiso   1.00
C738   C     0.47236   0.83635   0.98807   0.00000  Uiso   1.00
C739   C     0.48701   0.85362   0.93665   0.00000  Uiso   1.00
C740   C     0.51985   0.84852   0.51753   0.00000  Uiso   1.00
C741   C     0.57898   0.88169   0.99719   0.00000  Uiso   1.00
C742   C     0.58943   0.90415   0.94940   0.00000  Uiso   1.00
C743   C     0.54311   0.89241   0.91989   0.00000  Uiso   1.00
C744   C     0.51019   0.82900   0.56701   0.00000  Uiso   1.00
C745   C     0.61376   0.87692   0.57631   0.00000  Uiso   1.00
C746   C     0.44420   0.83235   0.90406   0.00000  Uiso   1.00
C747   C     0.52355   0.98936   0.75247   0.00000  Uiso   1.00
C748   C     0.46610   0.83251   0.84744   0.00000  Uiso   1.00
C749   C     0.47632   0.67730   0.74790   0.00000  Uiso   1.00
C750   C     0.48486   0.73326   0.74856   0.00000  Uiso   1.00
C751   C     0.53408   0.83696   0.65279   0.00000  Uiso   1.00
C752   C     0.62600   0.89447   0.52618   0.00000  Uiso   1.00
C753   C     0.55482   0.84557   0.59740   0.00000  Uiso   1.00
C754   C     0.38229   0.80488   0.92579   0.00000  Uiso   1.00
C755   C     0.36566   0.79492   0.97833   0.00000  Uiso   1.00
C756   C     0.41012   0.80884   0.50859   0.00000  Uiso   1.00
Cu757  Cu    0.44043   0.82772   0.74436   0.00000  Uiso   1.00
Cu758  Cu    0.55957   0.83895   0.75565   0.00000  Uiso   1.00
H759   H     0.64895   0.89002   0.59928   0.00000  Uiso   1.00
H760   H     0.43080   0.98682   0.74358   0.00000  Uiso   1.00
H761   H     0.33687   0.87249   0.78975   0.00000  Uiso   1.00
H762   H     0.66310   0.79414   0.71029   0.00000  Uiso   1.00
H763   H     0.63314   0.93235   0.93564   0.00000  Uiso   1.00
H764   H     0.33801   0.91982   0.51080   0.00000  Uiso   1.00
H765   H     0.46734   0.80183   0.58378   0.00000  Uiso   1.00
H766   H     0.39334   0.79893   0.54846   0.00000  Uiso   1.00
H767   H     0.65163   0.77452   0.99582   0.00000  Uiso   1.00
H768   H     0.56906   0.67983   0.75682   0.00000  Uiso   1.00
N769   N     0.64908   0.84741   0.76416   0.00000  Uiso   1.00
N770   N     0.35092   0.81926   0.73584   0.00000  Uiso   1.00
O771   O     0.46131   0.90474   0.74633   0.00000  Uiso   1.00
O772   O     0.56191   0.91422   0.75586   0.00000  Uiso   1.00
O773   O     0.42515   0.82627   0.81840   0.00000  Uiso   1.00
O774   O     0.52575   0.83575   0.82793   0.00000  Uiso   1.00
O775   O     0.43809   0.75245   0.74414   0.00000  Uiso   1.00
O776   O     0.53869   0.76193   0.75367   0.00000  Uiso   1.00
O777   O     0.47425   0.83092   0.67207   0.00000  Uiso   1.00
O778   O     0.57485   0.84040   0.68160   0.00000  Uiso   1.00
O779   O     0.33914   0.78705   0.89506   0.00000  Uiso   1.00
H780   H     0.63159   0.76932   0.91651   0.00000  Uiso   1.00
O781   O     0.54935   0.92188   0.87723   0.00000  Uiso   1.00
H782   H     0.59065   0.94734   0.87120   0.00000  Uiso   1.00
C783   C     0.84842   0.93340   0.75159   0.00000  Uiso   1.00
C784   C     0.80569   0.83635   0.98807   0.00000  Uiso   1.00
C785   C     0.82034   0.85362   0.93665   0.00000  Uiso   1.00
C786   C     0.85319   0.84852   0.51753   0.00000  Uiso   1.00
C787   C     0.91232   0.88169   0.99719   0.00000  Uiso   1.00
C788   C     0.92277   0.90415   0.94940   0.00000  Uiso   1.00
C789   C     0.87644   0.89241   0.91989   0.00000  Uiso   1.00
C790   C     0.84352   0.82900   0.56701   0.00000  Uiso   1.00
C791   C     0.94709   0.87692   0.57631   0.00000  Uiso   1.00
C792   C     0.77754   0.83235   0.90406   0.00000  Uiso   1.00
C793   C     0.85688   0.98936   0.75247   0.00000  Uiso   1.00
C794   C     0.79944   0.83251   0.84744   0.00000  Uiso   1.00
C795   C     0.80965   0.67730   0.74790   0.00000  Uiso   1.00
C796   C     0.81819   0.73326   0.74856   0.00000  Uiso   1.00
C797   C     0.86741   0.83696   0.65279   0.00000  Uiso   1.00
C798   C     0.95933   0.89447   0.52618   0.00000  Uiso   1.00
C799   C     0.88815   0.84557   0.59740   0.00000  Uiso   1.00
C800   C     0.71562   0.80488   0.92579   0.00000  Uiso   1.00
C801   C     0.69900   0.79492   0.97833   0.00000  Uiso   1.00
C802   C     0.74345   0.80884   0.50859   0.00000  Uiso   1.00
Cu803  Cu    0.77377   0.82772   0.74436   0.00000  Uiso   1.00
Cu804  Cu    0.89290   0.83895   0.75565   0.00000  Uiso   1.00
H805   H     0.98229   0.89002   0.59928   0.00000  Uiso   1.00
H806   H     0.76413   0.98682   0.74358   0.00000  Uiso   1.00
H807   H     0.67020   0.87249   0.78975   0.00000  Uiso   1.00
H808   H     0.99643   0.79414   0.71029   0.00000  Uiso   1.00
H809   H     0.96647   0.93235   0.93564   0.00000  Uiso   1.00
H810   H     0.67134   0.91982   0.51080   0.00000  Uiso   1.00
H811   H     0.80068   0.80183   0.58378   0.00000  Uiso   1.00
H812   H     0.72667   0.79893   0.54846   0.00000  Uiso   1.00
H813   H     0.98496   0.77452   0.99582   0.00000  Uiso   1.00
H814   H     0.90239   0.67983   0.75682   0.00000  Uiso   1.00
N815   N     0.98241   0.84741   0.76416   0.00000  Uiso   1.00
N816   N     0.68426   0.81926   0.73584   0.00000  Uiso   1.00
O817   O     0.79464   0.90474   0.74633   0.00000  Uiso   1.00
O818   O     0.89524   0.91422   0.75586   0.00000  Uiso   1.00
O819   O     0.75848   0.82627   0.81840   0.00000  Uiso   1.00
O820   O     0.85908   0.83575   0.82793   0.00000  Uiso   1.00
O821   O     0.77142   0.75245   0.74414   0.00000  Uiso   1.00
O822   O     0.87203   0.76193   0.75367   0.00000  Uiso   1.00
O823   O     0.80758   0.83092   0.67207   0.00000  Uiso   1.00
O824   O     0.90819   0.84040   0.68160   0.00000  Uiso   1.00
O825   O     0.67247   0.78705   0.89506   0.00000  Uiso   1.00
H826   H     0.96492   0.76932   0.91651   0.00000  Uiso   1.00
O827   O     0.88268   0.92188   0.87723   0.00000  Uiso   1.00
H828   H     0.92398   0.94734   0.87120   0.00000  Uiso   1.00
loop_
_geom_bond_atom_site_label_1
_geom_bond_atom_site_label_2
_geom_bond_distance
_geom_bond_site_symmetry_2
_ccdc_geom_bond_type
C1     O35     1.291   .     A
C1     O36     1.285   .     A
C1     C11     1.428   .     S
C2     C3      1.421   .     A
C2     C418    1.424   .     S
C2     C434    1.414   .     S
C3     C10     1.428   .     A
C3     C7      1.423   .     A
C4     C8      1.404   .     A
C4     C416    1.424   1_554 S
C4     C419    1.416   1_554 S
C5     C6      1.393   .     A
C5     C418    1.416   .     S
C5     C430    1.406   .     S
C6     C7      1.403   .     A
C6     H27     1.084   .     S
C7     O45     1.383   .     S
C8     C17     1.398   .     A
C8     H29     1.077   .     S
C9     C17     1.398   .     A
C9     C16     1.395   .     A
C9     H23     1.083   .     S
C10    C12     1.483   .     S
C10    C18     1.415   .     A
C11    C151    1.328   .     S
C11    H170    1.088   .     S
C12    O38     1.300   .     A
C12    O37     1.302   .     A
C13    C14     1.428   .     S
C13    C287    1.328   1_545 S
C13    H300    1.088   1_545 S
C14    O40     1.291   .     A
C14    O39     1.285   .     A
C15    O42     1.301   .     A
C15    O41     1.295   .     A
C15    C17     1.467   .     S
C16    C419    1.406   1_554 S
C16    H74     1.084   .     S
C18    O43     1.383   .     S
C18    C19     1.398   .     A
C19    C434    1.386   .     S
C19    H123    1.084   1_455 S
C20    H30     1.077   .     S
C20    C416    1.414   1_554 S
C20    C433    1.386   1_554 S
Cu21   O35     1.956   .     S
Cu21   O39     1.952   .     S
Cu21   O41     1.912   .     S
Cu21   O37     1.934   .     S
Cu21   N34     2.018   .     S
Cu21   Cu22    2.686   .     S
Cu22   O36     1.952   .     S
Cu22   O40     1.956   .     S
Cu22   O42     1.934   .     S
Cu22   O38     1.912   .     S
Cu22   N33     2.018   .     S
H24    C151    1.088   .     S
H25    N125    1.029   1_455 S
H26    N80     1.029   .     S
H28    C108    1.084   1_455 S
H31    C65     1.084   .     S
H32    C287    1.088   1_545 S
N33    H71     1.029   .     S
N33    N80     1.283   .     S
N34    N125    1.283   1_455 S
N34    H118    1.029   1_455 S
O43    H136    0.992   1_455 S
H44    O89     0.992   .     S
O45    H46     0.992   .     S
C47    O81     1.291   .     A
C47    O82     1.285   .     A
C47    C57     1.428   .     S
C48    C49     1.421   .     A
C48    C464    1.424   .     S
C48    C480    1.414   .     S
C49    C56     1.428   .     A
C49    C53     1.423   .     A
C50    C54     1.404   .     A
C50    C462    1.424   1_554 S
C50    C465    1.416   1_554 S
C51    C52     1.393   .     A
C51    C464    1.416   .     S
C51    C476    1.406   .     S
C52    C53     1.403   .     A
C52    H73     1.084   .     S
C53    O91     1.383   .     S
C54    C63     1.398   .     A
C54    H75     1.077   .     S
C55    C63     1.398   .     A
C55    C62     1.395   .     A
C55    H69     1.083   .     S
C56    C58     1.483   .     S
C56    C64     1.415   .     A
C57    C197    1.328   .     S
C57    H216    1.088   .     S
C58    O84     1.300   .     A
C58    O83     1.302   .     A
C59    C60     1.428   .     S
C59    C333    1.328   1_545 S
C59    H346    1.088   1_545 S
C60    O86     1.291   .     A
C60    O85     1.285   .     A
C61    O88     1.301   .     A
C61    O87     1.295   .     A
C61    C63     1.467   .     S
C62    C465    1.406   1_554 S
C62    H120    1.084   .     S
C64    O89     1.383   .     S
C64    C65     1.398   .     A
C65    C480    1.386   .     S
C66    H76     1.077   .     S
C66    C462    1.414   1_554 S
C66    C479    1.386   1_554 S
Cu67   O81     1.956   .     S
Cu67   O85     1.952   .     S
Cu67   O87     1.912   .     S
Cu67   O83     1.934   .     S
Cu67   N80     2.018   .     S
Cu67   Cu68    2.686   .     S
Cu68   O82     1.952   .     S
Cu68   O86     1.956   .     S
Cu68   O88     1.934   .     S
Cu68   O84     1.912   .     S
Cu68   N79     2.018   .     S
H70    C197    1.088   .     S
H72    N126    1.029   .     S
H77    C111    1.084   .     S
H78    C333    1.088   1_545 S
N79    H117    1.029   .     S
N79    N126    1.283   .     S
H90    O135    0.992   .     S
O91    H92     0.992   .     S
C93    O127    1.291   .     A
C93    O128    1.285   .     A
C93    C103    1.428   .     S
C94    C95     1.421   .     A
C94    C510    1.424   .     S
C94    C526    1.414   .     S
C95    C102    1.428   .     A
C95    C99     1.423   .     A
C96    C100    1.404   .     A
C96    C508    1.424   1_554 S
C96    C511    1.416   1_554 S
C97    C98     1.393   .     A
C97    C510    1.416   .     S
C97    C522    1.406   .     S
C98    C99     1.403   .     A
C98    H119    1.084   .     S
C99    O137    1.383   .     S
C100   C109    1.398   .     A
C100   H121    1.077   .     S
C101   C109    1.398   .     A
C101   C108    1.395   .     A
C101   H115    1.083   .     S
C102   C104    1.483   .     S
C102   C110    1.415   .     A
C103   C243    1.328   .     S
C103   H262    1.088   .     S
C104   O130    1.300   .     A
C104   O129    1.302   .     A
C105   C106    1.428   .     S
C105   C379    1.328   1_545 S
C105   H392    1.088   1_545 S
C106   O132    1.291   .     A
C106   O131    1.285   .     A
C107   O134    1.301   .     A
C107   O133    1.295   .     A
C107   C109    1.467   .     S
C108   C511    1.406   1_554 S
C108   H28     1.084   1_655 S
C110   O135    1.383   .     S
C110   C111    1.398   .     A
C111   C526    1.386   .     S
C112   H122    1.077   .     S
C112   C508    1.414   1_554 S
C112   C525    1.386   1_554 S
Cu113  O127    1.956   .     S
Cu113  O131    1.952   .     S
Cu113  O133    1.912   .     S
Cu113  O129    1.934   .     S
Cu113  N126    2.018   .     S
Cu113  Cu114   2.686   .     S
Cu114  O128    1.952   .     S
Cu114  O132    1.956   .     S
Cu114  O134    1.934   .     S
Cu114  O130    1.912   .     S
Cu114  N125    2.018   .     S
H116   C243    1.088   .     S
H118   N34     1.029   1_655 S
H123   C19     1.084   1_655 S
H124   C379    1.088   1_545 S
N125   H25     1.029   1_655 S
N125   N34     1.283   1_655 S
H136   O43     0.992   1_655 S
O137   H138    0.992   .     S
C139   O173    1.291   .     A
C139   O174    1.285   .     A
C139   C149    1.428   .     S
C140   C141    1.421   .     A
C140   C556    1.424   .     S
C140   C572    1.414   .     S
C141   C148    1.428   .     A
C141   C145    1.423   .     A
C142   C146    1.404   .     A
C142   C554    1.424   1_554 S
C142   C557    1.416   1_554 S
C143   C144    1.393   .     A
C143   C556    1.416   .     S
C143   C568    1.406   .     S
C144   C145    1.403   .     A
C144   H165    1.084   .     S
C145   O183    1.383   .     S
C146   C155    1.398   .     A
C146   H167    1.077   .     S
C147   C155    1.398   .     A
C147   C154    1.395   .     A
C147   H161    1.083   .     S
C148   C150    1.483   .     S
C148   C156    1.415   .     A
C149   C289    1.328   .     S
C149   H308    1.088   .     S
C150   O176    1.300   .     A
C150   O175    1.302   .     A
C151   C152    1.428   .     S
C152   O178    1.291   .     A
C152   O177    1.285   .     A
C153   O180    1.301   .     A
C153   O179    1.295   .     A
C153   C155    1.467   .     S
C154   C557    1.406   1_554 S
C154   H212    1.084   .     S
C156   O181    1.383   .     S
C156   C157    1.398   .     A
C157   C572    1.386   .     S
C157   H261    1.084   1_455 S
C158   H168    1.077   .     S
C158   C554    1.414   1_554 S
C158   C571    1.386   1_554 S
Cu159  O173    1.956   .     S
Cu159  O177    1.952   .     S
Cu159  O179    1.912   .     S
Cu159  O175    1.934   .     S
Cu159  N172    2.018   .     S
Cu159  Cu160   2.686   .     S
Cu160  O174    1.952   .     S
Cu160  O178    1.956   .     S
Cu160  O180    1.934   .     S
Cu160  O176    1.912   .     S
Cu160  N171    2.018   .     S
H162   C289    1.088   .     S
H163   N263    1.029   1_455 S
H164   N218    1.029   .     S
H166   C246    1.084   1_455 S
H169   C203    1.084   .     S
N171   H209    1.029   .     S
N171   N218    1.283   .     S
N172   N263    1.283   1_455 S
N172   H256    1.029   1_455 S
O181   H274    0.992   1_455 S
H182   O227    0.992   .     S
O183   H184    0.992   .     S
C185   O219    1.291   .     A
C185   O220    1.285   .     A
C185   C195    1.428   .     S
C186   C187    1.421   .     A
C186   C602    1.424   .     S
C186   C618    1.414   .     S
C187   C194    1.428   .     A
C187   C191    1.423   .     A
C188   C192    1.404   .     A
C188   C600    1.424   1_554 S
C188   C603    1.416   1_554 S
C189   C190    1.393   .     A
C189   C602    1.416   .     S
C189   C614    1.406   .     S
C190   C191    1.403   .     A
C190   H211    1.084   .     S
C191   O229    1.383   .     S
C192   C201    1.398   .     A
C192   H213    1.077   .     S
C193   C201    1.398   .     A
C193   C200    1.395   .     A
C193   H207    1.083   .     S
C194   C196    1.483   .     S
C194   C202    1.415   .     A
C195   C335    1.328   .     S
C195   H354    1.088   .     S
C196   O222    1.300   .     A
C196   O221    1.302   .     A
C197   C198    1.428   .     S
C198   O224    1.291   .     A
C198   O223    1.285   .     A
C199   O226    1.301   .     A
C199   O225    1.295   .     A
C199   C201    1.467   .     S
C200   C603    1.406   1_554 S
C200   H258    1.084   .     S
C202   O227    1.383   .     S
C202   C203    1.398   .     A
C203   C618    1.386   .     S
C204   H214    1.077   .     S
C204   C600    1.414   1_554 S
C204   C617    1.386   1_554 S
Cu205  O219    1.956   .     S
Cu205  O223    1.952   .     S
Cu205  O225    1.912   .     S
Cu205  O221    1.934   .     S
Cu205  N218    2.018   .     S
Cu205  Cu206   2.686   .     S
Cu206  O220    1.952   .     S
Cu206  O224    1.956   .     S
Cu206  O226    1.934   .     S
Cu206  O222    1.912   .     S
Cu206  N217    2.018   .     S
H208   C335    1.088   .     S
H210   N264    1.029   .     S
H215   C249    1.084   .     S
N217   H255    1.029   .     S
N217   N264    1.283   .     S
H228   O273    0.992   .     S
O229   H230    0.992   .     S
C231   O265    1.291   .     A
C231   O266    1.285   .     A
C231   C241    1.428   .     S
C232   C233    1.421   .     A
C232   C648    1.424   .     S
C232   C664    1.414   .     S
C233   C240    1.428   .     A
C233   C237    1.423   .     A
C234   C238    1.404   .     A
C234   C646    1.424   1_554 S
C234   C649    1.416   1_554 S
C235   C236    1.393   .     A
C235   C648    1.416   .     S
C235   C660    1.406   .     S
C236   C237    1.403   .     A
C236   H257    1.084   .     S
C237   O275    1.383   .     S
C238   C247    1.398   .     A
C238   H259    1.077   .     S
C239   C247    1.398   .     A
C239   C246    1.395   .     A
C239   H253    1.083   .     S
C240   C242    1.483   .     S
C240   C248    1.415   .     A
C241   C381    1.328   .     S
C241   H400    1.088   .     S
C242   O268    1.300   .     A
C242   O267    1.302   .     A
C243   C244    1.428   .     S
C244   O270    1.291   .     A
C244   O269    1.285   .     A
C245   O272    1.301   .     A
C245   O271    1.295   .     A
C245   C247    1.467   .     S
C246   C649    1.406   1_554 S
C246   H166    1.084   1_655 S
C248   O273    1.383   .     S
C248   C249    1.398   .     A
C249   C664    1.386   .     S
C250   H260    1.077   .     S
C250   C646    1.414   1_554 S
C250   C663    1.386   1_554 S
Cu251  O265    1.956   .     S
Cu251  O269    1.952   .     S
Cu251  O271    1.912   .     S
Cu251  O267    1.934   .     S
Cu251  N264    2.018   .     S
Cu251  Cu252   2.686   .     S
Cu252  O266    1.952   .     S
Cu252  O270    1.956   .     S
Cu252  O272    1.934   .     S
Cu252  O268    1.912   .     S
Cu252  N263    2.018   .     S
H254   C381    1.088   .     S
H256   N172    1.029   1_655 S
H261   C157    1.084   1_655 S
N263   H163    1.029   1_655 S
N263   N172    1.283   1_655 S
H274   O181    0.992   1_655 S
O275   H276    0.992   .     S
C277   O311    1.291   .     A
C277   O312    1.285   .     A
C277   C287    1.428   .     S
C278   C279    1.421   .     A
C278   C694    1.424   .     S
C278   C710    1.414   .     S
C279   C286    1.428   .     A
C279   C283    1.423   .     A
C280   C284    1.404   .     A
C280   C692    1.424   1_554 S
C280   C695    1.416   1_554 S
C281   C282    1.393   .     A
C281   C694    1.416   .     S
C281   C706    1.406   .     S
C282   C283    1.403   .     A
C282   H303    1.084   .     S
C283   O321    1.383   .     S
C284   C293    1.398   .     A
C284   H305    1.077   .     S
C285   C293    1.398   .     A
C285   C292    1.395   .     A
C285   H299    1.083   .     S
C286   C288    1.483   .     S
C286   C294    1.415   .     A
C287   C13     1.328   1_565 S
C287   H32     1.088   1_565 S
C288   O314    1.300   .     A
C288   O313    1.302   .     A
C289   C290    1.428   .     S
C290   O316    1.291   .     A
C290   O315    1.285   .     A
C291   O318    1.301   .     A
C291   O317    1.295   .     A
C291   C293    1.467   .     S
C292   C695    1.406   1_554 S
C292   H350    1.084   .     S
C294   O319    1.383   .     S
C294   C295    1.398   .     A
C295   C710    1.386   .     S
C295   H399    1.084   1_455 S
C296   H306    1.077   .     S
C296   C692    1.414   1_554 S
C296   C709    1.386   1_554 S
Cu297  O311    1.956   .     S
Cu297  O315    1.952   .     S
Cu297  O317    1.912   .     S
Cu297  O313    1.934   .     S
Cu297  N310    2.018   .     S
Cu297  Cu298   2.686   .     S
Cu298  O312    1.952   .     S
Cu298  O316    1.956   .     S
Cu298  O318    1.934   .     S
Cu298  O314    1.912   .     S
Cu298  N309    2.018   .     S
H300   C13     1.088   1_565 S
H301   N401    1.029   1_455 S
H302   N356    1.029   .     S
H304   C384    1.084   1_455 S
H307   C341    1.084   .     S
N309   H347    1.029   .     S
N309   N356    1.283   .     S
N310   N401    1.283   1_455 S
N310   H394    1.029   1_455 S
O319   H412    0.992   1_455 S
H320   O365    0.992   .     S
O321   H322    0.992   .     S
C323   O357    1.291   .     A
C323   O358    1.285   .     A
C323   C333    1.428   .     S
C324   C325    1.421   .     A
C324   C740    1.424   .     S
C324   C756    1.414   .     S
C325   C332    1.428   .     A
C325   C329    1.423   .     A
C326   C330    1.404   .     A
C326   C738    1.424   1_554 S
C326   C741    1.416   1_554 S
C327   C328    1.393   .     A
C327   C740    1.416   .     S
C327   C752    1.406   .     S
C328   C329    1.403   .     A
C328   H349    1.084   .     S
C329   O367    1.383   .     S
C330   C339    1.398   .     A
C330   H351    1.077   .     S
C331   C339    1.398   .     A
C331   C338    1.395   .     A
C331   H345    1.083   .     S
C332   C334    1.483   .     S
C332   C340    1.415   .     A
C333   C59     1.328   1_565 S
C333   H78     1.088   1_565 S
C334   O360    1.300   .     A
C334   O359    1.302   .     A
C335   C336    1.428   .     S
C336   O362    1.291   .     A
C336   O361    1.285   .     A
C337   O364    1.301   .     A
C337   O363    1.295   .     A
C337   C339    1.467   .     S
C338   C741    1.406   1_554 S
C338   H396    1.084   .     S
C340   O365    1.383   .     S
C340   C341    1.398   .     A
C341   C756    1.386   .     S
C342   H352    1.077   .     S
C342   C738    1.414   1_554 S
C342   C755    1.386   1_554 S
Cu343  O357    1.956   .     S
Cu343  O361    1.952   .     S
Cu343  O363    1.912   .     S
Cu343  O359    1.934   .     S
Cu343  N356    2.018   .     S
Cu343  Cu344   2.686   .     S
Cu344  O358    1.952   .     S
Cu344  O362    1.956   .     S
Cu344  O364    1.934   .     S
Cu344  O360    1.912   .     S
Cu344  N355    2.018   .     S
H346   C59     1.088   1_565 S
H348   N402    1.029   .     S
H353   C387    1.084   .     S
N355   H393    1.029   .     S
N355   N402    1.283   .     S
H366   O411    0.992   .     S
O367   H368    0.992   .     S
C369   O403    1.291   .     A
C369   O404    1.285   .     A
C369   C379    1.428   .     S
C370   C371    1.421   .     A
C370   C786    1.424   .     S
C370   C802    1.414   .     S
C371   C378    1.428   .     A
C371   C375    1.423   .     A
C372   C376    1.404   .     A
C372   C784    1.424   1_554 S
C372   C787    1.416   1_554 S
C373   C374    1.393   .     A
C373   C786    1.416   .     S
C373   C798    1.406   .     S
C374   C375    1.403   .     A
C374   H395    1.084   .     S
C375   O413    1.383   .     S
C376   C385    1.398   .     A
C376   H397    1.077   .     S
C377   C385    1.398   .     A
C377   C384    1.395   .     A
C377   H391    1.083   .     S
C378   C380    1.483   .     S
C378   C386    1.415   .     A
C379   C105    1.328   1_565 S
C379   H124    1.088   1_565 S
C380   O406    1.300   .     A
C380   O405    1.302   .     A
C381   C382    1.428   .     S
C382   O408    1.291   .     A
C382   O407    1.285   .     A
C383   O410    1.301   .     A
C383   O409    1.295   .     A
C383   C385    1.467   .     S
C384   C787    1.406   1_554 S
C384   H304    1.084   1_655 S
C386   O411    1.383   .     S
C386   C387    1.398   .     A
C387   C802    1.386   .     S
C388   H398    1.077   .     S
C388   C784    1.414   1_554 S
C388   C801    1.386   1_554 S
Cu389  O403    1.956   .     S
Cu389  O407    1.952   .     S
Cu389  O409    1.912   .     S
Cu389  O405    1.934   .     S
Cu389  N402    2.018   .     S
Cu389  Cu390   2.686   .     S
Cu390  O404    1.952   .     S
Cu390  O408    1.956   .     S
Cu390  O410    1.934   .     S
Cu390  O406    1.912   .     S
Cu390  N401    2.018   .     S
H392   C105    1.088   1_565 S
H394   N310    1.029   1_655 S
H399   C295    1.084   1_655 S
N401   H301    1.029   1_655 S
N401   N310    1.283   1_655 S
H412   O319    0.992   1_655 S
O413   H414    0.992   .     S
C415   O449    1.291   .     A
C415   O450    1.285   .     A
C415   C425    1.428   .     S
C416   C417    1.421   .     A
C416   C4      1.424   1_556 S
C416   C20     1.414   1_556 S
C417   C424    1.428   .     A
C417   C421    1.423   .     A
C418   C422    1.404   .     A
C419   C420    1.393   .     A
C419   C4      1.416   1_556 S
C419   C16     1.406   1_556 S
C420   C421    1.403   .     A
C420   H441    1.084   .     S
C421   O459    1.383   .     S
C422   C431    1.398   .     A
C422   H443    1.077   .     S
C423   C431    1.398   .     A
C423   C430    1.395   .     A
C423   H437    1.083   .     S
C424   C426    1.483   .     S
C424   C432    1.415   .     A
C425   C565    1.328   .     S
C425   H584    1.088   .     S
C426   O452    1.300   .     A
C426   O451    1.302   .     A
C427   C428    1.428   .     S
C427   C701    1.328   1_545 S
C427   H714    1.088   1_545 S
C428   O454    1.291   .     A
C428   O453    1.285   .     A
C429   O456    1.301   .     A
C429   O455    1.295   .     A
C429   C431    1.467   .     S
C430   H488    1.084   .     S
C432   O457    1.383   .     S
C432   C433    1.398   .     A
C433   C20     1.386   1_556 S
C433   H537    1.084   1_455 S
C434   H444    1.077   .     S
Cu435  O449    1.956   .     S
Cu435  O453    1.952   .     S
Cu435  O455    1.912   .     S
Cu435  O451    1.934   .     S
Cu435  N448    2.018   .     S
Cu435  Cu436   2.686   .     S
Cu436  O450    1.952   .     S
Cu436  O454    1.956   .     S
Cu436  O456    1.934   .     S
Cu436  O452    1.912   .     S
Cu436  N447    2.018   .     S
H438   C565    1.088   .     S
H439   N539    1.029   1_455 S
H440   N494    1.029   .     S
H442   C522    1.084   1_455 S
H445   C479    1.084   .     S
H446   C701    1.088   1_545 S
N447   H485    1.029   .     S
N447   N494    1.283   .     S
N448   N539    1.283   1_455 S
N448   H532    1.029   1_455 S
O457   H550    0.992   1_455 S
H458   O503    0.992   .     S
O459   H460    0.992   .     S
C461   O495    1.291   .     A
C461   O496    1.285   .     A
C461   C471    1.428   .     S
C462   C463    1.421   .     A
C462   C50     1.424   1_556 S
C462   C66     1.414   1_556 S
C463   C470    1.428   .     A
C463   C467    1.423   .     A
C464   C468    1.404   .     A
C465   C466    1.393   .     A
C465   C50     1.416   1_556 S
C465   C62     1.406   1_556 S
C466   C467    1.403   .     A
C466   H487    1.084   .     S
C467   O505    1.383   .     S
C468   C477    1.398   .     A
C468   H489    1.077   .     S
C469   C477    1.398   .     A
C469   C476    1.395   .     A
C469   H483    1.083   .     S
C470   C472    1.483   .     S
C470   C478    1.415   .     A
C471   C611    1.328   .     S
C471   H630    1.088   .     S
C472   O498    1.300   .     A
C472   O497    1.302   .     A
C473   C474    1.428   .     S
C473   C747    1.328   1_545 S
C473   H760    1.088   1_545 S
C474   O500    1.291   .     A
C474   O499    1.285   .     A
C475   O502    1.301   .     A
C475   O501    1.295   .     A
C475   C477    1.467   .     S
C476   H534    1.084   .     S
C478   O503    1.383   .     S
C478   C479    1.398   .     A
C479   C66     1.386   1_556 S
C480   H490    1.077   .     S
Cu481  O495    1.956   .     S
Cu481  O499    1.952   .     S
Cu481  O501    1.912   .     S
Cu481  O497    1.934   .     S
Cu481  N494    2.018   .     S
Cu481  Cu482   2.686   .     S
Cu482  O496    1.952   .     S
Cu482  O500    1.956   .     S
Cu482  O502    1.934   .     S
Cu482  O498    1.912   .     S
Cu482  N493    2.018   .     S
H484   C611    1.088   .     S
H486   N540    1.029   .     S
H491   C525    1.084   .     S
H492   C747    1.088   1_545 S
N493   H531    1.029   .     S
N493   N540    1.283   .     S
H504   O549    0.992   .     S
O505   H506    0.992   .     S
C507   O541    1.291   .     A
C507   O542    1.285   .     A
C507   C517    1.428   .     S
C508   C509    1.421   .     A
C508   C96     1.424   1_556 S
C508   C112    1.414   1_556 S
C509   C516    1.428   .     A
C509   C513    1.423   .     A
C510   C514    1.404   .     A
C511   C512    1.393   .     A
C511   C96     1.416   1_556 S
C511   C108    1.406   1_556 S
C512   C513    1.403   .     A
C512   H533    1.084   .     S
C513   O551    1.383   .     S
C514   C523    1.398   .     A
C514   H535    1.077   .     S
C515   C523    1.398   .     A
C515   C522    1.395   .     A
C515   H529    1.083   .     S
C516   C518    1.483   .     S
C516   C524    1.415   .     A
C517   C657    1.328   .     S
C517   H676    1.088   .     S
C518   O544    1.300   .     A
C518   O543    1.302   .     A
C519   C520    1.428   .     S
C519   C793    1.328   1_545 S
C519   H806    1.088   1_545 S
C520   O546    1.291   .     A
C520   O545    1.285   .     A
C521   O548    1.301   .     A
C521   O547    1.295   .     A
C521   C523    1.467   .     S
C522   H442    1.084   1_655 S
C524   O549    1.383   .     S
C524   C525    1.398   .     A
C525   C112    1.386   1_556 S
C526   H536    1.077   .     S
Cu527  O541    1.956   .     S
Cu527  O545    1.952   .     S
Cu527  O547    1.912   .     S
Cu527  O543    1.934   .     S
Cu527  N540    2.018   .     S
Cu527  Cu528   2.686   .     S
Cu528  O542    1.952   .     S
Cu528  O546    1.956   .     S
Cu528  O548    1.934   .     S
Cu528  O544    1.912   .     S
Cu528  N539    2.018   .     S
H530   C657    1.088   .     S
H532   N448    1.029   1_655 S
H537   C433    1.084   1_655 S
H538   C793    1.088   1_545 S
N539   H439    1.029   1_655 S
N539   N448    1.283   1_655 S
H550   O457    0.992   1_655 S
O551   H552    0.992   .     S
C553   O587    1.291   .     A
C553   O588    1.285   .     A
C553   C563    1.428   .     S
C554   C555    1.421   .     A
C554   C142    1.424   1_556 S
C554   C158    1.414   1_556 S
C555   C562    1.428   .     A
C555   C559    1.423   .     A
C556   C560    1.404   .     A
C557   C558    1.393   .     A
C557   C142    1.416   1_556 S
C557   C154    1.406   1_556 S
C558   C559    1.403   .     A
C558   H579    1.084   .     S
C559   O597    1.383   .     S
C560   C569    1.398   .     A
C560   H581    1.077   .     S
C561   C569    1.398   .     A
C561   C568    1.395   .     A
C561   H575    1.083   .     S
C562   C564    1.483   .     S
C562   C570    1.415   .     A
C563   C703    1.328   .     S
C563   H722    1.088   .     S
C564   O590    1.300   .     A
C564   O589    1.302   .     A
C565   C566    1.428   .     S
C566   O592    1.291   .     A
C566   O591    1.285   .     A
C567   O594    1.301   .     A
C567   O593    1.295   .     A
C567   C569    1.467   .     S
C568   H626    1.084   .     S
C570   O595    1.383   .     S
C570   C571    1.398   .     A
C571   C158    1.386   1_556 S
C571   H675    1.084   1_455 S
C572   H582    1.077   .     S
Cu573  O587    1.956   .     S
Cu573  O591    1.952   .     S
Cu573  O593    1.912   .     S
Cu573  O589    1.934   .     S
Cu573  N586    2.018   .     S
Cu573  Cu574   2.686   .     S
Cu574  O588    1.952   .     S
Cu574  O592    1.956   .     S
Cu574  O594    1.934   .     S
Cu574  O590    1.912   .     S
Cu574  N585    2.018   .     S
H576   C703    1.088   .     S
H577   N677    1.029   1_455 S
H578   N632    1.029   .     S
H580   C660    1.084   1_455 S
H583   C617    1.084   .     S
N585   H623    1.029   .     S
N585   N632    1.283   .     S
N586   N677    1.283   1_455 S
N586   H670    1.029   1_455 S
O595   H688    0.992   1_455 S
H596   O641    0.992   .     S
O597   H598    0.992   .     S
C599   O633    1.291   .     A
C599   O634    1.285   .     A
C599   C609    1.428   .     S
C600   C601    1.421   .     A
C600   C188    1.424   1_556 S
C600   C204    1.414   1_556 S
C601   C608    1.428   .     A
C601   C605    1.423   .     A
C602   C606    1.404   .     A
C603   C604    1.393   .     A
C603   C188    1.416   1_556 S
C603   C200    1.406   1_556 S
C604   C605    1.403   .     A
C604   H625    1.084   .     S
C605   O643    1.383   .     S
C606   C615    1.398   .     A
C606   H627    1.077   .     S
C607   C615    1.398   .     A
C607   C614    1.395   .     A
C607   H621    1.083   .     S
C608   C610    1.483   .     S
C608   C616    1.415   .     A
C609   C749    1.328   .     S
C609   H768    1.088   .     S
C610   O636    1.300   .     A
C610   O635    1.302   .     A
C611   C612    1.428   .     S
C612   O638    1.291   .     A
C612   O637    1.285   .     A
C613   O640    1.301   .     A
C613   O639    1.295   .     A
C613   C615    1.467   .     S
C614   H672    1.084   .     S
C616   O641    1.383   .     S
C616   C617    1.398   .     A
C617   C204    1.386   1_556 S
C618   H628    1.077   .     S
Cu619  O633    1.956   .     S
Cu619  O637    1.952   .     S
Cu619  O639    1.912   .     S
Cu619  O635    1.934   .     S
Cu619  N632    2.018   .     S
Cu619  Cu620   2.686   .     S
Cu620  O634    1.952   .     S
Cu620  O638    1.956   .     S
Cu620  O640    1.934   .     S
Cu620  O636    1.912   .     S
Cu620  N631    2.018   .     S
H622   C749    1.088   .     S
H624   N678    1.029   .     S
H629   C663    1.084   .     S
N631   H669    1.029   .     S
N631   N678    1.283   .     S
H642   O687    0.992   .     S
O643   H644    0.992   .     S
C645   O679    1.291   .     A
C645   O680    1.285   .     A
C645   C655    1.428   .     S
C646   C647    1.421   .     A
C646   C234    1.424   1_556 S
C646   C250    1.414   1_556 S
C647   C654    1.428   .     A
C647   C651    1.423   .     A
C648   C652    1.404   .     A
C649   C650    1.393   .     A
C649   C234    1.416   1_556 S
C649   C246    1.406   1_556 S
C650   C651    1.403   .     A
C650   H671    1.084   .     S
C651   O689    1.383   .     S
C652   C661    1.398   .     A
C652   H673    1.077   .     S
C653   C661    1.398   .     A
C653   C660    1.395   .     A
C653   H667    1.083   .     S
C654   C656    1.483   .     S
C654   C662    1.415   .     A
C655   C795    1.328   .     S
C655   H814    1.088   .     S
C656   O682    1.300   .     A
C656   O681    1.302   .     A
C657   C658    1.428   .     S
C658   O684    1.291   .     A
C658   O683    1.285   .     A
C659   O686    1.301   .     A
C659   O685    1.295   .     A
C659   C661    1.467   .     S
C660   H580    1.084   1_655 S
C662   O687    1.383   .     S
C662   C663    1.398   .     A
C663   C250    1.386   1_556 S
C664   H674    1.077   .     S
Cu665  O679    1.956   .     S
Cu665  O683    1.952   .     S
Cu665  O685    1.912   .     S
Cu665  O681    1.934   .     S
Cu665  N678    2.018   .     S
Cu665  Cu666   2.686   .     S
Cu666  O680    1.952   .     S
Cu666  O684    1.956   .     S
Cu666  O686    1.934   .     S
Cu666  O682    1.912   .     S
Cu666  N677    2.018   .     S
H668   C795    1.088   .     S
H670   N586    1.029   1_655 S
H675   C571    1.084   1_655 S
N677   H577    1.029   1_655 S
N677   N586    1.283   1_655 S
H688   O595    0.992   1_655 S
O689   H690    0.992   .     S
C691   O725    1.291   .     A
C691   O726    1.285   .     A
C691   C701    1.428   .     S
C692   C693    1.421   .     A
C692   C280    1.424   1_556 S
C692   C296    1.414   1_556 S
C693   C700    1.428   .     A
C693   C697    1.423   .     A
C694   C698    1.404   .     A
C695   C696    1.393   .     A
C695   C280    1.416   1_556 S
C695   C292    1.406   1_556 S
C696   C697    1.403   .     A
C696   H717    1.084   .     S
C697   O735    1.383   .     S
C698   C707    1.398   .     A
C698   H719    1.077   .     S
C699   C707    1.398   .     A
C699   C706    1.395   .     A
C699   H713    1.083   .     S
C700   C702    1.483   .     S
C700   C708    1.415   .     A
C701   C427    1.328   1_565 S
C701   H446    1.088   1_565 S
C702   O728    1.300   .     A
C702   O727    1.302   .     A
C703   C704    1.428   .     S
C704   O730    1.291   .     A
C704   O729    1.285   .     A
C705   O732    1.301   .     A
C705   O731    1.295   .     A
C705   C707    1.467   .     S
C706   H764    1.084   .     S
C708   O733    1.383   .     S
C708   C709    1.398   .     A
C709   C296    1.386   1_556 S
C709   H813    1.084   1_455 S
C710   H720    1.077   .     S
Cu711  O725    1.956   .     S
Cu711  O729    1.952   .     S
Cu711  O731    1.912   .     S
Cu711  O727    1.934   .     S
Cu711  N724    2.018   .     S
Cu711  Cu712   2.686   .     S
Cu712  O726    1.952   .     S
Cu712  O730    1.956   .     S
Cu712  O732    1.934   .     S
Cu712  O728    1.912   .     S
Cu712  N723    2.018   .     S
H714   C427    1.088   1_565 S
H715   N815    1.029   1_455 S
H716   N770    1.029   .     S
H718   C798    1.084   1_455 S
H721   C755    1.084   .     S
N723   H761    1.029   .     S
N723   N770    1.283   .     S
N724   N815    1.283   1_455 S
N724   H808    1.029   1_455 S
O733   H826    0.992   1_455 S
H734   O779    0.992   .     S
O735   H736    0.992   .     S
C737   O771    1.291   .     A
C737   O772    1.285   .     A
C737   C747    1.428   .     S
C738   C739    1.421   .     A
C738   C326    1.424   1_556 S
C738   C342    1.414   1_556 S
C739   C746    1.428   .     A
C739   C743    1.423   .     A
C740   C744    1.404   .     A
C741   C742    1.393   .     A
C741   C326    1.416   1_556 S
C741   C338    1.406   1_556 S
C742   C743    1.403   .     A
C742   H763    1.084   .     S
C743   O781    1.383   .     S
C744   C753    1.398   .     A
C744   H765    1.077   .     S
C745   C753    1.398   .     A
C745   C752    1.395   .     A
C745   H759    1.083   .     S
C746   C748    1.483   .     S
C746   C754    1.415   .     A
C747   C473    1.328   1_565 S
C747   H492    1.088   1_565 S
C748   O774    1.300   .     A
C748   O773    1.302   .     A
C749   C750    1.428   .     S
C750   O776    1.291   .     A
C750   O775    1.285   .     A
C751   O778    1.301   .     A
C751   O777    1.295   .     A
C751   C753    1.467   .     S
C752   H810    1.084   .     S
C754   O779    1.383   .     S
C754   C755    1.398   .     A
C755   C342    1.386   1_556 S
C756   H766    1.077   .     S
Cu757  O771    1.956   .     S
Cu757  O775    1.952   .     S
Cu757  O777    1.912   .     S
Cu757  O773    1.934   .     S
Cu757  N770    2.018   .     S
Cu757  Cu758   2.686   .     S
Cu758  O772    1.952   .     S
Cu758  O776    1.956   .     S
Cu758  O778    1.934   .     S
Cu758  O774    1.912   .     S
Cu758  N769    2.018   .     S
H760   C473    1.088   1_565 S
H762   N816    1.029   .     S
H767   C801    1.084   .     S
N769   H807    1.029   .     S
N769   N816    1.283   .     S
H780   O825    0.992   .     S
O781   H782    0.992   .     S
C783   O817    1.291   .     A
C783   O818    1.285   .     A
C783   C793    1.428   .     S
C784   C785    1.421   .     A
C784   C372    1.424   1_556 S
C784   C388    1.414   1_556 S
C785   C792    1.428   .     A
C785   C789    1.423   .     A
C786   C790    1.404   .     A
C787   C788    1.393   .     A
C787   C372    1.416   1_556 S
C787   C384    1.406   1_556 S
C788   C789    1.403   .     A
C788   H809    1.084   .     S
C789   O827    1.383   .     S
C790   C799    1.398   .     A
C790   H811    1.077   .     S
C791   C799    1.398   .     A
C791   C798    1.395   .     A
C791   H805    1.083   .     S
C792   C794    1.483   .     S
C792   C800    1.415   .     A
C793   C519    1.328   1_565 S
C793   H538    1.088   1_565 S
C794   O820    1.300   .     A
C794   O819    1.302   .     A
C795   C796    1.428   .     S
C796   O822    1.291   .     A
C796   O821    1.285   .     A
C797   O824    1.301   .     A
C797   O823    1.295   .     A
C797   C799    1.467   .     S
C798   H718    1.084   1_655 S
C800   O825    1.383   .     S
C800   C801    1.398   .     A
C801   C388    1.386   1_556 S
C802   H812    1.077   .     S
Cu803  O817    1.956   .     S
Cu803  O821    1.952   .     S
Cu803  O823    1.912   .     S
Cu803  O819    1.934   .     S
Cu803  N816    2.018   .     S
Cu803  Cu804   2.686   .     S
Cu804  O818    1.952   .     S
Cu804  O822    1.956   .     S
Cu804  O824    1.934   .     S
Cu804  O820    1.912   .     S
Cu804  N815    2.018   .     S
H806   C519    1.088   1_565 S
H808   N724    1.029   1_655 S
H813   C709    1.084   1_655 S
N815   H715    1.029   1_655 S
N815   N724    1.283   1_655 S
H826   O733    0.992   1_655 S
O827   H828    0.992   .     S
