data_str_m2_o2_o5_pcu_sym.83
_audit_creation_date              2020-01-03
_audit_creation_method            'Materials Studio'
_symmetry_space_group_name_H-M    'P1'
_symmetry_Int_Tables_number       1
_symmetry_cell_setting            triclinic
loop_
_symmetry_equiv_pos_as_xyz
  x,y,z
_cell_length_a                    30.2761
_cell_length_b                    27.7394
_cell_length_c                    27.3061
_cell_angle_alpha                 90.0290
_cell_angle_beta                  90.1603
_cell_angle_gamma                 90.0027
loop_
_atom_site_label
_atom_site_type_symbol
_atom_site_fract_x
_atom_site_fract_y
_atom_site_fract_z
_atom_site_U_iso_or_equiv
_atom_site_adp_type
_atom_site_occupancy
C1     C     0.16501   0.25000   0.16664   0.00000  Uiso   1.00
C2     C     0.27191   0.44604   0.20348   0.00000  Uiso   1.00
C3     C     0.24998   0.24999   0.07350   0.00000  Uiso   1.00
C4     C     0.25002   0.25001   0.25983   0.00000  Uiso   1.00
C5     C     0.25001   0.02732   0.16666   0.00000  Uiso   1.00
C6     C     0.25001   0.47264   0.16666   0.00000  Uiso   1.00
C7     C     0.24999   0.25000   0.02182   0.00000  Uiso   1.00
C8     C     0.25001   0.25002   0.31151   0.00000  Uiso   1.00
C9     C     0.04790   0.28756   0.14309   0.00000  Uiso   1.00
C10    C     0.45222   0.20947   0.14884   0.00000  Uiso   1.00
C11    C     0.45231   0.29047   0.18470   0.00000  Uiso   1.00
C12    C     0.33504   0.25000   0.16670   0.00000  Uiso   1.00
C13    C     0.04805   0.21239   0.19031   0.00000  Uiso   1.00
C14    C     0.09383   0.28792   0.14468   0.00000  Uiso   1.00
C15    C     0.40628   0.20941   0.15036   0.00000  Uiso   1.00
C16    C     0.40637   0.29053   0.18318   0.00000  Uiso   1.00
C17    C     0.09397   0.21203   0.18862   0.00000  Uiso   1.00
C18    C     0.11690   0.24998   0.16664   0.00000  Uiso   1.00
C19    C     0.38325   0.24998   0.16674   0.00000  Uiso   1.00
C20    C     0.02449   0.24997   0.16672   0.00000  Uiso   1.00
C21    C     0.47577   0.24997   0.16676   0.00000  Uiso   1.00
C22    C     0.01046   0.31537   0.07585   0.00000  Uiso   1.00
C23    C     0.28393   0.10468   0.18805   0.00000  Uiso   1.00
C24    C     0.47713   0.35359   0.06063   0.00000  Uiso   1.00
C25    C     0.48787   0.17248   0.08554   0.00000  Uiso   1.00
C26    C     0.00814   0.12496   0.06926   0.00000  Uiso   1.00
C27    C     0.48839   0.32734   0.24801   0.00000  Uiso   1.00
C28    C     0.00820   0.37503   0.26459   0.00000  Uiso   1.00
C29    C     0.01095   0.18465   0.25760   0.00000  Uiso   1.00
C30    C     0.47734   0.14673   0.27264   0.00000  Uiso   1.00
C31    C     0.22825   0.39528   0.13073   0.00000  Uiso   1.00
C32    C     0.21608   0.10465   0.14528   0.00000  Uiso   1.00
C33    C     0.27176   0.39531   0.20259   0.00000  Uiso   1.00
C34    C     0.28474   0.05396   0.18812   0.00000  Uiso   1.00
C35    C     0.22812   0.44600   0.12984   0.00000  Uiso   1.00
C36    C     0.21528   0.05393   0.14520   0.00000  Uiso   1.00
Cu37   Cu    0.25000   0.29821   0.16667   0.00000  Uiso   1.00
Cu38   Cu    0.25000   0.20178   0.16667   0.00000  Uiso   1.00
H39    H     0.31076   0.12426   0.20509   0.00000  Uiso   1.00
H40    H     0.21137   0.46395   0.09995   0.00000  Uiso   1.00
H41    H     0.18715   0.03595   0.12891   0.00000  Uiso   1.00
H42    H     0.28866   0.46401   0.23337   0.00000  Uiso   1.00
H43    H     0.49312   0.28009   0.07477   0.00000  Uiso   1.00
H44    H     0.03813   0.31485   0.04913   0.00000  Uiso   1.00
H45    H     0.49359   0.38924   0.05763   0.00000  Uiso   1.00
H46    H     0.46226   0.34398   0.02478   0.00000  Uiso   1.00
H47    H     0.45031   0.35590   0.08821   0.00000  Uiso   1.00
H48    H     0.01393   0.20048   0.08257   0.00000  Uiso   1.00
H49    H     0.45988   0.18151   0.06062   0.00000  Uiso   1.00
H50    H     0.21098   0.37562   0.10234   0.00000  Uiso   1.00
H51    H     0.48244   0.09641   0.06816   0.00000  Uiso   1.00
H52    H     0.02280   0.12894   0.03230   0.00000  Uiso   1.00
H53    H     0.03467   0.11409   0.09519   0.00000  Uiso   1.00
H54    H     0.01479   0.29968   0.25073   0.00000  Uiso   1.00
H55    H     0.46068   0.31775   0.27293   0.00000  Uiso   1.00
H56    H     0.48217   0.40320   0.26594   0.00000  Uiso   1.00
H57    H     0.02315   0.37100   0.30150   0.00000  Uiso   1.00
H58    H     0.03443   0.38645   0.23869   0.00000  Uiso   1.00
H59    H     0.49391   0.22010   0.25875   0.00000  Uiso   1.00
H60    H     0.03869   0.18484   0.28440   0.00000  Uiso   1.00
H61    H     0.18925   0.12420   0.12823   0.00000  Uiso   1.00
H62    H     0.46259   0.15645   0.30842   0.00000  Uiso   1.00
H63    H     0.49352   0.11093   0.27568   0.00000  Uiso   1.00
H64    H     0.45046   0.14469   0.24494   0.00000  Uiso   1.00
H65    H     0.28903   0.37568   0.23099   0.00000  Uiso   1.00
H66    H     0.11146   0.31756   0.12783   0.00000  Uiso   1.00
H67    H     0.38866   0.17769   0.13783   0.00000  Uiso   1.00
H68    H     0.38882   0.32224   0.19573   0.00000  Uiso   1.00
H69    H     0.11171   0.18238   0.20543   0.00000  Uiso   1.00
H70    H     0.31287   0.03601   0.20441   0.00000  Uiso   1.00
N71    N     0.25000   0.12934   0.16667   0.00000  Uiso   1.00
N72    N     0.25000   0.37065   0.16667   0.00000  Uiso   1.00
O73    O     0.18573   0.29071   0.16667   0.00000  Uiso   1.00
O74    O     0.47336   0.16765   0.13430   0.00000  Uiso   1.00
O75    O     0.47353   0.33227   0.19931   0.00000  Uiso   1.00
O76    O     0.02682   0.17301   0.21053   0.00000  Uiso   1.00
O77    O     0.31427   0.20928   0.16666   0.00000  Uiso   1.00
O78    O     0.31427   0.29071   0.16666   0.00000  Uiso   1.00
O79    O     0.18573   0.20928   0.16667   0.00000  Uiso   1.00
O80    O     0.25000   0.29071   0.09613   0.00000  Uiso   1.00
O81    O     0.25000   0.20929   0.23720   0.00000  Uiso   1.00
O82    O     0.25000   0.29071   0.23720   0.00000  Uiso   1.00
O83    O     0.25000   0.20929   0.09613   0.00000  Uiso   1.00
O84    O     0.02653   0.32695   0.12295   0.00000  Uiso   1.00
C85    C     0.66501   0.25000   0.16664   0.00000  Uiso   1.00
C86    C     0.77191   0.44604   0.20348   0.00000  Uiso   1.00
C87    C     0.74998   0.24999   0.07350   0.00000  Uiso   1.00
C88    C     0.75002   0.25001   0.25983   0.00000  Uiso   1.00
C89    C     0.75001   0.02732   0.16666   0.00000  Uiso   1.00
C90    C     0.75001   0.47264   0.16666   0.00000  Uiso   1.00
C91    C     0.74999   0.25000   0.02182   0.00000  Uiso   1.00
C92    C     0.75001   0.25002   0.31151   0.00000  Uiso   1.00
C93    C     0.54790   0.28756   0.14309   0.00000  Uiso   1.00
C94    C     0.95222   0.20947   0.14884   0.00000  Uiso   1.00
C95    C     0.95231   0.29047   0.18470   0.00000  Uiso   1.00
C96    C     0.83504   0.25000   0.16670   0.00000  Uiso   1.00
C97    C     0.54805   0.21239   0.19031   0.00000  Uiso   1.00
C98    C     0.59383   0.28792   0.14468   0.00000  Uiso   1.00
C99    C     0.90628   0.20941   0.15036   0.00000  Uiso   1.00
C100   C     0.90637   0.29053   0.18318   0.00000  Uiso   1.00
C101   C     0.59397   0.21203   0.18862   0.00000  Uiso   1.00
C102   C     0.61690   0.24998   0.16664   0.00000  Uiso   1.00
C103   C     0.88325   0.24998   0.16674   0.00000  Uiso   1.00
C104   C     0.52449   0.24997   0.16672   0.00000  Uiso   1.00
C105   C     0.97577   0.24997   0.16676   0.00000  Uiso   1.00
C106   C     0.51046   0.31537   0.07585   0.00000  Uiso   1.00
C107   C     0.78393   0.10468   0.18805   0.00000  Uiso   1.00
C108   C     0.97713   0.35359   0.06063   0.00000  Uiso   1.00
C109   C     0.98787   0.17248   0.08554   0.00000  Uiso   1.00
C110   C     0.50814   0.12496   0.06926   0.00000  Uiso   1.00
C111   C     0.98839   0.32734   0.24801   0.00000  Uiso   1.00
C112   C     0.50820   0.37503   0.26459   0.00000  Uiso   1.00
C113   C     0.51095   0.18465   0.25760   0.00000  Uiso   1.00
C114   C     0.97734   0.14673   0.27264   0.00000  Uiso   1.00
C115   C     0.72825   0.39528   0.13073   0.00000  Uiso   1.00
C116   C     0.71608   0.10465   0.14528   0.00000  Uiso   1.00
C117   C     0.77176   0.39531   0.20259   0.00000  Uiso   1.00
C118   C     0.78474   0.05396   0.18812   0.00000  Uiso   1.00
C119   C     0.72812   0.44600   0.12984   0.00000  Uiso   1.00
C120   C     0.71528   0.05393   0.14520   0.00000  Uiso   1.00
Cu121  Cu    0.75000   0.29821   0.16667   0.00000  Uiso   1.00
Cu122  Cu    0.75000   0.20178   0.16667   0.00000  Uiso   1.00
H123   H     0.81076   0.12426   0.20509   0.00000  Uiso   1.00
H124   H     0.71137   0.46395   0.09995   0.00000  Uiso   1.00
H125   H     0.68715   0.03595   0.12891   0.00000  Uiso   1.00
H126   H     0.78866   0.46401   0.23337   0.00000  Uiso   1.00
H127   H     0.99312   0.28009   0.07477   0.00000  Uiso   1.00
H128   H     0.53813   0.31485   0.04913   0.00000  Uiso   1.00
H129   H     0.99359   0.38924   0.05763   0.00000  Uiso   1.00
H130   H     0.96226   0.34398   0.02478   0.00000  Uiso   1.00
H131   H     0.95031   0.35590   0.08821   0.00000  Uiso   1.00
H132   H     0.51393   0.20048   0.08257   0.00000  Uiso   1.00
H133   H     0.95988   0.18151   0.06062   0.00000  Uiso   1.00
H134   H     0.71098   0.37562   0.10234   0.00000  Uiso   1.00
H135   H     0.98244   0.09641   0.06816   0.00000  Uiso   1.00
H136   H     0.52280   0.12894   0.03230   0.00000  Uiso   1.00
H137   H     0.53467   0.11409   0.09519   0.00000  Uiso   1.00
H138   H     0.51479   0.29968   0.25073   0.00000  Uiso   1.00
H139   H     0.96068   0.31775   0.27293   0.00000  Uiso   1.00
H140   H     0.98217   0.40320   0.26594   0.00000  Uiso   1.00
H141   H     0.52315   0.37100   0.30150   0.00000  Uiso   1.00
H142   H     0.53443   0.38645   0.23869   0.00000  Uiso   1.00
H143   H     0.99391   0.22010   0.25875   0.00000  Uiso   1.00
H144   H     0.53869   0.18484   0.28440   0.00000  Uiso   1.00
H145   H     0.68925   0.12420   0.12823   0.00000  Uiso   1.00
H146   H     0.96259   0.15645   0.30842   0.00000  Uiso   1.00
H147   H     0.99352   0.11093   0.27568   0.00000  Uiso   1.00
H148   H     0.95046   0.14469   0.24494   0.00000  Uiso   1.00
H149   H     0.78903   0.37568   0.23099   0.00000  Uiso   1.00
H150   H     0.61146   0.31756   0.12783   0.00000  Uiso   1.00
H151   H     0.88866   0.17769   0.13783   0.00000  Uiso   1.00
H152   H     0.88882   0.32224   0.19573   0.00000  Uiso   1.00
H153   H     0.61171   0.18238   0.20543   0.00000  Uiso   1.00
H154   H     0.81287   0.03601   0.20441   0.00000  Uiso   1.00
N155   N     0.75000   0.12934   0.16667   0.00000  Uiso   1.00
N156   N     0.75000   0.37065   0.16667   0.00000  Uiso   1.00
O157   O     0.68573   0.29071   0.16667   0.00000  Uiso   1.00
O158   O     0.97336   0.16765   0.13430   0.00000  Uiso   1.00
O159   O     0.97353   0.33227   0.19931   0.00000  Uiso   1.00
O160   O     0.52682   0.17301   0.21053   0.00000  Uiso   1.00
O161   O     0.81427   0.20928   0.16666   0.00000  Uiso   1.00
O162   O     0.81427   0.29071   0.16666   0.00000  Uiso   1.00
O163   O     0.68573   0.20928   0.16667   0.00000  Uiso   1.00
O164   O     0.75000   0.29071   0.09613   0.00000  Uiso   1.00
O165   O     0.75000   0.20929   0.23720   0.00000  Uiso   1.00
O166   O     0.75000   0.29071   0.23720   0.00000  Uiso   1.00
O167   O     0.75000   0.20929   0.09613   0.00000  Uiso   1.00
O168   O     0.52653   0.32695   0.12295   0.00000  Uiso   1.00
C169   C     0.16501   0.75000   0.16664   0.00000  Uiso   1.00
C170   C     0.27191   0.94604   0.20348   0.00000  Uiso   1.00
C171   C     0.24998   0.74999   0.07350   0.00000  Uiso   1.00
C172   C     0.25002   0.75001   0.25983   0.00000  Uiso   1.00
C173   C     0.25001   0.52732   0.16666   0.00000  Uiso   1.00
C174   C     0.25001   0.97264   0.16666   0.00000  Uiso   1.00
C175   C     0.24999   0.75000   0.02182   0.00000  Uiso   1.00
C176   C     0.25001   0.75002   0.31151   0.00000  Uiso   1.00
C177   C     0.04790   0.78756   0.14309   0.00000  Uiso   1.00
C178   C     0.45222   0.70947   0.14884   0.00000  Uiso   1.00
C179   C     0.45231   0.79047   0.18470   0.00000  Uiso   1.00
C180   C     0.33504   0.75000   0.16670   0.00000  Uiso   1.00
C181   C     0.04805   0.71239   0.19031   0.00000  Uiso   1.00
C182   C     0.09383   0.78792   0.14468   0.00000  Uiso   1.00
C183   C     0.40628   0.70941   0.15036   0.00000  Uiso   1.00
C184   C     0.40637   0.79053   0.18318   0.00000  Uiso   1.00
C185   C     0.09397   0.71203   0.18862   0.00000  Uiso   1.00
C186   C     0.11690   0.74998   0.16664   0.00000  Uiso   1.00
C187   C     0.38325   0.74998   0.16674   0.00000  Uiso   1.00
C188   C     0.02449   0.74997   0.16672   0.00000  Uiso   1.00
C189   C     0.47577   0.74997   0.16676   0.00000  Uiso   1.00
C190   C     0.01046   0.81537   0.07585   0.00000  Uiso   1.00
C191   C     0.28393   0.60468   0.18805   0.00000  Uiso   1.00
C192   C     0.47713   0.85359   0.06063   0.00000  Uiso   1.00
C193   C     0.48787   0.67248   0.08554   0.00000  Uiso   1.00
C194   C     0.00814   0.62496   0.06926   0.00000  Uiso   1.00
C195   C     0.48839   0.82734   0.24801   0.00000  Uiso   1.00
C196   C     0.00820   0.87503   0.26459   0.00000  Uiso   1.00
C197   C     0.01095   0.68465   0.25760   0.00000  Uiso   1.00
C198   C     0.47734   0.64673   0.27264   0.00000  Uiso   1.00
C199   C     0.22825   0.89528   0.13073   0.00000  Uiso   1.00
C200   C     0.21608   0.60465   0.14528   0.00000  Uiso   1.00
C201   C     0.27176   0.89531   0.20259   0.00000  Uiso   1.00
C202   C     0.28474   0.55396   0.18812   0.00000  Uiso   1.00
C203   C     0.22812   0.94600   0.12984   0.00000  Uiso   1.00
C204   C     0.21528   0.55393   0.14520   0.00000  Uiso   1.00
Cu205  Cu    0.25000   0.79821   0.16667   0.00000  Uiso   1.00
Cu206  Cu    0.25000   0.70178   0.16667   0.00000  Uiso   1.00
H207   H     0.31076   0.62426   0.20509   0.00000  Uiso   1.00
H208   H     0.21137   0.96395   0.09995   0.00000  Uiso   1.00
H209   H     0.18715   0.53595   0.12891   0.00000  Uiso   1.00
H210   H     0.28866   0.96401   0.23337   0.00000  Uiso   1.00
H211   H     0.49312   0.78009   0.07477   0.00000  Uiso   1.00
H212   H     0.03813   0.81485   0.04913   0.00000  Uiso   1.00
H213   H     0.49359   0.88924   0.05763   0.00000  Uiso   1.00
H214   H     0.46226   0.84398   0.02478   0.00000  Uiso   1.00
H215   H     0.45031   0.85590   0.08821   0.00000  Uiso   1.00
H216   H     0.01393   0.70048   0.08257   0.00000  Uiso   1.00
H217   H     0.45988   0.68151   0.06062   0.00000  Uiso   1.00
H218   H     0.21098   0.87562   0.10234   0.00000  Uiso   1.00
H219   H     0.48244   0.59641   0.06816   0.00000  Uiso   1.00
H220   H     0.02280   0.62894   0.03230   0.00000  Uiso   1.00
H221   H     0.03467   0.61409   0.09519   0.00000  Uiso   1.00
H222   H     0.01479   0.79968   0.25073   0.00000  Uiso   1.00
H223   H     0.46068   0.81775   0.27293   0.00000  Uiso   1.00
H224   H     0.48217   0.90320   0.26594   0.00000  Uiso   1.00
H225   H     0.02315   0.87100   0.30150   0.00000  Uiso   1.00
H226   H     0.03443   0.88645   0.23869   0.00000  Uiso   1.00
H227   H     0.49391   0.72010   0.25875   0.00000  Uiso   1.00
H228   H     0.03869   0.68484   0.28440   0.00000  Uiso   1.00
H229   H     0.18925   0.62420   0.12823   0.00000  Uiso   1.00
H230   H     0.46259   0.65645   0.30842   0.00000  Uiso   1.00
H231   H     0.49352   0.61093   0.27568   0.00000  Uiso   1.00
H232   H     0.45046   0.64469   0.24494   0.00000  Uiso   1.00
H233   H     0.28903   0.87568   0.23099   0.00000  Uiso   1.00
H234   H     0.11146   0.81756   0.12783   0.00000  Uiso   1.00
H235   H     0.38866   0.67769   0.13783   0.00000  Uiso   1.00
H236   H     0.38882   0.82224   0.19573   0.00000  Uiso   1.00
H237   H     0.11171   0.68238   0.20543   0.00000  Uiso   1.00
H238   H     0.31287   0.53601   0.20441   0.00000  Uiso   1.00
N239   N     0.25000   0.62934   0.16667   0.00000  Uiso   1.00
N240   N     0.25000   0.87065   0.16667   0.00000  Uiso   1.00
O241   O     0.18573   0.79071   0.16667   0.00000  Uiso   1.00
O242   O     0.47336   0.66765   0.13430   0.00000  Uiso   1.00
O243   O     0.47353   0.83227   0.19931   0.00000  Uiso   1.00
O244   O     0.02682   0.67301   0.21053   0.00000  Uiso   1.00
O245   O     0.31427   0.70928   0.16666   0.00000  Uiso   1.00
O246   O     0.31427   0.79071   0.16666   0.00000  Uiso   1.00
O247   O     0.18573   0.70928   0.16667   0.00000  Uiso   1.00
O248   O     0.25000   0.79071   0.09613   0.00000  Uiso   1.00
O249   O     0.25000   0.70929   0.23720   0.00000  Uiso   1.00
O250   O     0.25000   0.79071   0.23720   0.00000  Uiso   1.00
O251   O     0.25000   0.70929   0.09613   0.00000  Uiso   1.00
O252   O     0.02653   0.82695   0.12295   0.00000  Uiso   1.00
C253   C     0.66501   0.75000   0.16664   0.00000  Uiso   1.00
C254   C     0.77191   0.94604   0.20348   0.00000  Uiso   1.00
C255   C     0.74998   0.74999   0.07350   0.00000  Uiso   1.00
C256   C     0.75002   0.75001   0.25983   0.00000  Uiso   1.00
C257   C     0.75001   0.52732   0.16666   0.00000  Uiso   1.00
C258   C     0.75001   0.97264   0.16666   0.00000  Uiso   1.00
C259   C     0.74999   0.75000   0.02182   0.00000  Uiso   1.00
C260   C     0.75001   0.75002   0.31151   0.00000  Uiso   1.00
C261   C     0.54790   0.78756   0.14309   0.00000  Uiso   1.00
C262   C     0.95222   0.70947   0.14884   0.00000  Uiso   1.00
C263   C     0.95231   0.79047   0.18470   0.00000  Uiso   1.00
C264   C     0.83504   0.75000   0.16670   0.00000  Uiso   1.00
C265   C     0.54805   0.71239   0.19031   0.00000  Uiso   1.00
C266   C     0.59383   0.78792   0.14468   0.00000  Uiso   1.00
C267   C     0.90628   0.70941   0.15036   0.00000  Uiso   1.00
C268   C     0.90637   0.79053   0.18318   0.00000  Uiso   1.00
C269   C     0.59397   0.71203   0.18862   0.00000  Uiso   1.00
C270   C     0.61690   0.74998   0.16664   0.00000  Uiso   1.00
C271   C     0.88325   0.74998   0.16674   0.00000  Uiso   1.00
C272   C     0.52449   0.74997   0.16672   0.00000  Uiso   1.00
C273   C     0.97577   0.74997   0.16676   0.00000  Uiso   1.00
C274   C     0.51046   0.81537   0.07585   0.00000  Uiso   1.00
C275   C     0.78393   0.60468   0.18805   0.00000  Uiso   1.00
C276   C     0.97713   0.85359   0.06063   0.00000  Uiso   1.00
C277   C     0.98787   0.67248   0.08554   0.00000  Uiso   1.00
C278   C     0.50814   0.62496   0.06926   0.00000  Uiso   1.00
C279   C     0.98839   0.82734   0.24801   0.00000  Uiso   1.00
C280   C     0.50820   0.87503   0.26459   0.00000  Uiso   1.00
C281   C     0.51095   0.68465   0.25760   0.00000  Uiso   1.00
C282   C     0.97734   0.64673   0.27264   0.00000  Uiso   1.00
C283   C     0.72825   0.89528   0.13073   0.00000  Uiso   1.00
C284   C     0.71608   0.60465   0.14528   0.00000  Uiso   1.00
C285   C     0.77176   0.89531   0.20259   0.00000  Uiso   1.00
C286   C     0.78474   0.55396   0.18812   0.00000  Uiso   1.00
C287   C     0.72812   0.94600   0.12984   0.00000  Uiso   1.00
C288   C     0.71528   0.55393   0.14520   0.00000  Uiso   1.00
Cu289  Cu    0.75000   0.79821   0.16667   0.00000  Uiso   1.00
Cu290  Cu    0.75000   0.70178   0.16667   0.00000  Uiso   1.00
H291   H     0.81076   0.62426   0.20509   0.00000  Uiso   1.00
H292   H     0.71137   0.96395   0.09995   0.00000  Uiso   1.00
H293   H     0.68715   0.53595   0.12891   0.00000  Uiso   1.00
H294   H     0.78866   0.96401   0.23337   0.00000  Uiso   1.00
H295   H     0.99312   0.78009   0.07477   0.00000  Uiso   1.00
H296   H     0.53813   0.81485   0.04913   0.00000  Uiso   1.00
H297   H     0.99359   0.88924   0.05763   0.00000  Uiso   1.00
H298   H     0.96226   0.84398   0.02478   0.00000  Uiso   1.00
H299   H     0.95031   0.85590   0.08821   0.00000  Uiso   1.00
H300   H     0.51393   0.70048   0.08257   0.00000  Uiso   1.00
H301   H     0.95988   0.68151   0.06062   0.00000  Uiso   1.00
H302   H     0.71098   0.87562   0.10234   0.00000  Uiso   1.00
H303   H     0.98244   0.59641   0.06816   0.00000  Uiso   1.00
H304   H     0.52280   0.62894   0.03230   0.00000  Uiso   1.00
H305   H     0.53467   0.61409   0.09519   0.00000  Uiso   1.00
H306   H     0.51479   0.79968   0.25073   0.00000  Uiso   1.00
H307   H     0.96068   0.81775   0.27293   0.00000  Uiso   1.00
H308   H     0.98217   0.90320   0.26594   0.00000  Uiso   1.00
H309   H     0.52315   0.87100   0.30150   0.00000  Uiso   1.00
H310   H     0.53443   0.88645   0.23869   0.00000  Uiso   1.00
H311   H     0.99391   0.72010   0.25875   0.00000  Uiso   1.00
H312   H     0.53869   0.68484   0.28440   0.00000  Uiso   1.00
H313   H     0.68925   0.62420   0.12823   0.00000  Uiso   1.00
H314   H     0.96259   0.65645   0.30842   0.00000  Uiso   1.00
H315   H     0.99352   0.61093   0.27568   0.00000  Uiso   1.00
H316   H     0.95046   0.64469   0.24494   0.00000  Uiso   1.00
H317   H     0.78903   0.87568   0.23099   0.00000  Uiso   1.00
H318   H     0.61146   0.81756   0.12783   0.00000  Uiso   1.00
H319   H     0.88866   0.67769   0.13783   0.00000  Uiso   1.00
H320   H     0.88882   0.82224   0.19573   0.00000  Uiso   1.00
H321   H     0.61171   0.68238   0.20543   0.00000  Uiso   1.00
H322   H     0.81287   0.53601   0.20441   0.00000  Uiso   1.00
N323   N     0.75000   0.62934   0.16667   0.00000  Uiso   1.00
N324   N     0.75000   0.87065   0.16667   0.00000  Uiso   1.00
O325   O     0.68573   0.79071   0.16667   0.00000  Uiso   1.00
O326   O     0.97336   0.66765   0.13430   0.00000  Uiso   1.00
O327   O     0.97353   0.83227   0.19931   0.00000  Uiso   1.00
O328   O     0.52682   0.67301   0.21053   0.00000  Uiso   1.00
O329   O     0.81427   0.70928   0.16666   0.00000  Uiso   1.00
O330   O     0.81427   0.79071   0.16666   0.00000  Uiso   1.00
O331   O     0.68573   0.70928   0.16667   0.00000  Uiso   1.00
O332   O     0.75000   0.79071   0.09613   0.00000  Uiso   1.00
O333   O     0.75000   0.70929   0.23720   0.00000  Uiso   1.00
O334   O     0.75000   0.79071   0.23720   0.00000  Uiso   1.00
O335   O     0.75000   0.70929   0.09613   0.00000  Uiso   1.00
O336   O     0.52653   0.82695   0.12295   0.00000  Uiso   1.00
C337   C     0.16501   0.25000   0.49997   0.00000  Uiso   1.00
C338   C     0.27191   0.44604   0.53681   0.00000  Uiso   1.00
C339   C     0.24998   0.24999   0.40683   0.00000  Uiso   1.00
C340   C     0.25002   0.25001   0.59317   0.00000  Uiso   1.00
C341   C     0.25001   0.02732   0.49999   0.00000  Uiso   1.00
C342   C     0.25001   0.47264   0.49999   0.00000  Uiso   1.00
C343   C     0.24999   0.25000   0.35516   0.00000  Uiso   1.00
C344   C     0.25001   0.25002   0.64484   0.00000  Uiso   1.00
C345   C     0.04790   0.28756   0.47642   0.00000  Uiso   1.00
C346   C     0.45222   0.20947   0.48217   0.00000  Uiso   1.00
C347   C     0.45231   0.29047   0.51804   0.00000  Uiso   1.00
C348   C     0.33504   0.25000   0.50003   0.00000  Uiso   1.00
C349   C     0.04805   0.21239   0.52365   0.00000  Uiso   1.00
C350   C     0.09383   0.28792   0.47801   0.00000  Uiso   1.00
C351   C     0.40628   0.20941   0.48369   0.00000  Uiso   1.00
C352   C     0.40637   0.29053   0.51651   0.00000  Uiso   1.00
C353   C     0.09397   0.21203   0.52195   0.00000  Uiso   1.00
C354   C     0.11690   0.24998   0.49997   0.00000  Uiso   1.00
C355   C     0.38325   0.24998   0.50008   0.00000  Uiso   1.00
C356   C     0.02449   0.24997   0.50006   0.00000  Uiso   1.00
C357   C     0.47577   0.24997   0.50009   0.00000  Uiso   1.00
C358   C     0.01046   0.31537   0.40918   0.00000  Uiso   1.00
C359   C     0.28393   0.10468   0.52138   0.00000  Uiso   1.00
C360   C     0.47713   0.35359   0.39396   0.00000  Uiso   1.00
C361   C     0.48787   0.17248   0.41888   0.00000  Uiso   1.00
C362   C     0.00814   0.12496   0.40260   0.00000  Uiso   1.00
C363   C     0.48839   0.32734   0.58135   0.00000  Uiso   1.00
C364   C     0.00820   0.37503   0.59792   0.00000  Uiso   1.00
C365   C     0.01095   0.18465   0.59093   0.00000  Uiso   1.00
C366   C     0.47734   0.14673   0.60597   0.00000  Uiso   1.00
C367   C     0.22825   0.39528   0.46407   0.00000  Uiso   1.00
C368   C     0.21608   0.10465   0.47861   0.00000  Uiso   1.00
C369   C     0.27176   0.39531   0.53593   0.00000  Uiso   1.00
C370   C     0.28474   0.05396   0.52145   0.00000  Uiso   1.00
C371   C     0.22812   0.44600   0.46318   0.00000  Uiso   1.00
C372   C     0.21528   0.05393   0.47853   0.00000  Uiso   1.00
Cu373  Cu    0.25000   0.29821   0.50000   0.00000  Uiso   1.00
Cu374  Cu    0.25000   0.20178   0.50000   0.00000  Uiso   1.00
H375   H     0.31076   0.12426   0.53843   0.00000  Uiso   1.00
H376   H     0.21137   0.46395   0.43328   0.00000  Uiso   1.00
H377   H     0.18715   0.03595   0.46224   0.00000  Uiso   1.00
H378   H     0.28866   0.46401   0.56670   0.00000  Uiso   1.00
H379   H     0.49312   0.28009   0.40810   0.00000  Uiso   1.00
H380   H     0.03813   0.31485   0.38247   0.00000  Uiso   1.00
H381   H     0.49359   0.38924   0.39097   0.00000  Uiso   1.00
H382   H     0.46226   0.34398   0.35812   0.00000  Uiso   1.00
H383   H     0.45031   0.35590   0.42154   0.00000  Uiso   1.00
H384   H     0.01393   0.20048   0.41591   0.00000  Uiso   1.00
H385   H     0.45988   0.18151   0.39395   0.00000  Uiso   1.00
H386   H     0.21098   0.37562   0.43567   0.00000  Uiso   1.00
H387   H     0.48244   0.09641   0.40149   0.00000  Uiso   1.00
H388   H     0.02280   0.12894   0.36563   0.00000  Uiso   1.00
H389   H     0.03467   0.11409   0.42853   0.00000  Uiso   1.00
H390   H     0.01479   0.29968   0.58407   0.00000  Uiso   1.00
H391   H     0.46068   0.31775   0.60627   0.00000  Uiso   1.00
H392   H     0.48217   0.40320   0.59928   0.00000  Uiso   1.00
H393   H     0.02315   0.37100   0.63483   0.00000  Uiso   1.00
H394   H     0.03443   0.38645   0.57202   0.00000  Uiso   1.00
H395   H     0.49391   0.22010   0.59208   0.00000  Uiso   1.00
H396   H     0.03869   0.18484   0.61773   0.00000  Uiso   1.00
H397   H     0.18925   0.12420   0.46156   0.00000  Uiso   1.00
H398   H     0.46259   0.15645   0.64175   0.00000  Uiso   1.00
H399   H     0.49352   0.11093   0.60901   0.00000  Uiso   1.00
H400   H     0.45046   0.14469   0.57827   0.00000  Uiso   1.00
H401   H     0.28903   0.37568   0.56432   0.00000  Uiso   1.00
H402   H     0.11146   0.31756   0.46116   0.00000  Uiso   1.00
H403   H     0.38866   0.17769   0.47116   0.00000  Uiso   1.00
H404   H     0.38882   0.32224   0.52907   0.00000  Uiso   1.00
H405   H     0.11171   0.18238   0.53877   0.00000  Uiso   1.00
H406   H     0.31287   0.03601   0.53775   0.00000  Uiso   1.00
N407   N     0.25000   0.12934   0.50000   0.00000  Uiso   1.00
N408   N     0.25000   0.37065   0.50000   0.00000  Uiso   1.00
O409   O     0.18573   0.29071   0.50000   0.00000  Uiso   1.00
O410   O     0.47336   0.16765   0.46763   0.00000  Uiso   1.00
O411   O     0.47353   0.33227   0.53264   0.00000  Uiso   1.00
O412   O     0.02682   0.17301   0.54386   0.00000  Uiso   1.00
O413   O     0.31427   0.20928   0.50000   0.00000  Uiso   1.00
O414   O     0.31427   0.29071   0.50000   0.00000  Uiso   1.00
O415   O     0.18573   0.20928   0.50000   0.00000  Uiso   1.00
O416   O     0.25000   0.29071   0.42946   0.00000  Uiso   1.00
O417   O     0.25000   0.20929   0.57054   0.00000  Uiso   1.00
O418   O     0.25000   0.29071   0.57054   0.00000  Uiso   1.00
O419   O     0.25000   0.20929   0.42946   0.00000  Uiso   1.00
O420   O     0.02653   0.32695   0.45628   0.00000  Uiso   1.00
C421   C     0.66501   0.25000   0.49997   0.00000  Uiso   1.00
C422   C     0.77191   0.44604   0.53681   0.00000  Uiso   1.00
C423   C     0.74998   0.24999   0.40683   0.00000  Uiso   1.00
C424   C     0.75002   0.25001   0.59317   0.00000  Uiso   1.00
C425   C     0.75001   0.02732   0.49999   0.00000  Uiso   1.00
C426   C     0.75001   0.47264   0.49999   0.00000  Uiso   1.00
C427   C     0.74999   0.25000   0.35516   0.00000  Uiso   1.00
C428   C     0.75001   0.25002   0.64484   0.00000  Uiso   1.00
C429   C     0.54790   0.28756   0.47642   0.00000  Uiso   1.00
C430   C     0.95222   0.20947   0.48217   0.00000  Uiso   1.00
C431   C     0.95231   0.29047   0.51804   0.00000  Uiso   1.00
C432   C     0.83504   0.25000   0.50003   0.00000  Uiso   1.00
C433   C     0.54805   0.21239   0.52365   0.00000  Uiso   1.00
C434   C     0.59383   0.28792   0.47801   0.00000  Uiso   1.00
C435   C     0.90628   0.20941   0.48369   0.00000  Uiso   1.00
C436   C     0.90637   0.29053   0.51651   0.00000  Uiso   1.00
C437   C     0.59397   0.21203   0.52195   0.00000  Uiso   1.00
C438   C     0.61690   0.24998   0.49997   0.00000  Uiso   1.00
C439   C     0.88325   0.24998   0.50008   0.00000  Uiso   1.00
C440   C     0.52449   0.24997   0.50006   0.00000  Uiso   1.00
C441   C     0.97577   0.24997   0.50009   0.00000  Uiso   1.00
C442   C     0.51046   0.31537   0.40918   0.00000  Uiso   1.00
C443   C     0.78393   0.10468   0.52138   0.00000  Uiso   1.00
C444   C     0.97713   0.35359   0.39396   0.00000  Uiso   1.00
C445   C     0.98787   0.17248   0.41888   0.00000  Uiso   1.00
C446   C     0.50814   0.12496   0.40260   0.00000  Uiso   1.00
C447   C     0.98839   0.32734   0.58135   0.00000  Uiso   1.00
C448   C     0.50820   0.37503   0.59792   0.00000  Uiso   1.00
C449   C     0.51095   0.18465   0.59093   0.00000  Uiso   1.00
C450   C     0.97734   0.14673   0.60597   0.00000  Uiso   1.00
C451   C     0.72825   0.39528   0.46407   0.00000  Uiso   1.00
C452   C     0.71608   0.10465   0.47861   0.00000  Uiso   1.00
C453   C     0.77176   0.39531   0.53593   0.00000  Uiso   1.00
C454   C     0.78474   0.05396   0.52145   0.00000  Uiso   1.00
C455   C     0.72812   0.44600   0.46318   0.00000  Uiso   1.00
C456   C     0.71528   0.05393   0.47853   0.00000  Uiso   1.00
Cu457  Cu    0.75000   0.29821   0.50000   0.00000  Uiso   1.00
Cu458  Cu    0.75000   0.20178   0.50000   0.00000  Uiso   1.00
H459   H     0.81076   0.12426   0.53843   0.00000  Uiso   1.00
H460   H     0.71137   0.46395   0.43328   0.00000  Uiso   1.00
H461   H     0.68715   0.03595   0.46224   0.00000  Uiso   1.00
H462   H     0.78866   0.46401   0.56670   0.00000  Uiso   1.00
H463   H     0.99312   0.28009   0.40810   0.00000  Uiso   1.00
H464   H     0.53813   0.31485   0.38247   0.00000  Uiso   1.00
H465   H     0.99359   0.38924   0.39097   0.00000  Uiso   1.00
H466   H     0.96226   0.34398   0.35812   0.00000  Uiso   1.00
H467   H     0.95031   0.35590   0.42154   0.00000  Uiso   1.00
H468   H     0.51393   0.20048   0.41591   0.00000  Uiso   1.00
H469   H     0.95988   0.18151   0.39395   0.00000  Uiso   1.00
H470   H     0.71098   0.37562   0.43567   0.00000  Uiso   1.00
H471   H     0.98244   0.09641   0.40149   0.00000  Uiso   1.00
H472   H     0.52280   0.12894   0.36563   0.00000  Uiso   1.00
H473   H     0.53467   0.11409   0.42853   0.00000  Uiso   1.00
H474   H     0.51479   0.29968   0.58407   0.00000  Uiso   1.00
H475   H     0.96068   0.31775   0.60627   0.00000  Uiso   1.00
H476   H     0.98217   0.40320   0.59928   0.00000  Uiso   1.00
H477   H     0.52315   0.37100   0.63483   0.00000  Uiso   1.00
H478   H     0.53443   0.38645   0.57202   0.00000  Uiso   1.00
H479   H     0.99391   0.22010   0.59208   0.00000  Uiso   1.00
H480   H     0.53869   0.18484   0.61773   0.00000  Uiso   1.00
H481   H     0.68925   0.12420   0.46156   0.00000  Uiso   1.00
H482   H     0.96259   0.15645   0.64175   0.00000  Uiso   1.00
H483   H     0.99352   0.11093   0.60901   0.00000  Uiso   1.00
H484   H     0.95046   0.14469   0.57827   0.00000  Uiso   1.00
H485   H     0.78903   0.37568   0.56432   0.00000  Uiso   1.00
H486   H     0.61146   0.31756   0.46116   0.00000  Uiso   1.00
H487   H     0.88866   0.17769   0.47116   0.00000  Uiso   1.00
H488   H     0.88882   0.32224   0.52907   0.00000  Uiso   1.00
H489   H     0.61171   0.18238   0.53877   0.00000  Uiso   1.00
H490   H     0.81287   0.03601   0.53775   0.00000  Uiso   1.00
N491   N     0.75000   0.12934   0.50000   0.00000  Uiso   1.00
N492   N     0.75000   0.37065   0.50000   0.00000  Uiso   1.00
O493   O     0.68573   0.29071   0.50000   0.00000  Uiso   1.00
O494   O     0.97336   0.16765   0.46763   0.00000  Uiso   1.00
O495   O     0.97353   0.33227   0.53264   0.00000  Uiso   1.00
O496   O     0.52682   0.17301   0.54386   0.00000  Uiso   1.00
O497   O     0.81427   0.20928   0.50000   0.00000  Uiso   1.00
O498   O     0.81427   0.29071   0.50000   0.00000  Uiso   1.00
O499   O     0.68573   0.20928   0.50000   0.00000  Uiso   1.00
O500   O     0.75000   0.29071   0.42946   0.00000  Uiso   1.00
O501   O     0.75000   0.20929   0.57054   0.00000  Uiso   1.00
O502   O     0.75000   0.29071   0.57054   0.00000  Uiso   1.00
O503   O     0.75000   0.20929   0.42946   0.00000  Uiso   1.00
O504   O     0.52653   0.32695   0.45628   0.00000  Uiso   1.00
C505   C     0.16501   0.75000   0.49997   0.00000  Uiso   1.00
C506   C     0.27191   0.94604   0.53681   0.00000  Uiso   1.00
C507   C     0.24998   0.74999   0.40683   0.00000  Uiso   1.00
C508   C     0.25002   0.75001   0.59317   0.00000  Uiso   1.00
C509   C     0.25001   0.52732   0.49999   0.00000  Uiso   1.00
C510   C     0.25001   0.97264   0.49999   0.00000  Uiso   1.00
C511   C     0.24999   0.75000   0.35516   0.00000  Uiso   1.00
C512   C     0.25001   0.75002   0.64484   0.00000  Uiso   1.00
C513   C     0.04790   0.78756   0.47642   0.00000  Uiso   1.00
C514   C     0.45222   0.70947   0.48217   0.00000  Uiso   1.00
C515   C     0.45231   0.79047   0.51804   0.00000  Uiso   1.00
C516   C     0.33504   0.75000   0.50003   0.00000  Uiso   1.00
C517   C     0.04805   0.71239   0.52365   0.00000  Uiso   1.00
C518   C     0.09383   0.78792   0.47801   0.00000  Uiso   1.00
C519   C     0.40628   0.70941   0.48369   0.00000  Uiso   1.00
C520   C     0.40637   0.79053   0.51651   0.00000  Uiso   1.00
C521   C     0.09397   0.71203   0.52195   0.00000  Uiso   1.00
C522   C     0.11690   0.74998   0.49997   0.00000  Uiso   1.00
C523   C     0.38325   0.74998   0.50008   0.00000  Uiso   1.00
C524   C     0.02449   0.74997   0.50006   0.00000  Uiso   1.00
C525   C     0.47577   0.74997   0.50009   0.00000  Uiso   1.00
C526   C     0.01046   0.81537   0.40918   0.00000  Uiso   1.00
C527   C     0.28393   0.60468   0.52138   0.00000  Uiso   1.00
C528   C     0.47713   0.85359   0.39396   0.00000  Uiso   1.00
C529   C     0.48787   0.67248   0.41888   0.00000  Uiso   1.00
C530   C     0.00814   0.62496   0.40260   0.00000  Uiso   1.00
C531   C     0.48839   0.82734   0.58135   0.00000  Uiso   1.00
C532   C     0.00820   0.87503   0.59792   0.00000  Uiso   1.00
C533   C     0.01095   0.68465   0.59093   0.00000  Uiso   1.00
C534   C     0.47734   0.64673   0.60597   0.00000  Uiso   1.00
C535   C     0.22825   0.89528   0.46407   0.00000  Uiso   1.00
C536   C     0.21608   0.60465   0.47861   0.00000  Uiso   1.00
C537   C     0.27176   0.89531   0.53593   0.00000  Uiso   1.00
C538   C     0.28474   0.55396   0.52145   0.00000  Uiso   1.00
C539   C     0.22812   0.94600   0.46318   0.00000  Uiso   1.00
C540   C     0.21528   0.55393   0.47853   0.00000  Uiso   1.00
Cu541  Cu    0.25000   0.79821   0.50000   0.00000  Uiso   1.00
Cu542  Cu    0.25000   0.70178   0.50000   0.00000  Uiso   1.00
H543   H     0.31076   0.62426   0.53843   0.00000  Uiso   1.00
H544   H     0.21137   0.96395   0.43328   0.00000  Uiso   1.00
H545   H     0.18715   0.53595   0.46224   0.00000  Uiso   1.00
H546   H     0.28866   0.96401   0.56670   0.00000  Uiso   1.00
H547   H     0.49312   0.78009   0.40810   0.00000  Uiso   1.00
H548   H     0.03813   0.81485   0.38247   0.00000  Uiso   1.00
H549   H     0.49359   0.88924   0.39097   0.00000  Uiso   1.00
H550   H     0.46226   0.84398   0.35812   0.00000  Uiso   1.00
H551   H     0.45031   0.85590   0.42154   0.00000  Uiso   1.00
H552   H     0.01393   0.70048   0.41591   0.00000  Uiso   1.00
H553   H     0.45988   0.68151   0.39395   0.00000  Uiso   1.00
H554   H     0.21098   0.87562   0.43567   0.00000  Uiso   1.00
H555   H     0.48244   0.59641   0.40149   0.00000  Uiso   1.00
H556   H     0.02280   0.62894   0.36563   0.00000  Uiso   1.00
H557   H     0.03467   0.61409   0.42853   0.00000  Uiso   1.00
H558   H     0.01479   0.79968   0.58407   0.00000  Uiso   1.00
H559   H     0.46068   0.81775   0.60627   0.00000  Uiso   1.00
H560   H     0.48217   0.90320   0.59928   0.00000  Uiso   1.00
H561   H     0.02315   0.87100   0.63483   0.00000  Uiso   1.00
H562   H     0.03443   0.88645   0.57202   0.00000  Uiso   1.00
H563   H     0.49391   0.72010   0.59208   0.00000  Uiso   1.00
H564   H     0.03869   0.68484   0.61773   0.00000  Uiso   1.00
H565   H     0.18925   0.62420   0.46156   0.00000  Uiso   1.00
H566   H     0.46259   0.65645   0.64175   0.00000  Uiso   1.00
H567   H     0.49352   0.61093   0.60901   0.00000  Uiso   1.00
H568   H     0.45046   0.64469   0.57827   0.00000  Uiso   1.00
H569   H     0.28903   0.87568   0.56432   0.00000  Uiso   1.00
H570   H     0.11146   0.81756   0.46116   0.00000  Uiso   1.00
H571   H     0.38866   0.67769   0.47116   0.00000  Uiso   1.00
H572   H     0.38882   0.82224   0.52907   0.00000  Uiso   1.00
H573   H     0.11171   0.68238   0.53877   0.00000  Uiso   1.00
H574   H     0.31287   0.53601   0.53775   0.00000  Uiso   1.00
N575   N     0.25000   0.62934   0.50000   0.00000  Uiso   1.00
N576   N     0.25000   0.87065   0.50000   0.00000  Uiso   1.00
O577   O     0.18573   0.79071   0.50000   0.00000  Uiso   1.00
O578   O     0.47336   0.66765   0.46763   0.00000  Uiso   1.00
O579   O     0.47353   0.83227   0.53264   0.00000  Uiso   1.00
O580   O     0.02682   0.67301   0.54386   0.00000  Uiso   1.00
O581   O     0.31427   0.70928   0.50000   0.00000  Uiso   1.00
O582   O     0.31427   0.79071   0.50000   0.00000  Uiso   1.00
O583   O     0.18573   0.70928   0.50000   0.00000  Uiso   1.00
O584   O     0.25000   0.79071   0.42946   0.00000  Uiso   1.00
O585   O     0.25000   0.70929   0.57054   0.00000  Uiso   1.00
O586   O     0.25000   0.79071   0.57054   0.00000  Uiso   1.00
O587   O     0.25000   0.70929   0.42946   0.00000  Uiso   1.00
O588   O     0.02653   0.82695   0.45628   0.00000  Uiso   1.00
C589   C     0.66501   0.75000   0.49997   0.00000  Uiso   1.00
C590   C     0.77191   0.94604   0.53681   0.00000  Uiso   1.00
C591   C     0.74998   0.74999   0.40683   0.00000  Uiso   1.00
C592   C     0.75002   0.75001   0.59317   0.00000  Uiso   1.00
C593   C     0.75001   0.52732   0.49999   0.00000  Uiso   1.00
C594   C     0.75001   0.97264   0.49999   0.00000  Uiso   1.00
C595   C     0.74999   0.75000   0.35516   0.00000  Uiso   1.00
C596   C     0.75001   0.75002   0.64484   0.00000  Uiso   1.00
C597   C     0.54790   0.78756   0.47642   0.00000  Uiso   1.00
C598   C     0.95222   0.70947   0.48217   0.00000  Uiso   1.00
C599   C     0.95231   0.79047   0.51804   0.00000  Uiso   1.00
C600   C     0.83504   0.75000   0.50003   0.00000  Uiso   1.00
C601   C     0.54805   0.71239   0.52365   0.00000  Uiso   1.00
C602   C     0.59383   0.78792   0.47801   0.00000  Uiso   1.00
C603   C     0.90628   0.70941   0.48369   0.00000  Uiso   1.00
C604   C     0.90637   0.79053   0.51651   0.00000  Uiso   1.00
C605   C     0.59397   0.71203   0.52195   0.00000  Uiso   1.00
C606   C     0.61690   0.74998   0.49997   0.00000  Uiso   1.00
C607   C     0.88325   0.74998   0.50008   0.00000  Uiso   1.00
C608   C     0.52449   0.74997   0.50006   0.00000  Uiso   1.00
C609   C     0.97577   0.74997   0.50009   0.00000  Uiso   1.00
C610   C     0.51046   0.81537   0.40918   0.00000  Uiso   1.00
C611   C     0.78393   0.60468   0.52138   0.00000  Uiso   1.00
C612   C     0.97713   0.85359   0.39396   0.00000  Uiso   1.00
C613   C     0.98787   0.67248   0.41888   0.00000  Uiso   1.00
C614   C     0.50814   0.62496   0.40260   0.00000  Uiso   1.00
C615   C     0.98839   0.82734   0.58135   0.00000  Uiso   1.00
C616   C     0.50820   0.87503   0.59792   0.00000  Uiso   1.00
C617   C     0.51095   0.68465   0.59093   0.00000  Uiso   1.00
C618   C     0.97734   0.64673   0.60597   0.00000  Uiso   1.00
C619   C     0.72825   0.89528   0.46407   0.00000  Uiso   1.00
C620   C     0.71608   0.60465   0.47861   0.00000  Uiso   1.00
C621   C     0.77176   0.89531   0.53593   0.00000  Uiso   1.00
C622   C     0.78474   0.55396   0.52145   0.00000  Uiso   1.00
C623   C     0.72812   0.94600   0.46318   0.00000  Uiso   1.00
C624   C     0.71528   0.55393   0.47853   0.00000  Uiso   1.00
Cu625  Cu    0.75000   0.79821   0.50000   0.00000  Uiso   1.00
Cu626  Cu    0.75000   0.70178   0.50000   0.00000  Uiso   1.00
H627   H     0.81076   0.62426   0.53843   0.00000  Uiso   1.00
H628   H     0.71137   0.96395   0.43328   0.00000  Uiso   1.00
H629   H     0.68715   0.53595   0.46224   0.00000  Uiso   1.00
H630   H     0.78866   0.96401   0.56670   0.00000  Uiso   1.00
H631   H     0.99312   0.78009   0.40810   0.00000  Uiso   1.00
H632   H     0.53813   0.81485   0.38247   0.00000  Uiso   1.00
H633   H     0.99359   0.88924   0.39097   0.00000  Uiso   1.00
H634   H     0.96226   0.84398   0.35812   0.00000  Uiso   1.00
H635   H     0.95031   0.85590   0.42154   0.00000  Uiso   1.00
H636   H     0.51393   0.70048   0.41591   0.00000  Uiso   1.00
H637   H     0.95988   0.68151   0.39395   0.00000  Uiso   1.00
H638   H     0.71098   0.87562   0.43567   0.00000  Uiso   1.00
H639   H     0.98244   0.59641   0.40149   0.00000  Uiso   1.00
H640   H     0.52280   0.62894   0.36563   0.00000  Uiso   1.00
H641   H     0.53467   0.61409   0.42853   0.00000  Uiso   1.00
H642   H     0.51479   0.79968   0.58407   0.00000  Uiso   1.00
H643   H     0.96068   0.81775   0.60627   0.00000  Uiso   1.00
H644   H     0.98217   0.90320   0.59928   0.00000  Uiso   1.00
H645   H     0.52315   0.87100   0.63483   0.00000  Uiso   1.00
H646   H     0.53443   0.88645   0.57202   0.00000  Uiso   1.00
H647   H     0.99391   0.72010   0.59208   0.00000  Uiso   1.00
H648   H     0.53869   0.68484   0.61773   0.00000  Uiso   1.00
H649   H     0.68925   0.62420   0.46156   0.00000  Uiso   1.00
H650   H     0.96259   0.65645   0.64175   0.00000  Uiso   1.00
H651   H     0.99352   0.61093   0.60901   0.00000  Uiso   1.00
H652   H     0.95046   0.64469   0.57827   0.00000  Uiso   1.00
H653   H     0.78903   0.87568   0.56432   0.00000  Uiso   1.00
H654   H     0.61146   0.81756   0.46116   0.00000  Uiso   1.00
H655   H     0.88866   0.67769   0.47116   0.00000  Uiso   1.00
H656   H     0.88882   0.82224   0.52907   0.00000  Uiso   1.00
H657   H     0.61171   0.68238   0.53877   0.00000  Uiso   1.00
H658   H     0.81287   0.53601   0.53775   0.00000  Uiso   1.00
N659   N     0.75000   0.62934   0.50000   0.00000  Uiso   1.00
N660   N     0.75000   0.87065   0.50000   0.00000  Uiso   1.00
O661   O     0.68573   0.79071   0.50000   0.00000  Uiso   1.00
O662   O     0.97336   0.66765   0.46763   0.00000  Uiso   1.00
O663   O     0.97353   0.83227   0.53264   0.00000  Uiso   1.00
O664   O     0.52682   0.67301   0.54386   0.00000  Uiso   1.00
O665   O     0.81427   0.70928   0.50000   0.00000  Uiso   1.00
O666   O     0.81427   0.79071   0.50000   0.00000  Uiso   1.00
O667   O     0.68573   0.70928   0.50000   0.00000  Uiso   1.00
O668   O     0.75000   0.79071   0.42946   0.00000  Uiso   1.00
O669   O     0.75000   0.70929   0.57054   0.00000  Uiso   1.00
O670   O     0.75000   0.79071   0.57054   0.00000  Uiso   1.00
O671   O     0.75000   0.70929   0.42946   0.00000  Uiso   1.00
O672   O     0.52653   0.82695   0.45628   0.00000  Uiso   1.00
C673   C     0.16501   0.25000   0.83331   0.00000  Uiso   1.00
C674   C     0.27191   0.44604   0.87015   0.00000  Uiso   1.00
C675   C     0.24998   0.24999   0.74017   0.00000  Uiso   1.00
C676   C     0.25002   0.25001   0.92650   0.00000  Uiso   1.00
C677   C     0.25001   0.02732   0.83333   0.00000  Uiso   1.00
C678   C     0.25001   0.47264   0.83333   0.00000  Uiso   1.00
C679   C     0.24999   0.25000   0.68849   0.00000  Uiso   1.00
C680   C     0.25001   0.25002   0.97818   0.00000  Uiso   1.00
C681   C     0.04790   0.28756   0.80975   0.00000  Uiso   1.00
C682   C     0.45222   0.20947   0.81550   0.00000  Uiso   1.00
C683   C     0.45231   0.29047   0.85137   0.00000  Uiso   1.00
C684   C     0.33504   0.25000   0.83337   0.00000  Uiso   1.00
C685   C     0.04805   0.21239   0.85698   0.00000  Uiso   1.00
C686   C     0.09383   0.28792   0.81134   0.00000  Uiso   1.00
C687   C     0.40628   0.20941   0.81702   0.00000  Uiso   1.00
C688   C     0.40637   0.29053   0.84984   0.00000  Uiso   1.00
C689   C     0.09397   0.21203   0.85528   0.00000  Uiso   1.00
C690   C     0.11690   0.24998   0.83330   0.00000  Uiso   1.00
C691   C     0.38325   0.24998   0.83341   0.00000  Uiso   1.00
C692   C     0.02449   0.24997   0.83339   0.00000  Uiso   1.00
C693   C     0.47577   0.24997   0.83343   0.00000  Uiso   1.00
C694   C     0.01046   0.31537   0.74252   0.00000  Uiso   1.00
C695   C     0.28393   0.10468   0.85472   0.00000  Uiso   1.00
C696   C     0.47713   0.35359   0.72729   0.00000  Uiso   1.00
C697   C     0.48787   0.17248   0.75221   0.00000  Uiso   1.00
C698   C     0.00814   0.12496   0.73593   0.00000  Uiso   1.00
C699   C     0.48839   0.32734   0.91468   0.00000  Uiso   1.00
C700   C     0.00820   0.37503   0.93125   0.00000  Uiso   1.00
C701   C     0.01095   0.18465   0.92427   0.00000  Uiso   1.00
C702   C     0.47734   0.14673   0.93930   0.00000  Uiso   1.00
C703   C     0.22825   0.39528   0.79740   0.00000  Uiso   1.00
C704   C     0.21608   0.10465   0.81194   0.00000  Uiso   1.00
C705   C     0.27176   0.39531   0.86926   0.00000  Uiso   1.00
C706   C     0.28474   0.05396   0.85479   0.00000  Uiso   1.00
C707   C     0.22812   0.44600   0.79651   0.00000  Uiso   1.00
C708   C     0.21528   0.05393   0.81187   0.00000  Uiso   1.00
Cu709  Cu    0.25000   0.29821   0.83333   0.00000  Uiso   1.00
Cu710  Cu    0.25000   0.20178   0.83333   0.00000  Uiso   1.00
H711   H     0.31076   0.12426   0.87176   0.00000  Uiso   1.00
H712   H     0.21137   0.46395   0.76661   0.00000  Uiso   1.00
H713   H     0.18715   0.03595   0.79557   0.00000  Uiso   1.00
H714   H     0.28866   0.46401   0.90004   0.00000  Uiso   1.00
H715   H     0.49312   0.28009   0.74143   0.00000  Uiso   1.00
H716   H     0.03813   0.31485   0.71580   0.00000  Uiso   1.00
H717   H     0.49359   0.38924   0.72430   0.00000  Uiso   1.00
H718   H     0.46226   0.34398   0.69145   0.00000  Uiso   1.00
H719   H     0.45031   0.35590   0.75487   0.00000  Uiso   1.00
H720   H     0.01393   0.20048   0.74924   0.00000  Uiso   1.00
H721   H     0.45988   0.18151   0.72729   0.00000  Uiso   1.00
H722   H     0.21098   0.37562   0.76900   0.00000  Uiso   1.00
H723   H     0.48244   0.09641   0.73483   0.00000  Uiso   1.00
H724   H     0.02280   0.12894   0.69896   0.00000  Uiso   1.00
H725   H     0.03467   0.11409   0.76186   0.00000  Uiso   1.00
H726   H     0.01479   0.29968   0.91740   0.00000  Uiso   1.00
H727   H     0.46068   0.31775   0.93960   0.00000  Uiso   1.00
H728   H     0.48217   0.40320   0.93261   0.00000  Uiso   1.00
H729   H     0.02315   0.37100   0.96817   0.00000  Uiso   1.00
H730   H     0.03443   0.38645   0.90535   0.00000  Uiso   1.00
H731   H     0.49391   0.22010   0.92541   0.00000  Uiso   1.00
H732   H     0.03869   0.18484   0.95106   0.00000  Uiso   1.00
H733   H     0.18925   0.12420   0.79489   0.00000  Uiso   1.00
H734   H     0.46259   0.15645   0.97509   0.00000  Uiso   1.00
H735   H     0.49352   0.11093   0.94235   0.00000  Uiso   1.00
H736   H     0.45046   0.14469   0.91160   0.00000  Uiso   1.00
H737   H     0.28903   0.37568   0.89766   0.00000  Uiso   1.00
H738   H     0.11146   0.31756   0.79449   0.00000  Uiso   1.00
H739   H     0.38866   0.17769   0.80450   0.00000  Uiso   1.00
H740   H     0.38882   0.32224   0.86240   0.00000  Uiso   1.00
H741   H     0.11171   0.18238   0.87210   0.00000  Uiso   1.00
H742   H     0.31287   0.03601   0.87108   0.00000  Uiso   1.00
N743   N     0.25000   0.12934   0.83333   0.00000  Uiso   1.00
N744   N     0.25000   0.37065   0.83333   0.00000  Uiso   1.00
O745   O     0.18573   0.29071   0.83334   0.00000  Uiso   1.00
O746   O     0.47336   0.16765   0.80096   0.00000  Uiso   1.00
O747   O     0.47353   0.33227   0.86597   0.00000  Uiso   1.00
O748   O     0.02682   0.17301   0.87720   0.00000  Uiso   1.00
O749   O     0.31427   0.20928   0.83333   0.00000  Uiso   1.00
O750   O     0.31427   0.29071   0.83333   0.00000  Uiso   1.00
O751   O     0.18573   0.20928   0.83334   0.00000  Uiso   1.00
O752   O     0.25000   0.29071   0.76280   0.00000  Uiso   1.00
O753   O     0.25000   0.20929   0.90387   0.00000  Uiso   1.00
O754   O     0.25000   0.29071   0.90387   0.00000  Uiso   1.00
O755   O     0.25000   0.20929   0.76280   0.00000  Uiso   1.00
O756   O     0.02653   0.32695   0.78961   0.00000  Uiso   1.00
C757   C     0.66501   0.25000   0.83331   0.00000  Uiso   1.00
C758   C     0.77191   0.44604   0.87015   0.00000  Uiso   1.00
C759   C     0.74998   0.24999   0.74017   0.00000  Uiso   1.00
C760   C     0.75002   0.25001   0.92650   0.00000  Uiso   1.00
C761   C     0.75001   0.02732   0.83333   0.00000  Uiso   1.00
C762   C     0.75001   0.47264   0.83333   0.00000  Uiso   1.00
C763   C     0.74999   0.25000   0.68849   0.00000  Uiso   1.00
C764   C     0.75001   0.25002   0.97818   0.00000  Uiso   1.00
C765   C     0.54790   0.28756   0.80975   0.00000  Uiso   1.00
C766   C     0.95222   0.20947   0.81550   0.00000  Uiso   1.00
C767   C     0.95231   0.29047   0.85137   0.00000  Uiso   1.00
C768   C     0.83504   0.25000   0.83337   0.00000  Uiso   1.00
C769   C     0.54805   0.21239   0.85698   0.00000  Uiso   1.00
C770   C     0.59383   0.28792   0.81134   0.00000  Uiso   1.00
C771   C     0.90628   0.20941   0.81702   0.00000  Uiso   1.00
C772   C     0.90637   0.29053   0.84984   0.00000  Uiso   1.00
C773   C     0.59397   0.21203   0.85528   0.00000  Uiso   1.00
C774   C     0.61690   0.24998   0.83330   0.00000  Uiso   1.00
C775   C     0.88325   0.24998   0.83341   0.00000  Uiso   1.00
C776   C     0.52449   0.24997   0.83339   0.00000  Uiso   1.00
C777   C     0.97577   0.24997   0.83343   0.00000  Uiso   1.00
C778   C     0.51046   0.31537   0.74252   0.00000  Uiso   1.00
C779   C     0.78393   0.10468   0.85472   0.00000  Uiso   1.00
C780   C     0.97713   0.35359   0.72729   0.00000  Uiso   1.00
C781   C     0.98787   0.17248   0.75221   0.00000  Uiso   1.00
C782   C     0.50814   0.12496   0.73593   0.00000  Uiso   1.00
C783   C     0.98839   0.32734   0.91468   0.00000  Uiso   1.00
C784   C     0.50820   0.37503   0.93125   0.00000  Uiso   1.00
C785   C     0.51095   0.18465   0.92427   0.00000  Uiso   1.00
C786   C     0.97734   0.14673   0.93930   0.00000  Uiso   1.00
C787   C     0.72825   0.39528   0.79740   0.00000  Uiso   1.00
C788   C     0.71608   0.10465   0.81194   0.00000  Uiso   1.00
C789   C     0.77176   0.39531   0.86926   0.00000  Uiso   1.00
C790   C     0.78474   0.05396   0.85479   0.00000  Uiso   1.00
C791   C     0.72812   0.44600   0.79651   0.00000  Uiso   1.00
C792   C     0.71528   0.05393   0.81187   0.00000  Uiso   1.00
Cu793  Cu    0.75000   0.29821   0.83333   0.00000  Uiso   1.00
Cu794  Cu    0.75000   0.20178   0.83333   0.00000  Uiso   1.00
H795   H     0.81076   0.12426   0.87176   0.00000  Uiso   1.00
H796   H     0.71137   0.46395   0.76661   0.00000  Uiso   1.00
H797   H     0.68715   0.03595   0.79557   0.00000  Uiso   1.00
H798   H     0.78866   0.46401   0.90004   0.00000  Uiso   1.00
H799   H     0.99312   0.28009   0.74143   0.00000  Uiso   1.00
H800   H     0.53813   0.31485   0.71580   0.00000  Uiso   1.00
H801   H     0.99359   0.38924   0.72430   0.00000  Uiso   1.00
H802   H     0.96226   0.34398   0.69145   0.00000  Uiso   1.00
H803   H     0.95031   0.35590   0.75487   0.00000  Uiso   1.00
H804   H     0.51393   0.20048   0.74924   0.00000  Uiso   1.00
H805   H     0.95988   0.18151   0.72729   0.00000  Uiso   1.00
H806   H     0.71098   0.37562   0.76900   0.00000  Uiso   1.00
H807   H     0.98244   0.09641   0.73483   0.00000  Uiso   1.00
H808   H     0.52280   0.12894   0.69896   0.00000  Uiso   1.00
H809   H     0.53467   0.11409   0.76186   0.00000  Uiso   1.00
H810   H     0.51479   0.29968   0.91740   0.00000  Uiso   1.00
H811   H     0.96068   0.31775   0.93960   0.00000  Uiso   1.00
H812   H     0.98217   0.40320   0.93261   0.00000  Uiso   1.00
H813   H     0.52315   0.37100   0.96817   0.00000  Uiso   1.00
H814   H     0.53443   0.38645   0.90535   0.00000  Uiso   1.00
H815   H     0.99391   0.22010   0.92541   0.00000  Uiso   1.00
H816   H     0.53869   0.18484   0.95106   0.00000  Uiso   1.00
H817   H     0.68925   0.12420   0.79489   0.00000  Uiso   1.00
H818   H     0.96259   0.15645   0.97509   0.00000  Uiso   1.00
H819   H     0.99352   0.11093   0.94235   0.00000  Uiso   1.00
H820   H     0.95046   0.14469   0.91160   0.00000  Uiso   1.00
H821   H     0.78903   0.37568   0.89766   0.00000  Uiso   1.00
H822   H     0.61146   0.31756   0.79449   0.00000  Uiso   1.00
H823   H     0.88866   0.17769   0.80450   0.00000  Uiso   1.00
H824   H     0.88882   0.32224   0.86240   0.00000  Uiso   1.00
H825   H     0.61171   0.18238   0.87210   0.00000  Uiso   1.00
H826   H     0.81287   0.03601   0.87108   0.00000  Uiso   1.00
N827   N     0.75000   0.12934   0.83333   0.00000  Uiso   1.00
N828   N     0.75000   0.37065   0.83333   0.00000  Uiso   1.00
O829   O     0.68573   0.29071   0.83334   0.00000  Uiso   1.00
O830   O     0.97336   0.16765   0.80096   0.00000  Uiso   1.00
O831   O     0.97353   0.33227   0.86597   0.00000  Uiso   1.00
O832   O     0.52682   0.17301   0.87720   0.00000  Uiso   1.00
O833   O     0.81427   0.20928   0.83333   0.00000  Uiso   1.00
O834   O     0.81427   0.29071   0.83333   0.00000  Uiso   1.00
O835   O     0.68573   0.20928   0.83334   0.00000  Uiso   1.00
O836   O     0.75000   0.29071   0.76280   0.00000  Uiso   1.00
O837   O     0.75000   0.20929   0.90387   0.00000  Uiso   1.00
O838   O     0.75000   0.29071   0.90387   0.00000  Uiso   1.00
O839   O     0.75000   0.20929   0.76280   0.00000  Uiso   1.00
O840   O     0.52653   0.32695   0.78961   0.00000  Uiso   1.00
C841   C     0.16501   0.75000   0.83331   0.00000  Uiso   1.00
C842   C     0.27191   0.94604   0.87015   0.00000  Uiso   1.00
C843   C     0.24998   0.74999   0.74017   0.00000  Uiso   1.00
C844   C     0.25002   0.75001   0.92650   0.00000  Uiso   1.00
C845   C     0.25001   0.52732   0.83333   0.00000  Uiso   1.00
C846   C     0.25001   0.97264   0.83333   0.00000  Uiso   1.00
C847   C     0.24999   0.75000   0.68849   0.00000  Uiso   1.00
C848   C     0.25001   0.75002   0.97818   0.00000  Uiso   1.00
C849   C     0.04790   0.78756   0.80975   0.00000  Uiso   1.00
C850   C     0.45222   0.70947   0.81550   0.00000  Uiso   1.00
C851   C     0.45231   0.79047   0.85137   0.00000  Uiso   1.00
C852   C     0.33504   0.75000   0.83337   0.00000  Uiso   1.00
C853   C     0.04805   0.71239   0.85698   0.00000  Uiso   1.00
C854   C     0.09383   0.78792   0.81134   0.00000  Uiso   1.00
C855   C     0.40628   0.70941   0.81702   0.00000  Uiso   1.00
C856   C     0.40637   0.79053   0.84984   0.00000  Uiso   1.00
C857   C     0.09397   0.71203   0.85528   0.00000  Uiso   1.00
C858   C     0.11690   0.74998   0.83330   0.00000  Uiso   1.00
C859   C     0.38325   0.74998   0.83341   0.00000  Uiso   1.00
C860   C     0.02449   0.74997   0.83339   0.00000  Uiso   1.00
C861   C     0.47577   0.74997   0.83343   0.00000  Uiso   1.00
C862   C     0.01046   0.81537   0.74252   0.00000  Uiso   1.00
C863   C     0.28393   0.60468   0.85472   0.00000  Uiso   1.00
C864   C     0.47713   0.85359   0.72729   0.00000  Uiso   1.00
C865   C     0.48787   0.67248   0.75221   0.00000  Uiso   1.00
C866   C     0.00814   0.62496   0.73593   0.00000  Uiso   1.00
C867   C     0.48839   0.82734   0.91468   0.00000  Uiso   1.00
C868   C     0.00820   0.87503   0.93125   0.00000  Uiso   1.00
C869   C     0.01095   0.68465   0.92427   0.00000  Uiso   1.00
C870   C     0.47734   0.64673   0.93930   0.00000  Uiso   1.00
C871   C     0.22825   0.89528   0.79740   0.00000  Uiso   1.00
C872   C     0.21608   0.60465   0.81194   0.00000  Uiso   1.00
C873   C     0.27176   0.89531   0.86926   0.00000  Uiso   1.00
C874   C     0.28474   0.55396   0.85479   0.00000  Uiso   1.00
C875   C     0.22812   0.94600   0.79651   0.00000  Uiso   1.00
C876   C     0.21528   0.55393   0.81187   0.00000  Uiso   1.00
Cu877  Cu    0.25000   0.79821   0.83333   0.00000  Uiso   1.00
Cu878  Cu    0.25000   0.70178   0.83333   0.00000  Uiso   1.00
H879   H     0.31076   0.62426   0.87176   0.00000  Uiso   1.00
H880   H     0.21137   0.96395   0.76661   0.00000  Uiso   1.00
H881   H     0.18715   0.53595   0.79557   0.00000  Uiso   1.00
H882   H     0.28866   0.96401   0.90004   0.00000  Uiso   1.00
H883   H     0.49312   0.78009   0.74143   0.00000  Uiso   1.00
H884   H     0.03813   0.81485   0.71580   0.00000  Uiso   1.00
H885   H     0.49359   0.88924   0.72430   0.00000  Uiso   1.00
H886   H     0.46226   0.84398   0.69145   0.00000  Uiso   1.00
H887   H     0.45031   0.85590   0.75487   0.00000  Uiso   1.00
H888   H     0.01393   0.70048   0.74924   0.00000  Uiso   1.00
H889   H     0.45988   0.68151   0.72729   0.00000  Uiso   1.00
H890   H     0.21098   0.87562   0.76900   0.00000  Uiso   1.00
H891   H     0.48244   0.59641   0.73483   0.00000  Uiso   1.00
H892   H     0.02280   0.62894   0.69896   0.00000  Uiso   1.00
H893   H     0.03467   0.61409   0.76186   0.00000  Uiso   1.00
H894   H     0.01479   0.79968   0.91740   0.00000  Uiso   1.00
H895   H     0.46068   0.81775   0.93960   0.00000  Uiso   1.00
H896   H     0.48217   0.90320   0.93261   0.00000  Uiso   1.00
H897   H     0.02315   0.87100   0.96817   0.00000  Uiso   1.00
H898   H     0.03443   0.88645   0.90535   0.00000  Uiso   1.00
H899   H     0.49391   0.72010   0.92541   0.00000  Uiso   1.00
H900   H     0.03869   0.68484   0.95106   0.00000  Uiso   1.00
H901   H     0.18925   0.62420   0.79489   0.00000  Uiso   1.00
H902   H     0.46259   0.65645   0.97509   0.00000  Uiso   1.00
H903   H     0.49352   0.61093   0.94235   0.00000  Uiso   1.00
H904   H     0.45046   0.64469   0.91160   0.00000  Uiso   1.00
H905   H     0.28903   0.87568   0.89766   0.00000  Uiso   1.00
H906   H     0.11146   0.81756   0.79449   0.00000  Uiso   1.00
H907   H     0.38866   0.67769   0.80450   0.00000  Uiso   1.00
H908   H     0.38882   0.82224   0.86240   0.00000  Uiso   1.00
H909   H     0.11171   0.68238   0.87210   0.00000  Uiso   1.00
H910   H     0.31287   0.53601   0.87108   0.00000  Uiso   1.00
N911   N     0.25000   0.62934   0.83333   0.00000  Uiso   1.00
N912   N     0.25000   0.87065   0.83333   0.00000  Uiso   1.00
O913   O     0.18573   0.79071   0.83334   0.00000  Uiso   1.00
O914   O     0.47336   0.66765   0.80096   0.00000  Uiso   1.00
O915   O     0.47353   0.83227   0.86597   0.00000  Uiso   1.00
O916   O     0.02682   0.67301   0.87720   0.00000  Uiso   1.00
O917   O     0.31427   0.70928   0.83333   0.00000  Uiso   1.00
O918   O     0.31427   0.79071   0.83333   0.00000  Uiso   1.00
O919   O     0.18573   0.70928   0.83334   0.00000  Uiso   1.00
O920   O     0.25000   0.79071   0.76280   0.00000  Uiso   1.00
O921   O     0.25000   0.70929   0.90387   0.00000  Uiso   1.00
O922   O     0.25000   0.79071   0.90387   0.00000  Uiso   1.00
O923   O     0.25000   0.70929   0.76280   0.00000  Uiso   1.00
O924   O     0.02653   0.82695   0.78961   0.00000  Uiso   1.00
C925   C     0.66501   0.75000   0.83331   0.00000  Uiso   1.00
C926   C     0.77191   0.94604   0.87015   0.00000  Uiso   1.00
C927   C     0.74998   0.74999   0.74017   0.00000  Uiso   1.00
C928   C     0.75002   0.75001   0.92650   0.00000  Uiso   1.00
C929   C     0.75001   0.52732   0.83333   0.00000  Uiso   1.00
C930   C     0.75001   0.97264   0.83333   0.00000  Uiso   1.00
C931   C     0.74999   0.75000   0.68849   0.00000  Uiso   1.00
C932   C     0.75001   0.75002   0.97818   0.00000  Uiso   1.00
C933   C     0.54790   0.78756   0.80975   0.00000  Uiso   1.00
C934   C     0.95222   0.70947   0.81550   0.00000  Uiso   1.00
C935   C     0.95231   0.79047   0.85137   0.00000  Uiso   1.00
C936   C     0.83504   0.75000   0.83337   0.00000  Uiso   1.00
C937   C     0.54805   0.71239   0.85698   0.00000  Uiso   1.00
C938   C     0.59383   0.78792   0.81134   0.00000  Uiso   1.00
C939   C     0.90628   0.70941   0.81702   0.00000  Uiso   1.00
C940   C     0.90637   0.79053   0.84984   0.00000  Uiso   1.00
C941   C     0.59397   0.71203   0.85528   0.00000  Uiso   1.00
C942   C     0.61690   0.74998   0.83330   0.00000  Uiso   1.00
C943   C     0.88325   0.74998   0.83341   0.00000  Uiso   1.00
C944   C     0.52449   0.74997   0.83339   0.00000  Uiso   1.00
C945   C     0.97577   0.74997   0.83343   0.00000  Uiso   1.00
C946   C     0.51046   0.81537   0.74252   0.00000  Uiso   1.00
C947   C     0.78393   0.60468   0.85472   0.00000  Uiso   1.00
C948   C     0.97713   0.85359   0.72729   0.00000  Uiso   1.00
C949   C     0.98787   0.67248   0.75221   0.00000  Uiso   1.00
C950   C     0.50814   0.62496   0.73593   0.00000  Uiso   1.00
C951   C     0.98839   0.82734   0.91468   0.00000  Uiso   1.00
C952   C     0.50820   0.87503   0.93125   0.00000  Uiso   1.00
C953   C     0.51095   0.68465   0.92427   0.00000  Uiso   1.00
C954   C     0.97734   0.64673   0.93930   0.00000  Uiso   1.00
C955   C     0.72825   0.89528   0.79740   0.00000  Uiso   1.00
C956   C     0.71608   0.60465   0.81194   0.00000  Uiso   1.00
C957   C     0.77176   0.89531   0.86926   0.00000  Uiso   1.00
C958   C     0.78474   0.55396   0.85479   0.00000  Uiso   1.00
C959   C     0.72812   0.94600   0.79651   0.00000  Uiso   1.00
C960   C     0.71528   0.55393   0.81187   0.00000  Uiso   1.00
Cu961  Cu    0.75000   0.79821   0.83333   0.00000  Uiso   1.00
Cu962  Cu    0.75000   0.70178   0.83333   0.00000  Uiso   1.00
H963   H     0.81076   0.62426   0.87176   0.00000  Uiso   1.00
H964   H     0.71137   0.96395   0.76661   0.00000  Uiso   1.00
H965   H     0.68715   0.53595   0.79557   0.00000  Uiso   1.00
H966   H     0.78866   0.96401   0.90004   0.00000  Uiso   1.00
H967   H     0.99312   0.78009   0.74143   0.00000  Uiso   1.00
H968   H     0.53813   0.81485   0.71580   0.00000  Uiso   1.00
H969   H     0.99359   0.88924   0.72430   0.00000  Uiso   1.00
H970   H     0.96226   0.84398   0.69145   0.00000  Uiso   1.00
H971   H     0.95031   0.85590   0.75487   0.00000  Uiso   1.00
H972   H     0.51393   0.70048   0.74924   0.00000  Uiso   1.00
H973   H     0.95988   0.68151   0.72729   0.00000  Uiso   1.00
H974   H     0.71098   0.87562   0.76900   0.00000  Uiso   1.00
H975   H     0.98244   0.59641   0.73483   0.00000  Uiso   1.00
H976   H     0.52280   0.62894   0.69896   0.00000  Uiso   1.00
H977   H     0.53467   0.61409   0.76186   0.00000  Uiso   1.00
H978   H     0.51479   0.79968   0.91740   0.00000  Uiso   1.00
H979   H     0.96068   0.81775   0.93960   0.00000  Uiso   1.00
H980   H     0.98217   0.90320   0.93261   0.00000  Uiso   1.00
H981   H     0.52315   0.87100   0.96817   0.00000  Uiso   1.00
H982   H     0.53443   0.88645   0.90535   0.00000  Uiso   1.00
H983   H     0.99391   0.72010   0.92541   0.00000  Uiso   1.00
H984   H     0.53869   0.68484   0.95106   0.00000  Uiso   1.00
H985   H     0.68925   0.62420   0.79489   0.00000  Uiso   1.00
H986   H     0.96259   0.65645   0.97509   0.00000  Uiso   1.00
H987   H     0.99352   0.61093   0.94235   0.00000  Uiso   1.00
H988   H     0.95046   0.64469   0.91160   0.00000  Uiso   1.00
H989   H     0.78903   0.87568   0.89766   0.00000  Uiso   1.00
H990   H     0.61146   0.81756   0.79449   0.00000  Uiso   1.00
H991   H     0.88866   0.67769   0.80450   0.00000  Uiso   1.00
H992   H     0.88882   0.82224   0.86240   0.00000  Uiso   1.00
H993   H     0.61171   0.68238   0.87210   0.00000  Uiso   1.00
H994   H     0.81287   0.53601   0.87108   0.00000  Uiso   1.00
N995   N     0.75000   0.62934   0.83333   0.00000  Uiso   1.00
N996   N     0.75000   0.87065   0.83333   0.00000  Uiso   1.00
O997   O     0.68573   0.79071   0.83334   0.00000  Uiso   1.00
O998   O     0.97336   0.66765   0.80096   0.00000  Uiso   1.00
O999   O     0.97353   0.83227   0.86597   0.00000  Uiso   1.00
O1000  O     0.52682   0.67301   0.87720   0.00000  Uiso   1.00
O1001  O     0.81427   0.70928   0.83333   0.00000  Uiso   1.00
O1002  O     0.81427   0.79071   0.83333   0.00000  Uiso   1.00
O1003  O     0.68573   0.70928   0.83334   0.00000  Uiso   1.00
O1004  O     0.75000   0.79071   0.76280   0.00000  Uiso   1.00
O1005  O     0.75000   0.70929   0.90387   0.00000  Uiso   1.00
O1006  O     0.75000   0.79071   0.90387   0.00000  Uiso   1.00
O1007  O     0.75000   0.70929   0.76280   0.00000  Uiso   1.00
O1008  O     0.52653   0.82695   0.78961   0.00000  Uiso   1.00
loop_
_geom_bond_atom_site_label_1
_geom_bond_atom_site_label_2
_geom_bond_distance
_geom_bond_site_symmetry_2
_ccdc_geom_bond_type
C1     C18     1.456   .     S
C1     O79     1.292   .     A
C1     O73     1.292   .     A
C2     C6      1.411   .     A
C2     C33     1.407   .     A
C2     H42     1.081   .     S
C3     C7      1.411   .     S
C3     O80     1.287   .     A
C3     O83     1.287   .     A
C4     C8      1.411   .     S
C4     O81     1.287   .     A
C4     O82     1.287   .     A
C5     C36     1.411   .     A
C5     C34     1.411   .     A
C5     C174    1.517   1_545 S
C6     C35     1.411   .     A
C6     C173    1.517   .     S
C7     C680    1.192   1_554 S
C8     C343    1.192   .     S
C9     C14     1.391   .     A
C9     C20     1.417   .     A
C9     O84     1.383   .     S
C10    C15     1.391   .     A
C10    C21     1.417   .     A
C10    O74     1.383   .     S
C11    C21     1.417   .     A
C11    C16     1.391   .     A
C11    O75     1.383   .     S
C12    O78     1.293   .     A
C12    O77     1.293   .     A
C12    C19     1.459   .     S
C13    O76     1.383   .     S
C13    C20     1.417   .     A
C13    C17     1.391   .     A
C14    C18     1.398   .     A
C14    H66     1.084   .     S
C15    C19     1.398   .     A
C15    H67     1.084   .     S
C16    H68     1.084   .     S
C16    C19     1.398   .     A
C17    H69     1.084   .     S
C17    C18     1.398   .     A
C20    C105    1.475   1_455 S
C21    C104    1.475   .     S
C22    H44     1.113   .     S
C22    O84     1.411   .     S
C22    C108    1.521   1_455 S
C22    H127    1.111   1_455 S
C23    N71     1.364   .     A
C23    C34     1.407   .     A
C23    H39     1.081   .     S
C24    H45     1.111   .     S
C24    H47     1.111   .     S
C24    H46     1.109   .     S
C24    C106    1.521   .     S
C25    O74     1.409   .     S
C25    H49     1.114   .     S
C25    C110    1.521   .     S
C25    H132    1.110   .     S
C26    H52     1.109   .     S
C26    H53     1.111   .     S
C26    C109    1.521   1_455 S
C26    H135    1.111   1_455 S
C27    H55     1.114   .     S
C27    O75     1.410   .     S
C27    C112    1.521   .     S
C27    H138    1.110   .     S
C28    H57     1.109   .     S
C28    H58     1.111   .     S
C28    C111    1.521   1_455 S
C28    H140    1.111   1_455 S
C29    O76     1.411   .     S
C29    H60     1.112   .     S
C29    C114    1.521   1_455 S
C29    H143    1.111   1_455 S
C30    H64     1.111   .     S
C30    H63     1.111   .     S
C30    H62     1.109   .     S
C30    C113    1.521   .     S
C31    N72     1.364   .     A
C31    H50     1.081   .     S
C31    C35     1.407   .     A
C32    C36     1.407   .     A
C32    H61     1.081   .     S
C32    N71     1.364   .     A
C33    H65     1.081   .     S
C33    N72     1.364   .     A
C34    H70     1.081   .     S
C35    H40     1.081   .     S
C36    H41     1.081   .     S
Cu37   O80     1.937   .     S
Cu37   Cu38    2.675   .     S
Cu37   O82     1.937   .     S
Cu37   O73     1.957   .     S
Cu37   O78     1.957   .     S
Cu37   N72     2.009   .     S
Cu38   O83     1.937   .     S
Cu38   O79     1.957   .     S
Cu38   O81     1.937   .     S
Cu38   N71     2.009   .     S
Cu38   O77     1.957   .     S
H43    C106    1.111   .     S
H48    C109    1.110   1_455 S
H51    C110    1.111   .     S
H54    C111    1.110   1_455 S
H56    C112    1.111   .     S
H59    C113    1.111   .     S
C85    C102    1.456   .     S
C85    O163    1.292   .     A
C85    O157    1.292   .     A
C86    C90     1.411   .     A
C86    C117    1.407   .     A
C86    H126    1.081   .     S
C87    C91     1.411   .     S
C87    O164    1.287   .     A
C87    O167    1.287   .     A
C88    C92     1.411   .     S
C88    O165    1.287   .     A
C88    O166    1.287   .     A
C89    C120    1.411   .     A
C89    C118    1.411   .     A
C89    C258    1.517   1_545 S
C90    C119    1.411   .     A
C90    C257    1.517   .     S
C91    C764    1.192   1_554 S
C92    C427    1.192   .     S
C93    C98     1.391   .     A
C93    C104    1.417   .     A
C93    O168    1.383   .     S
C94    C99     1.391   .     A
C94    C105    1.417   .     A
C94    O158    1.383   .     S
C95    C105    1.417   .     A
C95    C100    1.391   .     A
C95    O159    1.383   .     S
C96    O162    1.293   .     A
C96    O161    1.293   .     A
C96    C103    1.459   .     S
C97    O160    1.383   .     S
C97    C104    1.417   .     A
C97    C101    1.391   .     A
C98    C102    1.398   .     A
C98    H150    1.084   .     S
C99    C103    1.398   .     A
C99    H151    1.084   .     S
C100   H152    1.084   .     S
C100   C103    1.398   .     A
C101   H153    1.084   .     S
C101   C102    1.398   .     A
C105   C20     1.475   1_655 S
C106   H128    1.113   .     S
C106   O168    1.411   .     S
C107   N155    1.364   .     A
C107   C118    1.407   .     A
C107   H123    1.081   .     S
C108   H129    1.111   .     S
C108   H131    1.111   .     S
C108   H130    1.109   .     S
C108   C22     1.521   1_655 S
C109   O158    1.409   .     S
C109   H133    1.114   .     S
C109   C26     1.521   1_655 S
C109   H48     1.110   1_655 S
C110   H136    1.109   .     S
C110   H137    1.111   .     S
C111   H139    1.114   .     S
C111   O159    1.410   .     S
C111   C28     1.521   1_655 S
C111   H54     1.110   1_655 S
C112   H141    1.109   .     S
C112   H142    1.111   .     S
C113   O160    1.411   .     S
C113   H144    1.112   .     S
C114   H148    1.111   .     S
C114   H147    1.111   .     S
C114   H146    1.109   .     S
C114   C29     1.521   1_655 S
C115   N156    1.364   .     A
C115   H134    1.081   .     S
C115   C119    1.407   .     A
C116   C120    1.407   .     A
C116   H145    1.081   .     S
C116   N155    1.364   .     A
C117   H149    1.081   .     S
C117   N156    1.364   .     A
C118   H154    1.081   .     S
C119   H124    1.081   .     S
C120   H125    1.081   .     S
Cu121  O164    1.937   .     S
Cu121  Cu122   2.675   .     S
Cu121  O166    1.937   .     S
Cu121  O157    1.957   .     S
Cu121  O162    1.957   .     S
Cu121  N156    2.009   .     S
Cu122  O167    1.937   .     S
Cu122  O163    1.957   .     S
Cu122  O165    1.937   .     S
Cu122  N155    2.009   .     S
Cu122  O161    1.957   .     S
H127   C22     1.111   1_655 S
H135   C26     1.111   1_655 S
H140   C28     1.111   1_655 S
H143   C29     1.111   1_655 S
C169   C186    1.456   .     S
C169   O247    1.292   .     A
C169   O241    1.292   .     A
C170   C174    1.411   .     A
C170   C201    1.407   .     A
C170   H210    1.081   .     S
C171   C175    1.411   .     S
C171   O248    1.287   .     A
C171   O251    1.287   .     A
C172   C176    1.411   .     S
C172   O249    1.287   .     A
C172   O250    1.287   .     A
C173   C204    1.411   .     A
C173   C202    1.411   .     A
C174   C203    1.411   .     A
C174   C5      1.517   1_565 S
C175   C848    1.192   1_554 S
C176   C511    1.192   .     S
C177   C182    1.391   .     A
C177   C188    1.417   .     A
C177   O252    1.383   .     S
C178   C183    1.391   .     A
C178   C189    1.417   .     A
C178   O242    1.383   .     S
C179   C189    1.417   .     A
C179   C184    1.391   .     A
C179   O243    1.383   .     S
C180   O246    1.293   .     A
C180   O245    1.293   .     A
C180   C187    1.459   .     S
C181   O244    1.383   .     S
C181   C188    1.417   .     A
C181   C185    1.391   .     A
C182   C186    1.398   .     A
C182   H234    1.084   .     S
C183   C187    1.398   .     A
C183   H235    1.084   .     S
C184   H236    1.084   .     S
C184   C187    1.398   .     A
C185   H237    1.084   .     S
C185   C186    1.398   .     A
C188   C273    1.475   1_455 S
C189   C272    1.475   .     S
C190   H212    1.113   .     S
C190   O252    1.411   .     S
C190   C276    1.521   1_455 S
C190   H295    1.111   1_455 S
C191   N239    1.364   .     A
C191   C202    1.407   .     A
C191   H207    1.081   .     S
C192   H213    1.111   .     S
C192   H215    1.111   .     S
C192   H214    1.109   .     S
C192   C274    1.521   .     S
C193   O242    1.409   .     S
C193   H217    1.114   .     S
C193   C278    1.521   .     S
C193   H300    1.110   .     S
C194   H220    1.109   .     S
C194   H221    1.111   .     S
C194   C277    1.521   1_455 S
C194   H303    1.111   1_455 S
C195   H223    1.114   .     S
C195   O243    1.410   .     S
C195   C280    1.521   .     S
C195   H306    1.110   .     S
C196   H225    1.109   .     S
C196   H226    1.111   .     S
C196   C279    1.521   1_455 S
C196   H308    1.111   1_455 S
C197   O244    1.411   .     S
C197   H228    1.112   .     S
C197   C282    1.521   1_455 S
C197   H311    1.111   1_455 S
C198   H232    1.111   .     S
C198   H231    1.111   .     S
C198   H230    1.109   .     S
C198   C281    1.521   .     S
C199   N240    1.364   .     A
C199   H218    1.081   .     S
C199   C203    1.407   .     A
C200   C204    1.407   .     A
C200   H229    1.081   .     S
C200   N239    1.364   .     A
C201   H233    1.081   .     S
C201   N240    1.364   .     A
C202   H238    1.081   .     S
C203   H208    1.081   .     S
C204   H209    1.081   .     S
Cu205  O248    1.937   .     S
Cu205  Cu206   2.675   .     S
Cu205  O250    1.937   .     S
Cu205  O241    1.957   .     S
Cu205  O246    1.957   .     S
Cu205  N240    2.009   .     S
Cu206  O251    1.937   .     S
Cu206  O247    1.957   .     S
Cu206  O249    1.937   .     S
Cu206  N239    2.009   .     S
Cu206  O245    1.957   .     S
H211   C274    1.111   .     S
H216   C277    1.110   1_455 S
H219   C278    1.111   .     S
H222   C279    1.110   1_455 S
H224   C280    1.111   .     S
H227   C281    1.111   .     S
C253   C270    1.456   .     S
C253   O331    1.292   .     A
C253   O325    1.292   .     A
C254   C258    1.411   .     A
C254   C285    1.407   .     A
C254   H294    1.081   .     S
C255   C259    1.411   .     S
C255   O332    1.287   .     A
C255   O335    1.287   .     A
C256   C260    1.411   .     S
C256   O333    1.287   .     A
C256   O334    1.287   .     A
C257   C288    1.411   .     A
C257   C286    1.411   .     A
C258   C287    1.411   .     A
C258   C89     1.517   1_565 S
C259   C932    1.192   1_554 S
C260   C595    1.192   .     S
C261   C266    1.391   .     A
C261   C272    1.417   .     A
C261   O336    1.383   .     S
C262   C267    1.391   .     A
C262   C273    1.417   .     A
C262   O326    1.383   .     S
C263   C273    1.417   .     A
C263   C268    1.391   .     A
C263   O327    1.383   .     S
C264   O330    1.293   .     A
C264   O329    1.293   .     A
C264   C271    1.459   .     S
C265   O328    1.383   .     S
C265   C272    1.417   .     A
C265   C269    1.391   .     A
C266   C270    1.398   .     A
C266   H318    1.084   .     S
C267   C271    1.398   .     A
C267   H319    1.084   .     S
C268   H320    1.084   .     S
C268   C271    1.398   .     A
C269   H321    1.084   .     S
C269   C270    1.398   .     A
C273   C188    1.475   1_655 S
C274   H296    1.113   .     S
C274   O336    1.411   .     S
C275   N323    1.364   .     A
C275   C286    1.407   .     A
C275   H291    1.081   .     S
C276   H297    1.111   .     S
C276   H299    1.111   .     S
C276   H298    1.109   .     S
C276   C190    1.521   1_655 S
C277   O326    1.409   .     S
C277   H301    1.114   .     S
C277   C194    1.521   1_655 S
C277   H216    1.110   1_655 S
C278   H304    1.109   .     S
C278   H305    1.111   .     S
C279   H307    1.114   .     S
C279   O327    1.410   .     S
C279   C196    1.521   1_655 S
C279   H222    1.110   1_655 S
C280   H309    1.109   .     S
C280   H310    1.111   .     S
C281   O328    1.411   .     S
C281   H312    1.112   .     S
C282   H316    1.111   .     S
C282   H315    1.111   .     S
C282   H314    1.109   .     S
C282   C197    1.521   1_655 S
C283   N324    1.364   .     A
C283   H302    1.081   .     S
C283   C287    1.407   .     A
C284   C288    1.407   .     A
C284   H313    1.081   .     S
C284   N323    1.364   .     A
C285   H317    1.081   .     S
C285   N324    1.364   .     A
C286   H322    1.081   .     S
C287   H292    1.081   .     S
C288   H293    1.081   .     S
Cu289  O332    1.937   .     S
Cu289  Cu290   2.675   .     S
Cu289  O334    1.937   .     S
Cu289  O325    1.957   .     S
Cu289  O330    1.957   .     S
Cu289  N324    2.009   .     S
Cu290  O335    1.937   .     S
Cu290  O331    1.957   .     S
Cu290  O333    1.937   .     S
Cu290  N323    2.009   .     S
Cu290  O329    1.957   .     S
H295   C190    1.111   1_655 S
H303   C194    1.111   1_655 S
H308   C196    1.111   1_655 S
H311   C197    1.111   1_655 S
C337   C354    1.456   .     S
C337   O415    1.292   .     A
C337   O409    1.292   .     A
C338   C342    1.411   .     A
C338   C369    1.407   .     A
C338   H378    1.081   .     S
C339   C343    1.411   .     S
C339   O416    1.287   .     A
C339   O419    1.287   .     A
C340   C344    1.411   .     S
C340   O417    1.287   .     A
C340   O418    1.287   .     A
C341   C372    1.411   .     A
C341   C370    1.411   .     A
C341   C510    1.517   1_545 S
C342   C371    1.411   .     A
C342   C509    1.517   .     S
C344   C679    1.192   .     S
C345   C350    1.391   .     A
C345   C356    1.417   .     A
C345   O420    1.383   .     S
C346   C351    1.391   .     A
C346   C357    1.417   .     A
C346   O410    1.383   .     S
C347   C357    1.417   .     A
C347   C352    1.391   .     A
C347   O411    1.383   .     S
C348   O414    1.293   .     A
C348   O413    1.293   .     A
C348   C355    1.459   .     S
C349   O412    1.383   .     S
C349   C356    1.417   .     A
C349   C353    1.391   .     A
C350   C354    1.398   .     A
C350   H402    1.084   .     S
C351   C355    1.398   .     A
C351   H403    1.084   .     S
C352   H404    1.084   .     S
C352   C355    1.398   .     A
C353   H405    1.084   .     S
C353   C354    1.398   .     A
C356   C441    1.475   1_455 S
C357   C440    1.475   .     S
C358   H380    1.113   .     S
C358   O420    1.411   .     S
C358   C444    1.521   1_455 S
C358   H463    1.111   1_455 S
C359   N407    1.364   .     A
C359   C370    1.407   .     A
C359   H375    1.081   .     S
C360   H381    1.111   .     S
C360   H383    1.111   .     S
C360   H382    1.109   .     S
C360   C442    1.521   .     S
C361   O410    1.409   .     S
C361   H385    1.114   .     S
C361   C446    1.521   .     S
C361   H468    1.110   .     S
C362   H388    1.109   .     S
C362   H389    1.111   .     S
C362   C445    1.521   1_455 S
C362   H471    1.111   1_455 S
C363   H391    1.114   .     S
C363   O411    1.410   .     S
C363   C448    1.521   .     S
C363   H474    1.110   .     S
C364   H393    1.109   .     S
C364   H394    1.111   .     S
C364   C447    1.521   1_455 S
C364   H476    1.111   1_455 S
C365   O412    1.411   .     S
C365   H396    1.112   .     S
C365   C450    1.521   1_455 S
C365   H479    1.111   1_455 S
C366   H400    1.111   .     S
C366   H399    1.111   .     S
C366   H398    1.109   .     S
C366   C449    1.521   .     S
C367   N408    1.364   .     A
C367   H386    1.081   .     S
C367   C371    1.407   .     A
C368   C372    1.407   .     A
C368   H397    1.081   .     S
C368   N407    1.364   .     A
C369   H401    1.081   .     S
C369   N408    1.364   .     A
C370   H406    1.081   .     S
C371   H376    1.081   .     S
C372   H377    1.081   .     S
Cu373  O416    1.937   .     S
Cu373  Cu374   2.675   .     S
Cu373  O418    1.937   .     S
Cu373  O409    1.957   .     S
Cu373  O414    1.957   .     S
Cu373  N408    2.009   .     S
Cu374  O419    1.937   .     S
Cu374  O415    1.957   .     S
Cu374  O417    1.937   .     S
Cu374  N407    2.009   .     S
Cu374  O413    1.957   .     S
H379   C442    1.111   .     S
H384   C445    1.110   1_455 S
H387   C446    1.111   .     S
H390   C447    1.110   1_455 S
H392   C448    1.111   .     S
H395   C449    1.111   .     S
C421   C438    1.456   .     S
C421   O499    1.292   .     A
C421   O493    1.292   .     A
C422   C426    1.411   .     A
C422   C453    1.407   .     A
C422   H462    1.081   .     S
C423   C427    1.411   .     S
C423   O500    1.287   .     A
C423   O503    1.287   .     A
C424   C428    1.411   .     S
C424   O501    1.287   .     A
C424   O502    1.287   .     A
C425   C456    1.411   .     A
C425   C454    1.411   .     A
C425   C594    1.517   1_545 S
C426   C455    1.411   .     A
C426   C593    1.517   .     S
C428   C763    1.192   .     S
C429   C434    1.391   .     A
C429   C440    1.417   .     A
C429   O504    1.383   .     S
C430   C435    1.391   .     A
C430   C441    1.417   .     A
C430   O494    1.383   .     S
C431   C441    1.417   .     A
C431   C436    1.391   .     A
C431   O495    1.383   .     S
C432   O498    1.293   .     A
C432   O497    1.293   .     A
C432   C439    1.459   .     S
C433   O496    1.383   .     S
C433   C440    1.417   .     A
C433   C437    1.391   .     A
C434   C438    1.398   .     A
C434   H486    1.084   .     S
C435   C439    1.398   .     A
C435   H487    1.084   .     S
C436   H488    1.084   .     S
C436   C439    1.398   .     A
C437   H489    1.084   .     S
C437   C438    1.398   .     A
C441   C356    1.475   1_655 S
C442   H464    1.113   .     S
C442   O504    1.411   .     S
C443   N491    1.364   .     A
C443   C454    1.407   .     A
C443   H459    1.081   .     S
C444   H465    1.111   .     S
C444   H467    1.111   .     S
C444   H466    1.109   .     S
C444   C358    1.521   1_655 S
C445   O494    1.409   .     S
C445   H469    1.114   .     S
C445   C362    1.521   1_655 S
C445   H384    1.110   1_655 S
C446   H472    1.109   .     S
C446   H473    1.111   .     S
C447   H475    1.114   .     S
C447   O495    1.410   .     S
C447   C364    1.521   1_655 S
C447   H390    1.110   1_655 S
C448   H477    1.109   .     S
C448   H478    1.111   .     S
C449   O496    1.411   .     S
C449   H480    1.112   .     S
C450   H484    1.111   .     S
C450   H483    1.111   .     S
C450   H482    1.109   .     S
C450   C365    1.521   1_655 S
C451   N492    1.364   .     A
C451   H470    1.081   .     S
C451   C455    1.407   .     A
C452   C456    1.407   .     A
C452   H481    1.081   .     S
C452   N491    1.364   .     A
C453   H485    1.081   .     S
C453   N492    1.364   .     A
C454   H490    1.081   .     S
C455   H460    1.081   .     S
C456   H461    1.081   .     S
Cu457  O500    1.937   .     S
Cu457  Cu458   2.675   .     S
Cu457  O502    1.937   .     S
Cu457  O493    1.957   .     S
Cu457  O498    1.957   .     S
Cu457  N492    2.009   .     S
Cu458  O503    1.937   .     S
Cu458  O499    1.957   .     S
Cu458  O501    1.937   .     S
Cu458  N491    2.009   .     S
Cu458  O497    1.957   .     S
H463   C358    1.111   1_655 S
H471   C362    1.111   1_655 S
H476   C364    1.111   1_655 S
H479   C365    1.111   1_655 S
C505   C522    1.456   .     S
C505   O583    1.292   .     A
C505   O577    1.292   .     A
C506   C510    1.411   .     A
C506   C537    1.407   .     A
C506   H546    1.081   .     S
C507   C511    1.411   .     S
C507   O584    1.287   .     A
C507   O587    1.287   .     A
C508   C512    1.411   .     S
C508   O585    1.287   .     A
C508   O586    1.287   .     A
C509   C540    1.411   .     A
C509   C538    1.411   .     A
C510   C539    1.411   .     A
C510   C341    1.517   1_565 S
C512   C847    1.192   .     S
C513   C518    1.391   .     A
C513   C524    1.417   .     A
C513   O588    1.383   .     S
C514   C519    1.391   .     A
C514   C525    1.417   .     A
C514   O578    1.383   .     S
C515   C525    1.417   .     A
C515   C520    1.391   .     A
C515   O579    1.383   .     S
C516   O582    1.293   .     A
C516   O581    1.293   .     A
C516   C523    1.459   .     S
C517   O580    1.383   .     S
C517   C524    1.417   .     A
C517   C521    1.391   .     A
C518   C522    1.398   .     A
C518   H570    1.084   .     S
C519   C523    1.398   .     A
C519   H571    1.084   .     S
C520   H572    1.084   .     S
C520   C523    1.398   .     A
C521   H573    1.084   .     S
C521   C522    1.398   .     A
C524   C609    1.475   1_455 S
C525   C608    1.475   .     S
C526   H548    1.113   .     S
C526   O588    1.411   .     S
C526   C612    1.521   1_455 S
C526   H631    1.111   1_455 S
C527   N575    1.364   .     A
C527   C538    1.407   .     A
C527   H543    1.081   .     S
C528   H549    1.111   .     S
C528   H551    1.111   .     S
C528   H550    1.109   .     S
C528   C610    1.521   .     S
C529   O578    1.409   .     S
C529   H553    1.114   .     S
C529   C614    1.521   .     S
C529   H636    1.110   .     S
C530   H556    1.109   .     S
C530   H557    1.111   .     S
C530   C613    1.521   1_455 S
C530   H639    1.111   1_455 S
C531   H559    1.114   .     S
C531   O579    1.410   .     S
C531   C616    1.521   .     S
C531   H642    1.110   .     S
C532   H561    1.109   .     S
C532   H562    1.111   .     S
C532   C615    1.521   1_455 S
C532   H644    1.111   1_455 S
C533   O580    1.411   .     S
C533   H564    1.112   .     S
C533   C618    1.521   1_455 S
C533   H647    1.111   1_455 S
C534   H568    1.111   .     S
C534   H567    1.111   .     S
C534   H566    1.109   .     S
C534   C617    1.521   .     S
C535   N576    1.364   .     A
C535   H554    1.081   .     S
C535   C539    1.407   .     A
C536   C540    1.407   .     A
C536   H565    1.081   .     S
C536   N575    1.364   .     A
C537   H569    1.081   .     S
C537   N576    1.364   .     A
C538   H574    1.081   .     S
C539   H544    1.081   .     S
C540   H545    1.081   .     S
Cu541  O584    1.937   .     S
Cu541  Cu542   2.675   .     S
Cu541  O586    1.937   .     S
Cu541  O577    1.957   .     S
Cu541  O582    1.957   .     S
Cu541  N576    2.009   .     S
Cu542  O587    1.937   .     S
Cu542  O583    1.957   .     S
Cu542  O585    1.937   .     S
Cu542  N575    2.009   .     S
Cu542  O581    1.957   .     S
H547   C610    1.111   .     S
H552   C613    1.110   1_455 S
H555   C614    1.111   .     S
H558   C615    1.110   1_455 S
H560   C616    1.111   .     S
H563   C617    1.111   .     S
C589   C606    1.456   .     S
C589   O667    1.292   .     A
C589   O661    1.292   .     A
C590   C594    1.411   .     A
C590   C621    1.407   .     A
C590   H630    1.081   .     S
C591   C595    1.411   .     S
C591   O668    1.287   .     A
C591   O671    1.287   .     A
C592   C596    1.411   .     S
C592   O669    1.287   .     A
C592   O670    1.287   .     A
C593   C624    1.411   .     A
C593   C622    1.411   .     A
C594   C623    1.411   .     A
C594   C425    1.517   1_565 S
C596   C931    1.192   .     S
C597   C602    1.391   .     A
C597   C608    1.417   .     A
C597   O672    1.383   .     S
C598   C603    1.391   .     A
C598   C609    1.417   .     A
C598   O662    1.383   .     S
C599   C609    1.417   .     A
C599   C604    1.391   .     A
C599   O663    1.383   .     S
C600   O666    1.293   .     A
C600   O665    1.293   .     A
C600   C607    1.459   .     S
C601   O664    1.383   .     S
C601   C608    1.417   .     A
C601   C605    1.391   .     A
C602   C606    1.398   .     A
C602   H654    1.084   .     S
C603   C607    1.398   .     A
C603   H655    1.084   .     S
C604   H656    1.084   .     S
C604   C607    1.398   .     A
C605   H657    1.084   .     S
C605   C606    1.398   .     A
C609   C524    1.475   1_655 S
C610   H632    1.113   .     S
C610   O672    1.411   .     S
C611   N659    1.364   .     A
C611   C622    1.407   .     A
C611   H627    1.081   .     S
C612   H633    1.111   .     S
C612   H635    1.111   .     S
C612   H634    1.109   .     S
C612   C526    1.521   1_655 S
C613   O662    1.409   .     S
C613   H637    1.114   .     S
C613   C530    1.521   1_655 S
C613   H552    1.110   1_655 S
C614   H640    1.109   .     S
C614   H641    1.111   .     S
C615   H643    1.114   .     S
C615   O663    1.410   .     S
C615   C532    1.521   1_655 S
C615   H558    1.110   1_655 S
C616   H645    1.109   .     S
C616   H646    1.111   .     S
C617   O664    1.411   .     S
C617   H648    1.112   .     S
C618   H652    1.111   .     S
C618   H651    1.111   .     S
C618   H650    1.109   .     S
C618   C533    1.521   1_655 S
C619   N660    1.364   .     A
C619   H638    1.081   .     S
C619   C623    1.407   .     A
C620   C624    1.407   .     A
C620   H649    1.081   .     S
C620   N659    1.364   .     A
C621   H653    1.081   .     S
C621   N660    1.364   .     A
C622   H658    1.081   .     S
C623   H628    1.081   .     S
C624   H629    1.081   .     S
Cu625  O668    1.937   .     S
Cu625  Cu626   2.675   .     S
Cu625  O670    1.937   .     S
Cu625  O661    1.957   .     S
Cu625  O666    1.957   .     S
Cu625  N660    2.009   .     S
Cu626  O671    1.937   .     S
Cu626  O667    1.957   .     S
Cu626  O669    1.937   .     S
Cu626  N659    2.009   .     S
Cu626  O665    1.957   .     S
H631   C526    1.111   1_655 S
H639   C530    1.111   1_655 S
H644   C532    1.111   1_655 S
H647   C533    1.111   1_655 S
C673   C690    1.456   .     S
C673   O751    1.292   .     A
C673   O745    1.292   .     A
C674   C678    1.411   .     A
C674   C705    1.407   .     A
C674   H714    1.081   .     S
C675   C679    1.411   .     S
C675   O752    1.287   .     A
C675   O755    1.287   .     A
C676   C680    1.411   .     S
C676   O753    1.287   .     A
C676   O754    1.287   .     A
C677   C708    1.411   .     A
C677   C706    1.411   .     A
C677   C846    1.517   1_545 S
C678   C707    1.411   .     A
C678   C845    1.517   .     S
C680   C7      1.192   1_556 S
C681   C686    1.391   .     A
C681   C692    1.417   .     A
C681   O756    1.383   .     S
C682   C687    1.391   .     A
C682   C693    1.417   .     A
C682   O746    1.383   .     S
C683   C693    1.417   .     A
C683   C688    1.391   .     A
C683   O747    1.383   .     S
C684   O750    1.293   .     A
C684   O749    1.293   .     A
C684   C691    1.459   .     S
C685   O748    1.383   .     S
C685   C692    1.417   .     A
C685   C689    1.391   .     A
C686   C690    1.398   .     A
C686   H738    1.084   .     S
C687   C691    1.398   .     A
C687   H739    1.084   .     S
C688   H740    1.084   .     S
C688   C691    1.398   .     A
C689   H741    1.084   .     S
C689   C690    1.398   .     A
C692   C777    1.475   1_455 S
C693   C776    1.475   .     S
C694   H716    1.113   .     S
C694   O756    1.411   .     S
C694   C780    1.521   1_455 S
C694   H799    1.111   1_455 S
C695   N743    1.364   .     A
C695   C706    1.407   .     A
C695   H711    1.081   .     S
C696   H717    1.111   .     S
C696   H719    1.111   .     S
C696   H718    1.109   .     S
C696   C778    1.521   .     S
C697   O746    1.409   .     S
C697   H721    1.114   .     S
C697   C782    1.521   .     S
C697   H804    1.110   .     S
C698   H724    1.109   .     S
C698   H725    1.111   .     S
C698   C781    1.521   1_455 S
C698   H807    1.111   1_455 S
C699   H727    1.114   .     S
C699   O747    1.410   .     S
C699   C784    1.521   .     S
C699   H810    1.110   .     S
C700   H729    1.109   .     S
C700   H730    1.111   .     S
C700   C783    1.521   1_455 S
C700   H812    1.111   1_455 S
C701   O748    1.411   .     S
C701   H732    1.112   .     S
C701   C786    1.521   1_455 S
C701   H815    1.111   1_455 S
C702   H736    1.111   .     S
C702   H735    1.111   .     S
C702   H734    1.109   .     S
C702   C785    1.521   .     S
C703   N744    1.364   .     A
C703   H722    1.081   .     S
C703   C707    1.407   .     A
C704   C708    1.407   .     A
C704   H733    1.081   .     S
C704   N743    1.364   .     A
C705   H737    1.081   .     S
C705   N744    1.364   .     A
C706   H742    1.081   .     S
C707   H712    1.081   .     S
C708   H713    1.081   .     S
Cu709  O752    1.937   .     S
Cu709  Cu710   2.675   .     S
Cu709  O754    1.937   .     S
Cu709  O745    1.957   .     S
Cu709  O750    1.957   .     S
Cu709  N744    2.009   .     S
Cu710  O755    1.937   .     S
Cu710  O751    1.957   .     S
Cu710  O753    1.937   .     S
Cu710  N743    2.009   .     S
Cu710  O749    1.957   .     S
H715   C778    1.111   .     S
H720   C781    1.110   1_455 S
H723   C782    1.111   .     S
H726   C783    1.110   1_455 S
H728   C784    1.111   .     S
H731   C785    1.111   .     S
C757   C774    1.456   .     S
C757   O835    1.292   .     A
C757   O829    1.292   .     A
C758   C762    1.411   .     A
C758   C789    1.407   .     A
C758   H798    1.081   .     S
C759   C763    1.411   .     S
C759   O836    1.287   .     A
C759   O839    1.287   .     A
C760   C764    1.411   .     S
C760   O837    1.287   .     A
C760   O838    1.287   .     A
C761   C792    1.411   .     A
C761   C790    1.411   .     A
C761   C930    1.517   1_545 S
C762   C791    1.411   .     A
C762   C929    1.517   .     S
C764   C91     1.192   1_556 S
C765   C770    1.391   .     A
C765   C776    1.417   .     A
C765   O840    1.383   .     S
C766   C771    1.391   .     A
C766   C777    1.417   .     A
C766   O830    1.383   .     S
C767   C777    1.417   .     A
C767   C772    1.391   .     A
C767   O831    1.383   .     S
C768   O834    1.293   .     A
C768   O833    1.293   .     A
C768   C775    1.459   .     S
C769   O832    1.383   .     S
C769   C776    1.417   .     A
C769   C773    1.391   .     A
C770   C774    1.398   .     A
C770   H822    1.084   .     S
C771   C775    1.398   .     A
C771   H823    1.084   .     S
C772   H824    1.084   .     S
C772   C775    1.398   .     A
C773   H825    1.084   .     S
C773   C774    1.398   .     A
C777   C692    1.475   1_655 S
C778   H800    1.113   .     S
C778   O840    1.411   .     S
C779   N827    1.364   .     A
C779   C790    1.407   .     A
C779   H795    1.081   .     S
C780   H801    1.111   .     S
C780   H803    1.111   .     S
C780   H802    1.109   .     S
C780   C694    1.521   1_655 S
C781   O830    1.409   .     S
C781   H805    1.114   .     S
C781   C698    1.521   1_655 S
C781   H720    1.110   1_655 S
C782   H808    1.109   .     S
C782   H809    1.111   .     S
C783   H811    1.114   .     S
C783   O831    1.410   .     S
C783   C700    1.521   1_655 S
C783   H726    1.110   1_655 S
C784   H813    1.109   .     S
C784   H814    1.111   .     S
C785   O832    1.411   .     S
C785   H816    1.112   .     S
C786   H820    1.111   .     S
C786   H819    1.111   .     S
C786   H818    1.109   .     S
C786   C701    1.521   1_655 S
C787   N828    1.364   .     A
C787   H806    1.081   .     S
C787   C791    1.407   .     A
C788   C792    1.407   .     A
C788   H817    1.081   .     S
C788   N827    1.364   .     A
C789   H821    1.081   .     S
C789   N828    1.364   .     A
C790   H826    1.081   .     S
C791   H796    1.081   .     S
C792   H797    1.081   .     S
Cu793  O836    1.937   .     S
Cu793  Cu794   2.675   .     S
Cu793  O838    1.937   .     S
Cu793  O829    1.957   .     S
Cu793  O834    1.957   .     S
Cu793  N828    2.009   .     S
Cu794  O839    1.937   .     S
Cu794  O835    1.957   .     S
Cu794  O837    1.937   .     S
Cu794  N827    2.009   .     S
Cu794  O833    1.957   .     S
H799   C694    1.111   1_655 S
H807   C698    1.111   1_655 S
H812   C700    1.111   1_655 S
H815   C701    1.111   1_655 S
C841   C858    1.456   .     S
C841   O919    1.292   .     A
C841   O913    1.292   .     A
C842   C846    1.411   .     A
C842   C873    1.407   .     A
C842   H882    1.081   .     S
C843   C847    1.411   .     S
C843   O920    1.287   .     A
C843   O923    1.287   .     A
C844   C848    1.411   .     S
C844   O921    1.287   .     A
C844   O922    1.287   .     A
C845   C876    1.411   .     A
C845   C874    1.411   .     A
C846   C875    1.411   .     A
C846   C677    1.517   1_565 S
C848   C175    1.192   1_556 S
C849   C854    1.391   .     A
C849   C860    1.417   .     A
C849   O924    1.383   .     S
C850   C855    1.391   .     A
C850   C861    1.417   .     A
C850   O914    1.383   .     S
C851   C861    1.417   .     A
C851   C856    1.391   .     A
C851   O915    1.383   .     S
C852   O918    1.293   .     A
C852   O917    1.293   .     A
C852   C859    1.459   .     S
C853   O916    1.383   .     S
C853   C860    1.417   .     A
C853   C857    1.391   .     A
C854   C858    1.398   .     A
C854   H906    1.084   .     S
C855   C859    1.398   .     A
C855   H907    1.084   .     S
C856   H908    1.084   .     S
C856   C859    1.398   .     A
C857   H909    1.084   .     S
C857   C858    1.398   .     A
C860   C945    1.475   1_455 S
C861   C944    1.475   .     S
C862   H884    1.113   .     S
C862   O924    1.411   .     S
C862   C948    1.521   1_455 S
C862   H967    1.111   1_455 S
C863   N911    1.364   .     A
C863   C874    1.407   .     A
C863   H879    1.081   .     S
C864   H885    1.111   .     S
C864   H887    1.111   .     S
C864   H886    1.109   .     S
C864   C946    1.521   .     S
C865   O914    1.409   .     S
C865   H889    1.114   .     S
C865   C950    1.521   .     S
C865   H972    1.110   .     S
C866   H892    1.109   .     S
C866   H893    1.111   .     S
C866   C949    1.521   1_455 S
C866   H975    1.111   1_455 S
C867   H895    1.114   .     S
C867   O915    1.410   .     S
C867   C952    1.521   .     S
C867   H978    1.110   .     S
C868   H897    1.109   .     S
C868   H898    1.111   .     S
C868   C951    1.521   1_455 S
C868   H980    1.111   1_455 S
C869   O916    1.411   .     S
C869   H900    1.112   .     S
C869   C954    1.521   1_455 S
C869   H983    1.111   1_455 S
C870   H904    1.111   .     S
C870   H903    1.111   .     S
C870   H902    1.109   .     S
C870   C953    1.521   .     S
C871   N912    1.364   .     A
C871   H890    1.081   .     S
C871   C875    1.407   .     A
C872   C876    1.407   .     A
C872   H901    1.081   .     S
C872   N911    1.364   .     A
C873   H905    1.081   .     S
C873   N912    1.364   .     A
C874   H910    1.081   .     S
C875   H880    1.081   .     S
C876   H881    1.081   .     S
Cu877  O920    1.937   .     S
Cu877  Cu878   2.675   .     S
Cu877  O922    1.937   .     S
Cu877  O913    1.957   .     S
Cu877  O918    1.957   .     S
Cu877  N912    2.009   .     S
Cu878  O923    1.937   .     S
Cu878  O919    1.957   .     S
Cu878  O921    1.937   .     S
Cu878  N911    2.009   .     S
Cu878  O917    1.957   .     S
H883   C946    1.111   .     S
H888   C949    1.110   1_455 S
H891   C950    1.111   .     S
H894   C951    1.110   1_455 S
H896   C952    1.111   .     S
H899   C953    1.111   .     S
C925   C942    1.456   .     S
C925   O1003   1.292   .     A
C925   O997    1.292   .     A
C926   C930    1.411   .     A
C926   C957    1.407   .     A
C926   H966    1.081   .     S
C927   C931    1.411   .     S
C927   O1004   1.287   .     A
C927   O1007   1.287   .     A
C928   C932    1.411   .     S
C928   O1005   1.287   .     A
C928   O1006   1.287   .     A
C929   C960    1.411   .     A
C929   C958    1.411   .     A
C930   C959    1.411   .     A
C930   C761    1.517   1_565 S
C932   C259    1.192   1_556 S
C933   C938    1.391   .     A
C933   C944    1.417   .     A
C933   O1008   1.383   .     S
C934   C939    1.391   .     A
C934   C945    1.417   .     A
C934   O998    1.383   .     S
C935   C945    1.417   .     A
C935   C940    1.391   .     A
C935   O999    1.383   .     S
C936   O1002   1.293   .     A
C936   O1001   1.293   .     A
C936   C943    1.459   .     S
C937   O1000   1.383   .     S
C937   C944    1.417   .     A
C937   C941    1.391   .     A
C938   C942    1.398   .     A
C938   H990    1.084   .     S
C939   C943    1.398   .     A
C939   H991    1.084   .     S
C940   H992    1.084   .     S
C940   C943    1.398   .     A
C941   H993    1.084   .     S
C941   C942    1.398   .     A
C945   C860    1.475   1_655 S
C946   H968    1.113   .     S
C946   O1008   1.411   .     S
C947   N995    1.364   .     A
C947   C958    1.407   .     A
C947   H963    1.081   .     S
C948   H969    1.111   .     S
C948   H971    1.111   .     S
C948   H970    1.109   .     S
C948   C862    1.521   1_655 S
C949   O998    1.409   .     S
C949   H973    1.114   .     S
C949   C866    1.521   1_655 S
C949   H888    1.110   1_655 S
C950   H976    1.109   .     S
C950   H977    1.111   .     S
C951   H979    1.114   .     S
C951   O999    1.410   .     S
C951   C868    1.521   1_655 S
C951   H894    1.110   1_655 S
C952   H981    1.109   .     S
C952   H982    1.111   .     S
C953   O1000   1.411   .     S
C953   H984    1.112   .     S
C954   H988    1.111   .     S
C954   H987    1.111   .     S
C954   H986    1.109   .     S
C954   C869    1.521   1_655 S
C955   N996    1.364   .     A
C955   H974    1.081   .     S
C955   C959    1.407   .     A
C956   C960    1.407   .     A
C956   H985    1.081   .     S
C956   N995    1.364   .     A
C957   H989    1.081   .     S
C957   N996    1.364   .     A
C958   H994    1.081   .     S
C959   H964    1.081   .     S
C960   H965    1.081   .     S
Cu961  O1004   1.937   .     S
Cu961  Cu962   2.675   .     S
Cu961  O1006   1.937   .     S
Cu961  O997    1.957   .     S
Cu961  O1002   1.957   .     S
Cu961  N996    2.009   .     S
Cu962  O1007   1.937   .     S
Cu962  O1003   1.957   .     S
Cu962  O1005   1.937   .     S
Cu962  N995    2.009   .     S
Cu962  O1001   1.957   .     S
H967   C862    1.111   1_655 S
H975   C866    1.111   1_655 S
H980   C868    1.111   1_655 S
H983   C869    1.111   1_655 S
