data_str_m2_o10_o17_pcu_sym.104
_audit_creation_date              2020-01-03
_audit_creation_method            'Materials Studio'
_symmetry_space_group_name_H-M    'P1'
_symmetry_Int_Tables_number       1
_symmetry_cell_setting            triclinic
loop_
_symmetry_equiv_pos_as_xyz
  x,y,z
_cell_length_a                    30.2761
_cell_length_b                    26.2811
_cell_length_c                    22.7805
_cell_angle_alpha                 103.4232
_cell_angle_beta                  93.1257
_cell_angle_gamma                 95.1353
loop_
_atom_site_label
_atom_site_type_symbol
_atom_site_fract_x
_atom_site_fract_y
_atom_site_fract_z
_atom_site_U_iso_or_equiv
_atom_site_adp_type
_atom_site_occupancy
C1     C     0.24627   0.06664   0.15143   0.00000  Uiso   1.00
C2     C     0.25244   0.26671   0.18210   0.00000  Uiso   1.00
C3     C     0.01276   0.07282   0.10042   0.00000  Uiso   1.00
C4     C     0.48684   0.25983   0.20573   0.00000  Uiso   1.00
C5     C     0.23874   0.01025   0.14612   0.00000  Uiso   1.00
C6     C     0.25900   0.32325   0.18837   0.00000  Uiso   1.00
C7     C     0.16460   0.16333   0.16716   0.00000  Uiso   1.00
C8     C     0.33538   0.16701   0.16555   0.00000  Uiso   1.00
C9     C     0.41306   0.21113   0.19452   0.00000  Uiso   1.00
C10    C     0.08858   0.11776   0.13348   0.00000  Uiso   1.00
C11    C     0.38392   0.16724   0.16240   0.00000  Uiso   1.00
C12    C     0.11607   0.16174   0.16837   0.00000  Uiso   1.00
C13    C     0.40135   0.12426   0.12514   0.00000  Uiso   1.00
C14    C     0.09746   0.20535   0.20152   0.00000  Uiso   1.00
C15    C     0.44789   0.12011   0.12965   0.00000  Uiso   1.00
C16    C     0.05150   0.20943   0.19202   0.00000  Uiso   1.00
C17    C     0.47677   0.16515   0.15971   0.00000  Uiso   1.00
C18    C     0.02328   0.16394   0.16128   0.00000  Uiso   1.00
C19    C     0.45904   0.21191   0.18783   0.00000  Uiso   1.00
C20    C     0.04161   0.11781   0.13144   0.00000  Uiso   1.00
C21    C     0.46626   0.07284   0.10362   0.00000  Uiso   1.00
C22    C     0.03364   0.25867   0.20823   0.00000  Uiso   1.00
Cu23   Cu    0.25501   0.17246   0.22813   0.00000  Uiso   1.00
Cu24   Cu    0.24500   0.16087   0.10521   0.00000  Uiso   1.00
N25    N     0.23745   0.15214   0.01284   0.00000  Uiso   1.00
N26    N     0.26256   0.18119   0.32049   0.00000  Uiso   1.00
O27    O     0.25326   0.09538   0.20659   0.00000  Uiso   1.00
O28    O     0.24675   0.23796   0.12674   0.00000  Uiso   1.00
O29    O     0.24480   0.08559   0.10279   0.00000  Uiso   1.00
O30    O     0.25520   0.24774   0.23055   0.00000  Uiso   1.00
O31    O     0.18936   0.17155   0.21857   0.00000  Uiso   1.00
O32    O     0.31065   0.16179   0.11476   0.00000  Uiso   1.00
O33    O     0.18090   0.16176   0.11477   0.00000  Uiso   1.00
O34    O     0.31910   0.17157   0.21857   0.00000  Uiso   1.00
O35    O     0.39864   0.25102   0.23827   0.00000  Uiso   1.00
C36    C     0.36862   0.27950   0.21294   0.00000  Uiso   1.00
H37    H     0.33569   0.27088   0.22841   0.00000  Uiso   1.00
H38    H     0.36655   0.27140   0.16276   0.00000  Uiso   1.00
H39    H     0.37807   0.32211   0.23107   0.00000  Uiso   1.00
O40    O     0.10722   0.07117   0.11335   0.00000  Uiso   1.00
C41    C     0.12062   0.06682   0.05423   0.00000  Uiso   1.00
H42    H     0.15697   0.07586   0.05607   0.00000  Uiso   1.00
H43    H     0.10337   0.09119   0.02796   0.00000  Uiso   1.00
H44    H     0.11395   0.02514   0.02926   0.00000  Uiso   1.00
C45    C     0.37118   0.08652   0.07786   0.00000  Uiso   1.00
O46    O     0.37746   0.08277   0.02462   0.00000  Uiso   1.00
O47    O     0.33709   0.05369   0.09316   0.00000  Uiso   1.00
H48    H     0.33758   0.05685   0.13836   0.00000  Uiso   1.00
C49    C     0.12590   0.24544   0.24809   0.00000  Uiso   1.00
O50    O     0.11589   0.25561   0.30050   0.00000  Uiso   1.00
O51    O     0.16216   0.27372   0.23087   0.00000  Uiso   1.00
H52    H     0.17572   0.30425   0.26444   0.00000  Uiso   1.00
C53    C     0.43759   0.02202   0.08681   0.00000  Uiso   1.00
O54    O     0.41642   0.00770   0.12521   0.00000  Uiso   1.00
O55    O     0.43235   0.32563   0.02723   0.00000  Uiso   1.00
H56    H     0.41202   0.29191   0.02234   0.00000  Uiso   1.00
C57    C     0.06401   0.30808   0.21653   0.00000  Uiso   1.00
O58    O     0.06722   0.00809   0.26419   0.00000  Uiso   1.00
O59    O     0.09323   0.31300   0.17235   0.00000  Uiso   1.00
H60    H     0.11518   0.01230   0.18519   0.00000  Uiso   1.00
O61    O     0.02956   0.03386   0.05795   0.00000  Uiso   1.00
C62    C     0.02674   0.31821   0.07372   0.00000  Uiso   1.00
H63    H     0.00340   0.28916   0.04074   0.00000  Uiso   1.00
H64    H     0.01644   0.31990   0.11992   0.00000  Uiso   1.00
H65    H     0.05952   0.30272   0.06935   0.00000  Uiso   1.00
O66    O     0.46739   0.30499   0.20127   0.00000  Uiso   1.00
C67    C     0.47641   0.01341   0.25305   0.00000  Uiso   1.00
H68    H     0.49868   0.04529   0.24220   0.00000  Uiso   1.00
H69    H     0.49036   0.00110   0.29267   0.00000  Uiso   1.00
H70    H     0.44529   0.03086   0.26533   0.00000  Uiso   1.00
O71    O     0.20279   0.31448   0.10937   0.00000  Uiso   1.00
C72    C     0.21187   0.30725   0.04832   0.00000  Uiso   1.00
H73    H     0.24761   0.30458   0.04084   0.00000  Uiso   1.00
H74    H     0.19958   0.00601   0.03023   0.00000  Uiso   1.00
H75    H     0.19385   0.26951   0.02263   0.00000  Uiso   1.00
O76    O     0.29361   0.01967   0.22744   0.00000  Uiso   1.00
C77    C     0.28264   0.02635   0.28787   0.00000  Uiso   1.00
H78    H     0.29778   0.33036   0.30838   0.00000  Uiso   1.00
H79    H     0.24630   0.02450   0.29291   0.00000  Uiso   1.00
H80    H     0.29675   0.06609   0.31352   0.00000  Uiso   1.00
C81    C     0.19414   0.13579   0.31818   0.00000  Uiso   1.00
O82    O     0.16465   0.16457   0.33003   0.00000  Uiso   1.00
O83    O     0.18466   0.08597   0.27932   0.00000  Uiso   1.00
H84    H     0.15235   0.07880   0.26296   0.00000  Uiso   1.00
C85    C     0.30530   0.20065   0.01564   0.00000  Uiso   1.00
O86    O     0.33615   0.17366   0.00582   0.00000  Uiso   1.00
O87    O     0.31303   0.25241   0.04987   0.00000  Uiso   1.00
H88    H     0.34559   0.26326   0.06326   0.00000  Uiso   1.00
C89    C     0.74627   0.06664   0.15143   0.00000  Uiso   1.00
C90    C     0.75244   0.26671   0.18210   0.00000  Uiso   1.00
C91    C     0.51276   0.07282   0.10042   0.00000  Uiso   1.00
C92    C     0.98684   0.25983   0.20573   0.00000  Uiso   1.00
C93    C     0.73874   0.01025   0.14612   0.00000  Uiso   1.00
C94    C     0.75900   0.32325   0.18837   0.00000  Uiso   1.00
C95    C     0.66460   0.16333   0.16716   0.00000  Uiso   1.00
C96    C     0.83538   0.16701   0.16555   0.00000  Uiso   1.00
C97    C     0.91306   0.21113   0.19452   0.00000  Uiso   1.00
C98    C     0.58858   0.11776   0.13348   0.00000  Uiso   1.00
C99    C     0.88392   0.16724   0.16240   0.00000  Uiso   1.00
C100   C     0.61607   0.16174   0.16837   0.00000  Uiso   1.00
C101   C     0.90135   0.12426   0.12514   0.00000  Uiso   1.00
C102   C     0.59746   0.20535   0.20152   0.00000  Uiso   1.00
C103   C     0.94789   0.12011   0.12965   0.00000  Uiso   1.00
C104   C     0.55150   0.20943   0.19202   0.00000  Uiso   1.00
C105   C     0.97677   0.16515   0.15971   0.00000  Uiso   1.00
C106   C     0.52328   0.16394   0.16128   0.00000  Uiso   1.00
C107   C     0.95904   0.21191   0.18783   0.00000  Uiso   1.00
C108   C     0.54161   0.11781   0.13144   0.00000  Uiso   1.00
C109   C     0.96626   0.07284   0.10362   0.00000  Uiso   1.00
C110   C     0.53364   0.25867   0.20823   0.00000  Uiso   1.00
Cu111  Cu    0.75501   0.17246   0.22813   0.00000  Uiso   1.00
Cu112  Cu    0.74500   0.16087   0.10521   0.00000  Uiso   1.00
N113   N     0.73745   0.15214   0.01284   0.00000  Uiso   1.00
N114   N     0.76256   0.18119   0.32049   0.00000  Uiso   1.00
O115   O     0.75326   0.09538   0.20659   0.00000  Uiso   1.00
O116   O     0.74675   0.23796   0.12674   0.00000  Uiso   1.00
O117   O     0.74480   0.08559   0.10279   0.00000  Uiso   1.00
O118   O     0.75520   0.24774   0.23055   0.00000  Uiso   1.00
O119   O     0.68936   0.17155   0.21857   0.00000  Uiso   1.00
O120   O     0.81065   0.16179   0.11476   0.00000  Uiso   1.00
O121   O     0.68090   0.16176   0.11477   0.00000  Uiso   1.00
O122   O     0.81910   0.17157   0.21857   0.00000  Uiso   1.00
O123   O     0.89864   0.25102   0.23827   0.00000  Uiso   1.00
C124   C     0.86862   0.27950   0.21294   0.00000  Uiso   1.00
H125   H     0.83569   0.27088   0.22841   0.00000  Uiso   1.00
H126   H     0.86655   0.27140   0.16276   0.00000  Uiso   1.00
H127   H     0.87807   0.32211   0.23107   0.00000  Uiso   1.00
O128   O     0.60722   0.07117   0.11335   0.00000  Uiso   1.00
C129   C     0.62062   0.06682   0.05423   0.00000  Uiso   1.00
H130   H     0.65697   0.07586   0.05607   0.00000  Uiso   1.00
H131   H     0.60337   0.09119   0.02796   0.00000  Uiso   1.00
H132   H     0.61395   0.02514   0.02926   0.00000  Uiso   1.00
C133   C     0.87118   0.08652   0.07786   0.00000  Uiso   1.00
O134   O     0.87746   0.08277   0.02462   0.00000  Uiso   1.00
O135   O     0.83709   0.05369   0.09316   0.00000  Uiso   1.00
H136   H     0.83758   0.05685   0.13836   0.00000  Uiso   1.00
C137   C     0.62590   0.24544   0.24809   0.00000  Uiso   1.00
O138   O     0.61589   0.25561   0.30050   0.00000  Uiso   1.00
O139   O     0.66216   0.27372   0.23087   0.00000  Uiso   1.00
H140   H     0.67572   0.30425   0.26444   0.00000  Uiso   1.00
C141   C     0.93759   0.02202   0.08681   0.00000  Uiso   1.00
O142   O     0.91642   0.00770   0.12521   0.00000  Uiso   1.00
O143   O     0.93235   0.32563   0.02723   0.00000  Uiso   1.00
H144   H     0.91202   0.29191   0.02234   0.00000  Uiso   1.00
C145   C     0.56401   0.30808   0.21653   0.00000  Uiso   1.00
O146   O     0.56722   0.00809   0.26419   0.00000  Uiso   1.00
O147   O     0.59323   0.31300   0.17235   0.00000  Uiso   1.00
H148   H     0.61518   0.01230   0.18519   0.00000  Uiso   1.00
O149   O     0.52956   0.03386   0.05795   0.00000  Uiso   1.00
C150   C     0.52674   0.31821   0.07372   0.00000  Uiso   1.00
H151   H     0.50340   0.28916   0.04074   0.00000  Uiso   1.00
H152   H     0.51644   0.31990   0.11992   0.00000  Uiso   1.00
H153   H     0.55952   0.30272   0.06935   0.00000  Uiso   1.00
O154   O     0.96739   0.30499   0.20127   0.00000  Uiso   1.00
C155   C     0.97641   0.01341   0.25305   0.00000  Uiso   1.00
H156   H     0.99868   0.04529   0.24220   0.00000  Uiso   1.00
H157   H     0.99036   0.00110   0.29267   0.00000  Uiso   1.00
H158   H     0.94529   0.03086   0.26533   0.00000  Uiso   1.00
O159   O     0.70279   0.31448   0.10937   0.00000  Uiso   1.00
C160   C     0.71187   0.30725   0.04832   0.00000  Uiso   1.00
H161   H     0.74761   0.30458   0.04084   0.00000  Uiso   1.00
H162   H     0.69958   0.00601   0.03023   0.00000  Uiso   1.00
H163   H     0.69385   0.26951   0.02263   0.00000  Uiso   1.00
O164   O     0.79361   0.01967   0.22744   0.00000  Uiso   1.00
C165   C     0.78264   0.02635   0.28787   0.00000  Uiso   1.00
H166   H     0.79778   0.33036   0.30838   0.00000  Uiso   1.00
H167   H     0.74630   0.02450   0.29291   0.00000  Uiso   1.00
H168   H     0.79675   0.06609   0.31352   0.00000  Uiso   1.00
C169   C     0.69414   0.13579   0.31818   0.00000  Uiso   1.00
O170   O     0.66465   0.16457   0.33003   0.00000  Uiso   1.00
O171   O     0.68466   0.08597   0.27932   0.00000  Uiso   1.00
H172   H     0.65235   0.07880   0.26296   0.00000  Uiso   1.00
C173   C     0.80530   0.20065   0.01564   0.00000  Uiso   1.00
O174   O     0.83615   0.17366   0.00582   0.00000  Uiso   1.00
O175   O     0.81303   0.25241   0.04987   0.00000  Uiso   1.00
H176   H     0.84559   0.26326   0.06326   0.00000  Uiso   1.00
C177   C     0.24627   0.39998   0.15143   0.00000  Uiso   1.00
C178   C     0.25244   0.60005   0.18210   0.00000  Uiso   1.00
C179   C     0.01276   0.40616   0.10042   0.00000  Uiso   1.00
C180   C     0.48684   0.59316   0.20573   0.00000  Uiso   1.00
C181   C     0.23874   0.34358   0.14612   0.00000  Uiso   1.00
C182   C     0.25900   0.65659   0.18837   0.00000  Uiso   1.00
C183   C     0.16460   0.49666   0.16716   0.00000  Uiso   1.00
C184   C     0.33538   0.50035   0.16555   0.00000  Uiso   1.00
C185   C     0.41306   0.54447   0.19452   0.00000  Uiso   1.00
C186   C     0.08858   0.45109   0.13348   0.00000  Uiso   1.00
C187   C     0.38392   0.50057   0.16240   0.00000  Uiso   1.00
C188   C     0.11607   0.49508   0.16837   0.00000  Uiso   1.00
C189   C     0.40135   0.45759   0.12514   0.00000  Uiso   1.00
C190   C     0.09746   0.53868   0.20152   0.00000  Uiso   1.00
C191   C     0.44789   0.45345   0.12965   0.00000  Uiso   1.00
C192   C     0.05150   0.54277   0.19202   0.00000  Uiso   1.00
C193   C     0.47677   0.49848   0.15971   0.00000  Uiso   1.00
C194   C     0.02328   0.49727   0.16128   0.00000  Uiso   1.00
C195   C     0.45904   0.54524   0.18783   0.00000  Uiso   1.00
C196   C     0.04161   0.45114   0.13144   0.00000  Uiso   1.00
C197   C     0.46626   0.40617   0.10362   0.00000  Uiso   1.00
C198   C     0.03364   0.59201   0.20823   0.00000  Uiso   1.00
Cu199  Cu    0.25501   0.50579   0.22813   0.00000  Uiso   1.00
Cu200  Cu    0.24500   0.49421   0.10521   0.00000  Uiso   1.00
N201   N     0.23745   0.48547   0.01284   0.00000  Uiso   1.00
N202   N     0.26256   0.51453   0.32049   0.00000  Uiso   1.00
O203   O     0.25326   0.42871   0.20659   0.00000  Uiso   1.00
O204   O     0.24675   0.57129   0.12674   0.00000  Uiso   1.00
O205   O     0.24480   0.41892   0.10279   0.00000  Uiso   1.00
O206   O     0.25520   0.58108   0.23055   0.00000  Uiso   1.00
O207   O     0.18936   0.50488   0.21857   0.00000  Uiso   1.00
O208   O     0.31065   0.49512   0.11476   0.00000  Uiso   1.00
O209   O     0.18090   0.49510   0.11477   0.00000  Uiso   1.00
O210   O     0.31910   0.50490   0.21857   0.00000  Uiso   1.00
O211   O     0.39864   0.58436   0.23827   0.00000  Uiso   1.00
C212   C     0.36862   0.61283   0.21294   0.00000  Uiso   1.00
H213   H     0.33569   0.60421   0.22841   0.00000  Uiso   1.00
H214   H     0.36655   0.60473   0.16276   0.00000  Uiso   1.00
H215   H     0.37807   0.65544   0.23107   0.00000  Uiso   1.00
O216   O     0.10722   0.40450   0.11335   0.00000  Uiso   1.00
C217   C     0.12062   0.40016   0.05423   0.00000  Uiso   1.00
H218   H     0.15697   0.40919   0.05607   0.00000  Uiso   1.00
H219   H     0.10337   0.42453   0.02796   0.00000  Uiso   1.00
H220   H     0.11395   0.35848   0.02926   0.00000  Uiso   1.00
C221   C     0.37118   0.41985   0.07786   0.00000  Uiso   1.00
O222   O     0.37746   0.41610   0.02462   0.00000  Uiso   1.00
O223   O     0.33709   0.38703   0.09316   0.00000  Uiso   1.00
H224   H     0.33758   0.39019   0.13836   0.00000  Uiso   1.00
C225   C     0.12590   0.57878   0.24809   0.00000  Uiso   1.00
O226   O     0.11589   0.58895   0.30050   0.00000  Uiso   1.00
O227   O     0.16216   0.60705   0.23087   0.00000  Uiso   1.00
H228   H     0.17572   0.63758   0.26444   0.00000  Uiso   1.00
C229   C     0.43759   0.35535   0.08681   0.00000  Uiso   1.00
O230   O     0.41642   0.34103   0.12521   0.00000  Uiso   1.00
O231   O     0.43235   0.65896   0.02723   0.00000  Uiso   1.00
H232   H     0.41202   0.62524   0.02234   0.00000  Uiso   1.00
C233   C     0.06401   0.64142   0.21653   0.00000  Uiso   1.00
O234   O     0.06722   0.34142   0.26419   0.00000  Uiso   1.00
O235   O     0.09323   0.64634   0.17235   0.00000  Uiso   1.00
H236   H     0.11518   0.34564   0.18519   0.00000  Uiso   1.00
O237   O     0.02956   0.36719   0.05795   0.00000  Uiso   1.00
C238   C     0.02674   0.65154   0.07372   0.00000  Uiso   1.00
H239   H     0.00340   0.62249   0.04074   0.00000  Uiso   1.00
H240   H     0.01644   0.65323   0.11992   0.00000  Uiso   1.00
H241   H     0.05952   0.63605   0.06935   0.00000  Uiso   1.00
O242   O     0.46739   0.63832   0.20127   0.00000  Uiso   1.00
C243   C     0.47641   0.34675   0.25305   0.00000  Uiso   1.00
H244   H     0.49868   0.37862   0.24220   0.00000  Uiso   1.00
H245   H     0.49036   0.33444   0.29267   0.00000  Uiso   1.00
H246   H     0.44529   0.36419   0.26533   0.00000  Uiso   1.00
O247   O     0.20279   0.64781   0.10937   0.00000  Uiso   1.00
C248   C     0.21187   0.64058   0.04832   0.00000  Uiso   1.00
H249   H     0.24761   0.63791   0.04084   0.00000  Uiso   1.00
H250   H     0.19958   0.33934   0.03023   0.00000  Uiso   1.00
H251   H     0.19385   0.60284   0.02263   0.00000  Uiso   1.00
O252   O     0.29361   0.35300   0.22744   0.00000  Uiso   1.00
C253   C     0.28264   0.35969   0.28787   0.00000  Uiso   1.00
H254   H     0.29778   0.66370   0.30838   0.00000  Uiso   1.00
H255   H     0.24630   0.35783   0.29291   0.00000  Uiso   1.00
H256   H     0.29675   0.39942   0.31352   0.00000  Uiso   1.00
C257   C     0.19414   0.46913   0.31818   0.00000  Uiso   1.00
O258   O     0.16465   0.49791   0.33003   0.00000  Uiso   1.00
O259   O     0.18466   0.41931   0.27932   0.00000  Uiso   1.00
H260   H     0.15235   0.41214   0.26296   0.00000  Uiso   1.00
C261   C     0.30530   0.53398   0.01564   0.00000  Uiso   1.00
O262   O     0.33615   0.50699   0.00582   0.00000  Uiso   1.00
O263   O     0.31303   0.58575   0.04987   0.00000  Uiso   1.00
H264   H     0.34559   0.59660   0.06326   0.00000  Uiso   1.00
C265   C     0.74627   0.39998   0.15143   0.00000  Uiso   1.00
C266   C     0.75244   0.60005   0.18210   0.00000  Uiso   1.00
C267   C     0.51276   0.40616   0.10042   0.00000  Uiso   1.00
C268   C     0.98684   0.59316   0.20573   0.00000  Uiso   1.00
C269   C     0.73874   0.34358   0.14612   0.00000  Uiso   1.00
C270   C     0.75900   0.65659   0.18837   0.00000  Uiso   1.00
C271   C     0.66460   0.49666   0.16716   0.00000  Uiso   1.00
C272   C     0.83538   0.50035   0.16555   0.00000  Uiso   1.00
C273   C     0.91306   0.54447   0.19452   0.00000  Uiso   1.00
C274   C     0.58858   0.45109   0.13348   0.00000  Uiso   1.00
C275   C     0.88392   0.50057   0.16240   0.00000  Uiso   1.00
C276   C     0.61607   0.49508   0.16837   0.00000  Uiso   1.00
C277   C     0.90135   0.45759   0.12514   0.00000  Uiso   1.00
C278   C     0.59746   0.53868   0.20152   0.00000  Uiso   1.00
C279   C     0.94789   0.45345   0.12965   0.00000  Uiso   1.00
C280   C     0.55150   0.54277   0.19202   0.00000  Uiso   1.00
C281   C     0.97677   0.49848   0.15971   0.00000  Uiso   1.00
C282   C     0.52328   0.49727   0.16128   0.00000  Uiso   1.00
C283   C     0.95904   0.54524   0.18783   0.00000  Uiso   1.00
C284   C     0.54161   0.45114   0.13144   0.00000  Uiso   1.00
C285   C     0.96626   0.40617   0.10362   0.00000  Uiso   1.00
C286   C     0.53364   0.59201   0.20823   0.00000  Uiso   1.00
Cu287  Cu    0.75501   0.50579   0.22813   0.00000  Uiso   1.00
Cu288  Cu    0.74500   0.49421   0.10521   0.00000  Uiso   1.00
N289   N     0.73745   0.48547   0.01284   0.00000  Uiso   1.00
N290   N     0.76256   0.51453   0.32049   0.00000  Uiso   1.00
O291   O     0.75326   0.42871   0.20659   0.00000  Uiso   1.00
O292   O     0.74675   0.57129   0.12674   0.00000  Uiso   1.00
O293   O     0.74480   0.41892   0.10279   0.00000  Uiso   1.00
O294   O     0.75520   0.58108   0.23055   0.00000  Uiso   1.00
O295   O     0.68936   0.50488   0.21857   0.00000  Uiso   1.00
O296   O     0.81065   0.49512   0.11476   0.00000  Uiso   1.00
O297   O     0.68090   0.49510   0.11477   0.00000  Uiso   1.00
O298   O     0.81910   0.50490   0.21857   0.00000  Uiso   1.00
O299   O     0.89864   0.58436   0.23827   0.00000  Uiso   1.00
C300   C     0.86862   0.61283   0.21294   0.00000  Uiso   1.00
H301   H     0.83569   0.60421   0.22841   0.00000  Uiso   1.00
H302   H     0.86655   0.60473   0.16276   0.00000  Uiso   1.00
H303   H     0.87807   0.65544   0.23107   0.00000  Uiso   1.00
O304   O     0.60722   0.40450   0.11335   0.00000  Uiso   1.00
C305   C     0.62062   0.40016   0.05423   0.00000  Uiso   1.00
H306   H     0.65697   0.40919   0.05607   0.00000  Uiso   1.00
H307   H     0.60337   0.42453   0.02796   0.00000  Uiso   1.00
H308   H     0.61395   0.35848   0.02926   0.00000  Uiso   1.00
C309   C     0.87118   0.41985   0.07786   0.00000  Uiso   1.00
O310   O     0.87746   0.41610   0.02462   0.00000  Uiso   1.00
O311   O     0.83709   0.38703   0.09316   0.00000  Uiso   1.00
H312   H     0.83758   0.39019   0.13836   0.00000  Uiso   1.00
C313   C     0.62590   0.57878   0.24809   0.00000  Uiso   1.00
O314   O     0.61589   0.58895   0.30050   0.00000  Uiso   1.00
O315   O     0.66216   0.60705   0.23087   0.00000  Uiso   1.00
H316   H     0.67572   0.63758   0.26444   0.00000  Uiso   1.00
C317   C     0.93759   0.35535   0.08681   0.00000  Uiso   1.00
O318   O     0.91642   0.34103   0.12521   0.00000  Uiso   1.00
O319   O     0.93235   0.65896   0.02723   0.00000  Uiso   1.00
H320   H     0.91202   0.62524   0.02234   0.00000  Uiso   1.00
C321   C     0.56401   0.64142   0.21653   0.00000  Uiso   1.00
O322   O     0.56722   0.34142   0.26419   0.00000  Uiso   1.00
O323   O     0.59323   0.64634   0.17235   0.00000  Uiso   1.00
H324   H     0.61518   0.34564   0.18519   0.00000  Uiso   1.00
O325   O     0.52956   0.36719   0.05795   0.00000  Uiso   1.00
C326   C     0.52674   0.65154   0.07372   0.00000  Uiso   1.00
H327   H     0.50340   0.62249   0.04074   0.00000  Uiso   1.00
H328   H     0.51644   0.65323   0.11992   0.00000  Uiso   1.00
H329   H     0.55952   0.63605   0.06935   0.00000  Uiso   1.00
O330   O     0.96739   0.63832   0.20127   0.00000  Uiso   1.00
C331   C     0.97641   0.34675   0.25305   0.00000  Uiso   1.00
H332   H     0.99868   0.37862   0.24220   0.00000  Uiso   1.00
H333   H     0.99036   0.33444   0.29267   0.00000  Uiso   1.00
H334   H     0.94529   0.36419   0.26533   0.00000  Uiso   1.00
O335   O     0.70279   0.64781   0.10937   0.00000  Uiso   1.00
C336   C     0.71187   0.64058   0.04832   0.00000  Uiso   1.00
H337   H     0.74761   0.63791   0.04084   0.00000  Uiso   1.00
H338   H     0.69958   0.33934   0.03023   0.00000  Uiso   1.00
H339   H     0.69385   0.60284   0.02263   0.00000  Uiso   1.00
O340   O     0.79361   0.35300   0.22744   0.00000  Uiso   1.00
C341   C     0.78264   0.35969   0.28787   0.00000  Uiso   1.00
H342   H     0.79778   0.66370   0.30838   0.00000  Uiso   1.00
H343   H     0.74630   0.35783   0.29291   0.00000  Uiso   1.00
H344   H     0.79675   0.39942   0.31352   0.00000  Uiso   1.00
C345   C     0.69414   0.46913   0.31818   0.00000  Uiso   1.00
O346   O     0.66465   0.49791   0.33003   0.00000  Uiso   1.00
O347   O     0.68466   0.41931   0.27932   0.00000  Uiso   1.00
H348   H     0.65235   0.41214   0.26296   0.00000  Uiso   1.00
C349   C     0.80530   0.53398   0.01564   0.00000  Uiso   1.00
O350   O     0.83615   0.50699   0.00582   0.00000  Uiso   1.00
O351   O     0.81303   0.58575   0.04987   0.00000  Uiso   1.00
H352   H     0.84559   0.59660   0.06326   0.00000  Uiso   1.00
C353   C     0.24627   0.73331   0.15143   0.00000  Uiso   1.00
C354   C     0.25244   0.93338   0.18210   0.00000  Uiso   1.00
C355   C     0.01276   0.73949   0.10042   0.00000  Uiso   1.00
C356   C     0.48684   0.92649   0.20573   0.00000  Uiso   1.00
C357   C     0.23874   0.67691   0.14612   0.00000  Uiso   1.00
C358   C     0.25900   0.98992   0.18837   0.00000  Uiso   1.00
C359   C     0.16460   0.82999   0.16716   0.00000  Uiso   1.00
C360   C     0.33538   0.83368   0.16555   0.00000  Uiso   1.00
C361   C     0.41306   0.87780   0.19452   0.00000  Uiso   1.00
C362   C     0.08858   0.78443   0.13348   0.00000  Uiso   1.00
C363   C     0.38392   0.83391   0.16240   0.00000  Uiso   1.00
C364   C     0.11607   0.82841   0.16837   0.00000  Uiso   1.00
C365   C     0.40135   0.79092   0.12514   0.00000  Uiso   1.00
C366   C     0.09746   0.87201   0.20152   0.00000  Uiso   1.00
C367   C     0.44789   0.78678   0.12965   0.00000  Uiso   1.00
C368   C     0.05150   0.87610   0.19202   0.00000  Uiso   1.00
C369   C     0.47677   0.83182   0.15971   0.00000  Uiso   1.00
C370   C     0.02328   0.83061   0.16128   0.00000  Uiso   1.00
C371   C     0.45904   0.87857   0.18783   0.00000  Uiso   1.00
C372   C     0.04161   0.78447   0.13144   0.00000  Uiso   1.00
C373   C     0.46626   0.73950   0.10362   0.00000  Uiso   1.00
C374   C     0.03364   0.92534   0.20823   0.00000  Uiso   1.00
Cu375  Cu    0.25501   0.83913   0.22813   0.00000  Uiso   1.00
Cu376  Cu    0.24500   0.82754   0.10521   0.00000  Uiso   1.00
N377   N     0.23745   0.81881   0.01284   0.00000  Uiso   1.00
N378   N     0.26256   0.84786   0.32049   0.00000  Uiso   1.00
O379   O     0.25326   0.76204   0.20659   0.00000  Uiso   1.00
O380   O     0.24675   0.90462   0.12674   0.00000  Uiso   1.00
O381   O     0.24480   0.75226   0.10279   0.00000  Uiso   1.00
O382   O     0.25520   0.91441   0.23055   0.00000  Uiso   1.00
O383   O     0.18936   0.83821   0.21857   0.00000  Uiso   1.00
O384   O     0.31065   0.82845   0.11476   0.00000  Uiso   1.00
O385   O     0.18090   0.82843   0.11477   0.00000  Uiso   1.00
O386   O     0.31910   0.83824   0.21857   0.00000  Uiso   1.00
O387   O     0.39864   0.91769   0.23827   0.00000  Uiso   1.00
C388   C     0.36862   0.94616   0.21294   0.00000  Uiso   1.00
H389   H     0.33569   0.93755   0.22841   0.00000  Uiso   1.00
H390   H     0.36655   0.93806   0.16276   0.00000  Uiso   1.00
H391   H     0.37807   0.98878   0.23107   0.00000  Uiso   1.00
O392   O     0.10722   0.73784   0.11335   0.00000  Uiso   1.00
C393   C     0.12062   0.73349   0.05423   0.00000  Uiso   1.00
H394   H     0.15697   0.74253   0.05607   0.00000  Uiso   1.00
H395   H     0.10337   0.75786   0.02796   0.00000  Uiso   1.00
H396   H     0.11395   0.69181   0.02926   0.00000  Uiso   1.00
C397   C     0.37118   0.75318   0.07786   0.00000  Uiso   1.00
O398   O     0.37746   0.74944   0.02462   0.00000  Uiso   1.00
O399   O     0.33709   0.72036   0.09316   0.00000  Uiso   1.00
H400   H     0.33758   0.72352   0.13836   0.00000  Uiso   1.00
C401   C     0.12590   0.91211   0.24809   0.00000  Uiso   1.00
O402   O     0.11589   0.92228   0.30050   0.00000  Uiso   1.00
O403   O     0.16216   0.94038   0.23087   0.00000  Uiso   1.00
H404   H     0.17572   0.97091   0.26444   0.00000  Uiso   1.00
C405   C     0.43759   0.68868   0.08681   0.00000  Uiso   1.00
O406   O     0.41642   0.67436   0.12521   0.00000  Uiso   1.00
O407   O     0.43235   0.99229   0.02723   0.00000  Uiso   1.00
H408   H     0.41202   0.95858   0.02234   0.00000  Uiso   1.00
C409   C     0.06401   0.97475   0.21653   0.00000  Uiso   1.00
O410   O     0.06722   0.67475   0.26419   0.00000  Uiso   1.00
O411   O     0.09323   0.97967   0.17235   0.00000  Uiso   1.00
H412   H     0.11518   0.67897   0.18519   0.00000  Uiso   1.00
O413   O     0.02956   0.70053   0.05795   0.00000  Uiso   1.00
C414   C     0.02674   0.98487   0.07372   0.00000  Uiso   1.00
H415   H     0.00340   0.95582   0.04074   0.00000  Uiso   1.00
H416   H     0.01644   0.98656   0.11992   0.00000  Uiso   1.00
H417   H     0.05952   0.96939   0.06935   0.00000  Uiso   1.00
O418   O     0.46739   0.97166   0.20127   0.00000  Uiso   1.00
C419   C     0.47641   0.68008   0.25305   0.00000  Uiso   1.00
H420   H     0.49868   0.71196   0.24220   0.00000  Uiso   1.00
H421   H     0.49036   0.66777   0.29267   0.00000  Uiso   1.00
H422   H     0.44529   0.69753   0.26533   0.00000  Uiso   1.00
O423   O     0.20279   0.98114   0.10937   0.00000  Uiso   1.00
C424   C     0.21187   0.97392   0.04832   0.00000  Uiso   1.00
H425   H     0.24761   0.97124   0.04084   0.00000  Uiso   1.00
H426   H     0.19958   0.67267   0.03023   0.00000  Uiso   1.00
H427   H     0.19385   0.93617   0.02263   0.00000  Uiso   1.00
O428   O     0.29361   0.68633   0.22744   0.00000  Uiso   1.00
C429   C     0.28264   0.69302   0.28787   0.00000  Uiso   1.00
H430   H     0.29778   0.99703   0.30838   0.00000  Uiso   1.00
H431   H     0.24630   0.69117   0.29291   0.00000  Uiso   1.00
H432   H     0.29675   0.73276   0.31352   0.00000  Uiso   1.00
C433   C     0.19414   0.80246   0.31818   0.00000  Uiso   1.00
O434   O     0.16465   0.83124   0.33003   0.00000  Uiso   1.00
O435   O     0.18466   0.75264   0.27932   0.00000  Uiso   1.00
H436   H     0.15235   0.74547   0.26296   0.00000  Uiso   1.00
C437   C     0.30530   0.86731   0.01564   0.00000  Uiso   1.00
O438   O     0.33615   0.84032   0.00582   0.00000  Uiso   1.00
O439   O     0.31303   0.91908   0.04987   0.00000  Uiso   1.00
H440   H     0.34559   0.92993   0.06326   0.00000  Uiso   1.00
C441   C     0.74627   0.73331   0.15143   0.00000  Uiso   1.00
C442   C     0.75244   0.93338   0.18210   0.00000  Uiso   1.00
C443   C     0.51276   0.73949   0.10042   0.00000  Uiso   1.00
C444   C     0.98684   0.92649   0.20573   0.00000  Uiso   1.00
C445   C     0.73874   0.67691   0.14612   0.00000  Uiso   1.00
C446   C     0.75900   0.98992   0.18837   0.00000  Uiso   1.00
C447   C     0.66460   0.82999   0.16716   0.00000  Uiso   1.00
C448   C     0.83538   0.83368   0.16555   0.00000  Uiso   1.00
C449   C     0.91306   0.87780   0.19452   0.00000  Uiso   1.00
C450   C     0.58858   0.78443   0.13348   0.00000  Uiso   1.00
C451   C     0.88392   0.83391   0.16240   0.00000  Uiso   1.00
C452   C     0.61607   0.82841   0.16837   0.00000  Uiso   1.00
C453   C     0.90135   0.79092   0.12514   0.00000  Uiso   1.00
C454   C     0.59746   0.87201   0.20152   0.00000  Uiso   1.00
C455   C     0.94789   0.78678   0.12965   0.00000  Uiso   1.00
C456   C     0.55150   0.87610   0.19202   0.00000  Uiso   1.00
C457   C     0.97677   0.83182   0.15971   0.00000  Uiso   1.00
C458   C     0.52328   0.83061   0.16128   0.00000  Uiso   1.00
C459   C     0.95904   0.87857   0.18783   0.00000  Uiso   1.00
C460   C     0.54161   0.78447   0.13144   0.00000  Uiso   1.00
C461   C     0.96626   0.73950   0.10362   0.00000  Uiso   1.00
C462   C     0.53364   0.92534   0.20823   0.00000  Uiso   1.00
Cu463  Cu    0.75501   0.83913   0.22813   0.00000  Uiso   1.00
Cu464  Cu    0.74500   0.82754   0.10521   0.00000  Uiso   1.00
N465   N     0.73745   0.81881   0.01284   0.00000  Uiso   1.00
N466   N     0.76256   0.84786   0.32049   0.00000  Uiso   1.00
O467   O     0.75326   0.76204   0.20659   0.00000  Uiso   1.00
O468   O     0.74675   0.90462   0.12674   0.00000  Uiso   1.00
O469   O     0.74480   0.75226   0.10279   0.00000  Uiso   1.00
O470   O     0.75520   0.91441   0.23055   0.00000  Uiso   1.00
O471   O     0.68936   0.83821   0.21857   0.00000  Uiso   1.00
O472   O     0.81065   0.82845   0.11476   0.00000  Uiso   1.00
O473   O     0.68090   0.82843   0.11477   0.00000  Uiso   1.00
O474   O     0.81910   0.83824   0.21857   0.00000  Uiso   1.00
O475   O     0.89864   0.91769   0.23827   0.00000  Uiso   1.00
C476   C     0.86862   0.94616   0.21294   0.00000  Uiso   1.00
H477   H     0.83569   0.93755   0.22841   0.00000  Uiso   1.00
H478   H     0.86655   0.93806   0.16276   0.00000  Uiso   1.00
H479   H     0.87807   0.98878   0.23107   0.00000  Uiso   1.00
O480   O     0.60722   0.73784   0.11335   0.00000  Uiso   1.00
C481   C     0.62062   0.73349   0.05423   0.00000  Uiso   1.00
H482   H     0.65697   0.74253   0.05607   0.00000  Uiso   1.00
H483   H     0.60337   0.75786   0.02796   0.00000  Uiso   1.00
H484   H     0.61395   0.69181   0.02926   0.00000  Uiso   1.00
C485   C     0.87118   0.75318   0.07786   0.00000  Uiso   1.00
O486   O     0.87746   0.74944   0.02462   0.00000  Uiso   1.00
O487   O     0.83709   0.72036   0.09316   0.00000  Uiso   1.00
H488   H     0.83758   0.72352   0.13836   0.00000  Uiso   1.00
C489   C     0.62590   0.91211   0.24809   0.00000  Uiso   1.00
O490   O     0.61589   0.92228   0.30050   0.00000  Uiso   1.00
O491   O     0.66216   0.94038   0.23087   0.00000  Uiso   1.00
H492   H     0.67572   0.97091   0.26444   0.00000  Uiso   1.00
C493   C     0.93759   0.68868   0.08681   0.00000  Uiso   1.00
O494   O     0.91642   0.67436   0.12521   0.00000  Uiso   1.00
O495   O     0.93235   0.99229   0.02723   0.00000  Uiso   1.00
H496   H     0.91202   0.95858   0.02234   0.00000  Uiso   1.00
C497   C     0.56401   0.97475   0.21653   0.00000  Uiso   1.00
O498   O     0.56722   0.67475   0.26419   0.00000  Uiso   1.00
O499   O     0.59323   0.97967   0.17235   0.00000  Uiso   1.00
H500   H     0.61518   0.67897   0.18519   0.00000  Uiso   1.00
O501   O     0.52956   0.70053   0.05795   0.00000  Uiso   1.00
C502   C     0.52674   0.98487   0.07372   0.00000  Uiso   1.00
H503   H     0.50340   0.95582   0.04074   0.00000  Uiso   1.00
H504   H     0.51644   0.98656   0.11992   0.00000  Uiso   1.00
H505   H     0.55952   0.96939   0.06935   0.00000  Uiso   1.00
O506   O     0.96739   0.97166   0.20127   0.00000  Uiso   1.00
C507   C     0.97641   0.68008   0.25305   0.00000  Uiso   1.00
H508   H     0.99868   0.71196   0.24220   0.00000  Uiso   1.00
H509   H     0.99036   0.66777   0.29267   0.00000  Uiso   1.00
H510   H     0.94529   0.69753   0.26533   0.00000  Uiso   1.00
O511   O     0.70279   0.98114   0.10937   0.00000  Uiso   1.00
C512   C     0.71187   0.97392   0.04832   0.00000  Uiso   1.00
H513   H     0.74761   0.97124   0.04084   0.00000  Uiso   1.00
H514   H     0.69958   0.67267   0.03023   0.00000  Uiso   1.00
H515   H     0.69385   0.93617   0.02263   0.00000  Uiso   1.00
O516   O     0.79361   0.68633   0.22744   0.00000  Uiso   1.00
C517   C     0.78264   0.69302   0.28787   0.00000  Uiso   1.00
H518   H     0.79778   0.99703   0.30838   0.00000  Uiso   1.00
H519   H     0.74630   0.69117   0.29291   0.00000  Uiso   1.00
H520   H     0.79675   0.73276   0.31352   0.00000  Uiso   1.00
C521   C     0.69414   0.80246   0.31818   0.00000  Uiso   1.00
O522   O     0.66465   0.83124   0.33003   0.00000  Uiso   1.00
O523   O     0.68466   0.75264   0.27932   0.00000  Uiso   1.00
H524   H     0.65235   0.74547   0.26296   0.00000  Uiso   1.00
C525   C     0.80530   0.86731   0.01564   0.00000  Uiso   1.00
O526   O     0.83615   0.84032   0.00582   0.00000  Uiso   1.00
O527   O     0.81303   0.91908   0.04987   0.00000  Uiso   1.00
H528   H     0.84559   0.92993   0.06326   0.00000  Uiso   1.00
C529   C     0.24627   0.06664   0.48477   0.00000  Uiso   1.00
C530   C     0.25244   0.26671   0.51544   0.00000  Uiso   1.00
C531   C     0.01276   0.07282   0.43375   0.00000  Uiso   1.00
C532   C     0.48684   0.25983   0.53906   0.00000  Uiso   1.00
C533   C     0.23874   0.01025   0.47945   0.00000  Uiso   1.00
C534   C     0.25900   0.32325   0.52171   0.00000  Uiso   1.00
C535   C     0.16460   0.16333   0.50049   0.00000  Uiso   1.00
C536   C     0.33538   0.16701   0.49889   0.00000  Uiso   1.00
C537   C     0.41306   0.21113   0.52785   0.00000  Uiso   1.00
C538   C     0.08858   0.11776   0.46682   0.00000  Uiso   1.00
C539   C     0.38392   0.16724   0.49573   0.00000  Uiso   1.00
C540   C     0.11607   0.16174   0.50170   0.00000  Uiso   1.00
C541   C     0.40135   0.12426   0.45848   0.00000  Uiso   1.00
C542   C     0.09746   0.20535   0.53485   0.00000  Uiso   1.00
C543   C     0.44789   0.12011   0.46299   0.00000  Uiso   1.00
C544   C     0.05150   0.20943   0.52536   0.00000  Uiso   1.00
C545   C     0.47677   0.16515   0.49304   0.00000  Uiso   1.00
C546   C     0.02328   0.16394   0.49461   0.00000  Uiso   1.00
C547   C     0.45904   0.21191   0.52116   0.00000  Uiso   1.00
C548   C     0.04161   0.11781   0.46477   0.00000  Uiso   1.00
C549   C     0.46626   0.07284   0.43695   0.00000  Uiso   1.00
C550   C     0.03364   0.25867   0.54156   0.00000  Uiso   1.00
Cu551  Cu    0.25501   0.17246   0.56146   0.00000  Uiso   1.00
Cu552  Cu    0.24500   0.16087   0.43854   0.00000  Uiso   1.00
N553   N     0.23745   0.15214   0.34617   0.00000  Uiso   1.00
N554   N     0.26256   0.18119   0.65383   0.00000  Uiso   1.00
O555   O     0.25326   0.09538   0.53992   0.00000  Uiso   1.00
O556   O     0.24675   0.23796   0.46008   0.00000  Uiso   1.00
O557   O     0.24480   0.08559   0.43612   0.00000  Uiso   1.00
O558   O     0.25520   0.24774   0.56388   0.00000  Uiso   1.00
O559   O     0.18936   0.17155   0.55191   0.00000  Uiso   1.00
O560   O     0.31065   0.16179   0.44809   0.00000  Uiso   1.00
O561   O     0.18090   0.16176   0.44810   0.00000  Uiso   1.00
O562   O     0.31910   0.17157   0.55190   0.00000  Uiso   1.00
O563   O     0.39864   0.25102   0.57160   0.00000  Uiso   1.00
C564   C     0.36862   0.27950   0.54628   0.00000  Uiso   1.00
H565   H     0.33569   0.27088   0.56174   0.00000  Uiso   1.00
H566   H     0.36655   0.27140   0.49609   0.00000  Uiso   1.00
H567   H     0.37807   0.32211   0.56440   0.00000  Uiso   1.00
O568   O     0.10722   0.07117   0.44668   0.00000  Uiso   1.00
C569   C     0.12062   0.06682   0.38757   0.00000  Uiso   1.00
H570   H     0.15697   0.07586   0.38940   0.00000  Uiso   1.00
H571   H     0.10337   0.09119   0.36129   0.00000  Uiso   1.00
H572   H     0.11395   0.02514   0.36260   0.00000  Uiso   1.00
C573   C     0.37118   0.08652   0.41119   0.00000  Uiso   1.00
O574   O     0.37746   0.08277   0.35795   0.00000  Uiso   1.00
O575   O     0.33709   0.05369   0.42649   0.00000  Uiso   1.00
H576   H     0.33758   0.05685   0.47169   0.00000  Uiso   1.00
C577   C     0.12590   0.24544   0.58142   0.00000  Uiso   1.00
O578   O     0.11589   0.25561   0.63383   0.00000  Uiso   1.00
O579   O     0.16216   0.27372   0.56420   0.00000  Uiso   1.00
H580   H     0.17572   0.30425   0.59778   0.00000  Uiso   1.00
C581   C     0.43759   0.02202   0.42014   0.00000  Uiso   1.00
O582   O     0.41642   0.00770   0.45854   0.00000  Uiso   1.00
O583   O     0.43235   0.32563   0.36056   0.00000  Uiso   1.00
H584   H     0.41202   0.29191   0.35567   0.00000  Uiso   1.00
C585   C     0.06401   0.30808   0.54987   0.00000  Uiso   1.00
O586   O     0.06722   0.00809   0.59752   0.00000  Uiso   1.00
O587   O     0.09323   0.31300   0.50569   0.00000  Uiso   1.00
H588   H     0.11518   0.01230   0.51852   0.00000  Uiso   1.00
O589   O     0.02956   0.03386   0.39128   0.00000  Uiso   1.00
C590   C     0.02674   0.31821   0.40706   0.00000  Uiso   1.00
H591   H     0.00340   0.28916   0.37407   0.00000  Uiso   1.00
H592   H     0.01644   0.31990   0.45325   0.00000  Uiso   1.00
H593   H     0.05952   0.30272   0.40268   0.00000  Uiso   1.00
O594   O     0.46739   0.30499   0.53460   0.00000  Uiso   1.00
C595   C     0.47641   0.01341   0.58638   0.00000  Uiso   1.00
H596   H     0.49868   0.04529   0.57554   0.00000  Uiso   1.00
H597   H     0.49036   0.00110   0.62601   0.00000  Uiso   1.00
H598   H     0.44529   0.03086   0.59866   0.00000  Uiso   1.00
O599   O     0.20279   0.31448   0.44270   0.00000  Uiso   1.00
C600   C     0.21187   0.30725   0.38166   0.00000  Uiso   1.00
H601   H     0.24761   0.30458   0.37417   0.00000  Uiso   1.00
H602   H     0.19958   0.00601   0.36356   0.00000  Uiso   1.00
H603   H     0.19385   0.26951   0.35596   0.00000  Uiso   1.00
O604   O     0.29361   0.01967   0.56078   0.00000  Uiso   1.00
C605   C     0.28264   0.02635   0.62120   0.00000  Uiso   1.00
H606   H     0.29778   0.33036   0.64172   0.00000  Uiso   1.00
H607   H     0.24630   0.02450   0.62625   0.00000  Uiso   1.00
H608   H     0.29675   0.06609   0.64686   0.00000  Uiso   1.00
C609   C     0.19414   0.13579   0.65151   0.00000  Uiso   1.00
O610   O     0.16465   0.16457   0.66337   0.00000  Uiso   1.00
O611   O     0.18466   0.08597   0.61266   0.00000  Uiso   1.00
H612   H     0.15235   0.07880   0.59629   0.00000  Uiso   1.00
C613   C     0.30530   0.20065   0.34897   0.00000  Uiso   1.00
O614   O     0.33615   0.17366   0.33916   0.00000  Uiso   1.00
O615   O     0.31303   0.25241   0.38321   0.00000  Uiso   1.00
H616   H     0.34559   0.26326   0.39659   0.00000  Uiso   1.00
C617   C     0.74627   0.06664   0.48477   0.00000  Uiso   1.00
C618   C     0.75244   0.26671   0.51544   0.00000  Uiso   1.00
C619   C     0.51276   0.07282   0.43375   0.00000  Uiso   1.00
C620   C     0.98684   0.25983   0.53906   0.00000  Uiso   1.00
C621   C     0.73874   0.01025   0.47945   0.00000  Uiso   1.00
C622   C     0.75900   0.32325   0.52171   0.00000  Uiso   1.00
C623   C     0.66460   0.16333   0.50049   0.00000  Uiso   1.00
C624   C     0.83538   0.16701   0.49889   0.00000  Uiso   1.00
C625   C     0.91306   0.21113   0.52785   0.00000  Uiso   1.00
C626   C     0.58858   0.11776   0.46682   0.00000  Uiso   1.00
C627   C     0.88392   0.16724   0.49573   0.00000  Uiso   1.00
C628   C     0.61607   0.16174   0.50170   0.00000  Uiso   1.00
C629   C     0.90135   0.12426   0.45848   0.00000  Uiso   1.00
C630   C     0.59746   0.20535   0.53485   0.00000  Uiso   1.00
C631   C     0.94789   0.12011   0.46299   0.00000  Uiso   1.00
C632   C     0.55150   0.20943   0.52536   0.00000  Uiso   1.00
C633   C     0.97677   0.16515   0.49304   0.00000  Uiso   1.00
C634   C     0.52328   0.16394   0.49461   0.00000  Uiso   1.00
C635   C     0.95904   0.21191   0.52116   0.00000  Uiso   1.00
C636   C     0.54161   0.11781   0.46477   0.00000  Uiso   1.00
C637   C     0.96626   0.07284   0.43695   0.00000  Uiso   1.00
C638   C     0.53364   0.25867   0.54156   0.00000  Uiso   1.00
Cu639  Cu    0.75501   0.17246   0.56146   0.00000  Uiso   1.00
Cu640  Cu    0.74500   0.16087   0.43854   0.00000  Uiso   1.00
N641   N     0.73745   0.15214   0.34617   0.00000  Uiso   1.00
N642   N     0.76256   0.18119   0.65383   0.00000  Uiso   1.00
O643   O     0.75326   0.09538   0.53992   0.00000  Uiso   1.00
O644   O     0.74675   0.23796   0.46008   0.00000  Uiso   1.00
O645   O     0.74480   0.08559   0.43612   0.00000  Uiso   1.00
O646   O     0.75520   0.24774   0.56388   0.00000  Uiso   1.00
O647   O     0.68936   0.17155   0.55191   0.00000  Uiso   1.00
O648   O     0.81065   0.16179   0.44809   0.00000  Uiso   1.00
O649   O     0.68090   0.16176   0.44810   0.00000  Uiso   1.00
O650   O     0.81910   0.17157   0.55190   0.00000  Uiso   1.00
O651   O     0.89864   0.25102   0.57160   0.00000  Uiso   1.00
C652   C     0.86862   0.27950   0.54628   0.00000  Uiso   1.00
H653   H     0.83569   0.27088   0.56174   0.00000  Uiso   1.00
H654   H     0.86655   0.27140   0.49609   0.00000  Uiso   1.00
H655   H     0.87807   0.32211   0.56440   0.00000  Uiso   1.00
O656   O     0.60722   0.07117   0.44668   0.00000  Uiso   1.00
C657   C     0.62062   0.06682   0.38757   0.00000  Uiso   1.00
H658   H     0.65697   0.07586   0.38940   0.00000  Uiso   1.00
H659   H     0.60337   0.09119   0.36129   0.00000  Uiso   1.00
H660   H     0.61395   0.02514   0.36260   0.00000  Uiso   1.00
C661   C     0.87118   0.08652   0.41119   0.00000  Uiso   1.00
O662   O     0.87746   0.08277   0.35795   0.00000  Uiso   1.00
O663   O     0.83709   0.05369   0.42649   0.00000  Uiso   1.00
H664   H     0.83758   0.05685   0.47169   0.00000  Uiso   1.00
C665   C     0.62590   0.24544   0.58142   0.00000  Uiso   1.00
O666   O     0.61589   0.25561   0.63383   0.00000  Uiso   1.00
O667   O     0.66216   0.27372   0.56420   0.00000  Uiso   1.00
H668   H     0.67572   0.30425   0.59778   0.00000  Uiso   1.00
C669   C     0.93759   0.02202   0.42014   0.00000  Uiso   1.00
O670   O     0.91642   0.00770   0.45854   0.00000  Uiso   1.00
O671   O     0.93235   0.32563   0.36056   0.00000  Uiso   1.00
H672   H     0.91202   0.29191   0.35567   0.00000  Uiso   1.00
C673   C     0.56401   0.30808   0.54987   0.00000  Uiso   1.00
O674   O     0.56722   0.00809   0.59752   0.00000  Uiso   1.00
O675   O     0.59323   0.31300   0.50569   0.00000  Uiso   1.00
H676   H     0.61518   0.01230   0.51852   0.00000  Uiso   1.00
O677   O     0.52956   0.03386   0.39128   0.00000  Uiso   1.00
C678   C     0.52674   0.31821   0.40706   0.00000  Uiso   1.00
H679   H     0.50340   0.28916   0.37407   0.00000  Uiso   1.00
H680   H     0.51644   0.31990   0.45325   0.00000  Uiso   1.00
H681   H     0.55952   0.30272   0.40268   0.00000  Uiso   1.00
O682   O     0.96739   0.30499   0.53460   0.00000  Uiso   1.00
C683   C     0.97641   0.01341   0.58638   0.00000  Uiso   1.00
H684   H     0.99868   0.04529   0.57554   0.00000  Uiso   1.00
H685   H     0.99036   0.00110   0.62601   0.00000  Uiso   1.00
H686   H     0.94529   0.03086   0.59866   0.00000  Uiso   1.00
O687   O     0.70279   0.31448   0.44270   0.00000  Uiso   1.00
C688   C     0.71187   0.30725   0.38166   0.00000  Uiso   1.00
H689   H     0.74761   0.30458   0.37417   0.00000  Uiso   1.00
H690   H     0.69958   0.00601   0.36356   0.00000  Uiso   1.00
H691   H     0.69385   0.26951   0.35596   0.00000  Uiso   1.00
O692   O     0.79361   0.01967   0.56078   0.00000  Uiso   1.00
C693   C     0.78264   0.02635   0.62120   0.00000  Uiso   1.00
H694   H     0.79778   0.33036   0.64172   0.00000  Uiso   1.00
H695   H     0.74630   0.02450   0.62625   0.00000  Uiso   1.00
H696   H     0.79675   0.06609   0.64686   0.00000  Uiso   1.00
C697   C     0.69414   0.13579   0.65151   0.00000  Uiso   1.00
O698   O     0.66465   0.16457   0.66337   0.00000  Uiso   1.00
O699   O     0.68466   0.08597   0.61266   0.00000  Uiso   1.00
H700   H     0.65235   0.07880   0.59629   0.00000  Uiso   1.00
C701   C     0.80530   0.20065   0.34897   0.00000  Uiso   1.00
O702   O     0.83615   0.17366   0.33916   0.00000  Uiso   1.00
O703   O     0.81303   0.25241   0.38321   0.00000  Uiso   1.00
H704   H     0.84559   0.26326   0.39659   0.00000  Uiso   1.00
C705   C     0.24627   0.39998   0.48477   0.00000  Uiso   1.00
C706   C     0.25244   0.60005   0.51544   0.00000  Uiso   1.00
C707   C     0.01276   0.40616   0.43375   0.00000  Uiso   1.00
C708   C     0.48684   0.59316   0.53906   0.00000  Uiso   1.00
C709   C     0.23874   0.34358   0.47945   0.00000  Uiso   1.00
C710   C     0.25900   0.65659   0.52171   0.00000  Uiso   1.00
C711   C     0.16460   0.49666   0.50049   0.00000  Uiso   1.00
C712   C     0.33538   0.50035   0.49889   0.00000  Uiso   1.00
C713   C     0.41306   0.54447   0.52785   0.00000  Uiso   1.00
C714   C     0.08858   0.45109   0.46682   0.00000  Uiso   1.00
C715   C     0.38392   0.50057   0.49573   0.00000  Uiso   1.00
C716   C     0.11607   0.49508   0.50170   0.00000  Uiso   1.00
C717   C     0.40135   0.45759   0.45848   0.00000  Uiso   1.00
C718   C     0.09746   0.53868   0.53485   0.00000  Uiso   1.00
C719   C     0.44789   0.45345   0.46299   0.00000  Uiso   1.00
C720   C     0.05150   0.54277   0.52536   0.00000  Uiso   1.00
C721   C     0.47677   0.49848   0.49304   0.00000  Uiso   1.00
C722   C     0.02328   0.49727   0.49461   0.00000  Uiso   1.00
C723   C     0.45904   0.54524   0.52116   0.00000  Uiso   1.00
C724   C     0.04161   0.45114   0.46477   0.00000  Uiso   1.00
C725   C     0.46626   0.40617   0.43695   0.00000  Uiso   1.00
C726   C     0.03364   0.59201   0.54156   0.00000  Uiso   1.00
Cu727  Cu    0.25501   0.50579   0.56146   0.00000  Uiso   1.00
Cu728  Cu    0.24500   0.49421   0.43854   0.00000  Uiso   1.00
N729   N     0.23745   0.48547   0.34617   0.00000  Uiso   1.00
N730   N     0.26256   0.51453   0.65383   0.00000  Uiso   1.00
O731   O     0.25326   0.42871   0.53992   0.00000  Uiso   1.00
O732   O     0.24675   0.57129   0.46008   0.00000  Uiso   1.00
O733   O     0.24480   0.41892   0.43612   0.00000  Uiso   1.00
O734   O     0.25520   0.58108   0.56388   0.00000  Uiso   1.00
O735   O     0.18936   0.50488   0.55191   0.00000  Uiso   1.00
O736   O     0.31065   0.49512   0.44809   0.00000  Uiso   1.00
O737   O     0.18090   0.49510   0.44810   0.00000  Uiso   1.00
O738   O     0.31910   0.50490   0.55190   0.00000  Uiso   1.00
O739   O     0.39864   0.58436   0.57160   0.00000  Uiso   1.00
C740   C     0.36862   0.61283   0.54628   0.00000  Uiso   1.00
H741   H     0.33569   0.60421   0.56174   0.00000  Uiso   1.00
H742   H     0.36655   0.60473   0.49609   0.00000  Uiso   1.00
H743   H     0.37807   0.65544   0.56440   0.00000  Uiso   1.00
O744   O     0.10722   0.40450   0.44668   0.00000  Uiso   1.00
C745   C     0.12062   0.40016   0.38757   0.00000  Uiso   1.00
H746   H     0.15697   0.40919   0.38940   0.00000  Uiso   1.00
H747   H     0.10337   0.42453   0.36129   0.00000  Uiso   1.00
H748   H     0.11395   0.35848   0.36260   0.00000  Uiso   1.00
C749   C     0.37118   0.41985   0.41119   0.00000  Uiso   1.00
O750   O     0.37746   0.41610   0.35795   0.00000  Uiso   1.00
O751   O     0.33709   0.38703   0.42649   0.00000  Uiso   1.00
H752   H     0.33758   0.39019   0.47169   0.00000  Uiso   1.00
C753   C     0.12590   0.57878   0.58142   0.00000  Uiso   1.00
O754   O     0.11589   0.58895   0.63383   0.00000  Uiso   1.00
O755   O     0.16216   0.60705   0.56420   0.00000  Uiso   1.00
H756   H     0.17572   0.63758   0.59778   0.00000  Uiso   1.00
C757   C     0.43759   0.35535   0.42014   0.00000  Uiso   1.00
O758   O     0.41642   0.34103   0.45854   0.00000  Uiso   1.00
O759   O     0.43235   0.65896   0.36056   0.00000  Uiso   1.00
H760   H     0.41202   0.62524   0.35567   0.00000  Uiso   1.00
C761   C     0.06401   0.64142   0.54987   0.00000  Uiso   1.00
O762   O     0.06722   0.34142   0.59752   0.00000  Uiso   1.00
O763   O     0.09323   0.64634   0.50569   0.00000  Uiso   1.00
H764   H     0.11518   0.34564   0.51852   0.00000  Uiso   1.00
O765   O     0.02956   0.36719   0.39128   0.00000  Uiso   1.00
C766   C     0.02674   0.65154   0.40706   0.00000  Uiso   1.00
H767   H     0.00340   0.62249   0.37407   0.00000  Uiso   1.00
H768   H     0.01644   0.65323   0.45325   0.00000  Uiso   1.00
H769   H     0.05952   0.63605   0.40268   0.00000  Uiso   1.00
O770   O     0.46739   0.63832   0.53460   0.00000  Uiso   1.00
C771   C     0.47641   0.34675   0.58638   0.00000  Uiso   1.00
H772   H     0.49868   0.37862   0.57554   0.00000  Uiso   1.00
H773   H     0.49036   0.33444   0.62601   0.00000  Uiso   1.00
H774   H     0.44529   0.36419   0.59866   0.00000  Uiso   1.00
O775   O     0.20279   0.64781   0.44270   0.00000  Uiso   1.00
C776   C     0.21187   0.64058   0.38166   0.00000  Uiso   1.00
H777   H     0.24761   0.63791   0.37417   0.00000  Uiso   1.00
H778   H     0.19958   0.33934   0.36356   0.00000  Uiso   1.00
H779   H     0.19385   0.60284   0.35596   0.00000  Uiso   1.00
O780   O     0.29361   0.35300   0.56078   0.00000  Uiso   1.00
C781   C     0.28264   0.35969   0.62120   0.00000  Uiso   1.00
H782   H     0.29778   0.66370   0.64172   0.00000  Uiso   1.00
H783   H     0.24630   0.35783   0.62625   0.00000  Uiso   1.00
H784   H     0.29675   0.39942   0.64686   0.00000  Uiso   1.00
C785   C     0.19414   0.46913   0.65151   0.00000  Uiso   1.00
O786   O     0.16465   0.49791   0.66337   0.00000  Uiso   1.00
O787   O     0.18466   0.41931   0.61266   0.00000  Uiso   1.00
H788   H     0.15235   0.41214   0.59629   0.00000  Uiso   1.00
C789   C     0.30530   0.53398   0.34897   0.00000  Uiso   1.00
O790   O     0.33615   0.50699   0.33916   0.00000  Uiso   1.00
O791   O     0.31303   0.58575   0.38321   0.00000  Uiso   1.00
H792   H     0.34559   0.59660   0.39659   0.00000  Uiso   1.00
C793   C     0.74627   0.39998   0.48477   0.00000  Uiso   1.00
C794   C     0.75244   0.60005   0.51544   0.00000  Uiso   1.00
C795   C     0.51276   0.40616   0.43375   0.00000  Uiso   1.00
C796   C     0.98684   0.59316   0.53906   0.00000  Uiso   1.00
C797   C     0.73874   0.34358   0.47945   0.00000  Uiso   1.00
C798   C     0.75900   0.65659   0.52171   0.00000  Uiso   1.00
C799   C     0.66460   0.49666   0.50049   0.00000  Uiso   1.00
C800   C     0.83538   0.50035   0.49889   0.00000  Uiso   1.00
C801   C     0.91306   0.54447   0.52785   0.00000  Uiso   1.00
C802   C     0.58858   0.45109   0.46682   0.00000  Uiso   1.00
C803   C     0.88392   0.50057   0.49573   0.00000  Uiso   1.00
C804   C     0.61607   0.49508   0.50170   0.00000  Uiso   1.00
C805   C     0.90135   0.45759   0.45848   0.00000  Uiso   1.00
C806   C     0.59746   0.53868   0.53485   0.00000  Uiso   1.00
C807   C     0.94789   0.45345   0.46299   0.00000  Uiso   1.00
C808   C     0.55150   0.54277   0.52536   0.00000  Uiso   1.00
C809   C     0.97677   0.49848   0.49304   0.00000  Uiso   1.00
C810   C     0.52328   0.49727   0.49461   0.00000  Uiso   1.00
C811   C     0.95904   0.54524   0.52116   0.00000  Uiso   1.00
C812   C     0.54161   0.45114   0.46477   0.00000  Uiso   1.00
C813   C     0.96626   0.40617   0.43695   0.00000  Uiso   1.00
C814   C     0.53364   0.59201   0.54156   0.00000  Uiso   1.00
Cu815  Cu    0.75501   0.50579   0.56146   0.00000  Uiso   1.00
Cu816  Cu    0.74500   0.49421   0.43854   0.00000  Uiso   1.00
N817   N     0.73745   0.48547   0.34617   0.00000  Uiso   1.00
N818   N     0.76256   0.51453   0.65383   0.00000  Uiso   1.00
O819   O     0.75326   0.42871   0.53992   0.00000  Uiso   1.00
O820   O     0.74675   0.57129   0.46008   0.00000  Uiso   1.00
O821   O     0.74480   0.41892   0.43612   0.00000  Uiso   1.00
O822   O     0.75520   0.58108   0.56388   0.00000  Uiso   1.00
O823   O     0.68936   0.50488   0.55191   0.00000  Uiso   1.00
O824   O     0.81065   0.49512   0.44809   0.00000  Uiso   1.00
O825   O     0.68090   0.49510   0.44810   0.00000  Uiso   1.00
O826   O     0.81910   0.50490   0.55190   0.00000  Uiso   1.00
O827   O     0.89864   0.58436   0.57160   0.00000  Uiso   1.00
C828   C     0.86862   0.61283   0.54628   0.00000  Uiso   1.00
H829   H     0.83569   0.60421   0.56174   0.00000  Uiso   1.00
H830   H     0.86655   0.60473   0.49609   0.00000  Uiso   1.00
H831   H     0.87807   0.65544   0.56440   0.00000  Uiso   1.00
O832   O     0.60722   0.40450   0.44668   0.00000  Uiso   1.00
C833   C     0.62062   0.40016   0.38757   0.00000  Uiso   1.00
H834   H     0.65697   0.40919   0.38940   0.00000  Uiso   1.00
H835   H     0.60337   0.42453   0.36129   0.00000  Uiso   1.00
H836   H     0.61395   0.35848   0.36260   0.00000  Uiso   1.00
C837   C     0.87118   0.41985   0.41119   0.00000  Uiso   1.00
O838   O     0.87746   0.41610   0.35795   0.00000  Uiso   1.00
O839   O     0.83709   0.38703   0.42649   0.00000  Uiso   1.00
H840   H     0.83758   0.39019   0.47169   0.00000  Uiso   1.00
C841   C     0.62590   0.57878   0.58142   0.00000  Uiso   1.00
O842   O     0.61589   0.58895   0.63383   0.00000  Uiso   1.00
O843   O     0.66216   0.60705   0.56420   0.00000  Uiso   1.00
H844   H     0.67572   0.63758   0.59778   0.00000  Uiso   1.00
C845   C     0.93759   0.35535   0.42014   0.00000  Uiso   1.00
O846   O     0.91642   0.34103   0.45854   0.00000  Uiso   1.00
O847   O     0.93235   0.65896   0.36056   0.00000  Uiso   1.00
H848   H     0.91202   0.62524   0.35567   0.00000  Uiso   1.00
C849   C     0.56401   0.64142   0.54987   0.00000  Uiso   1.00
O850   O     0.56722   0.34142   0.59752   0.00000  Uiso   1.00
O851   O     0.59323   0.64634   0.50569   0.00000  Uiso   1.00
H852   H     0.61518   0.34564   0.51852   0.00000  Uiso   1.00
O853   O     0.52956   0.36719   0.39128   0.00000  Uiso   1.00
C854   C     0.52674   0.65154   0.40706   0.00000  Uiso   1.00
H855   H     0.50340   0.62249   0.37407   0.00000  Uiso   1.00
H856   H     0.51644   0.65323   0.45325   0.00000  Uiso   1.00
H857   H     0.55952   0.63605   0.40268   0.00000  Uiso   1.00
O858   O     0.96739   0.63832   0.53460   0.00000  Uiso   1.00
C859   C     0.97641   0.34675   0.58638   0.00000  Uiso   1.00
H860   H     0.99868   0.37862   0.57554   0.00000  Uiso   1.00
H861   H     0.99036   0.33444   0.62601   0.00000  Uiso   1.00
H862   H     0.94529   0.36419   0.59866   0.00000  Uiso   1.00
O863   O     0.70279   0.64781   0.44270   0.00000  Uiso   1.00
C864   C     0.71187   0.64058   0.38166   0.00000  Uiso   1.00
H865   H     0.74761   0.63791   0.37417   0.00000  Uiso   1.00
H866   H     0.69958   0.33934   0.36356   0.00000  Uiso   1.00
H867   H     0.69385   0.60284   0.35596   0.00000  Uiso   1.00
O868   O     0.79361   0.35300   0.56078   0.00000  Uiso   1.00
C869   C     0.78264   0.35969   0.62120   0.00000  Uiso   1.00
H870   H     0.79778   0.66370   0.64172   0.00000  Uiso   1.00
H871   H     0.74630   0.35783   0.62625   0.00000  Uiso   1.00
H872   H     0.79675   0.39942   0.64686   0.00000  Uiso   1.00
C873   C     0.69414   0.46913   0.65151   0.00000  Uiso   1.00
O874   O     0.66465   0.49791   0.66337   0.00000  Uiso   1.00
O875   O     0.68466   0.41931   0.61266   0.00000  Uiso   1.00
H876   H     0.65235   0.41214   0.59629   0.00000  Uiso   1.00
C877   C     0.80530   0.53398   0.34897   0.00000  Uiso   1.00
O878   O     0.83615   0.50699   0.33916   0.00000  Uiso   1.00
O879   O     0.81303   0.58575   0.38321   0.00000  Uiso   1.00
H880   H     0.84559   0.59660   0.39659   0.00000  Uiso   1.00
C881   C     0.24627   0.73331   0.48477   0.00000  Uiso   1.00
C882   C     0.25244   0.93338   0.51544   0.00000  Uiso   1.00
C883   C     0.01276   0.73949   0.43375   0.00000  Uiso   1.00
C884   C     0.48684   0.92649   0.53906   0.00000  Uiso   1.00
C885   C     0.23874   0.67691   0.47945   0.00000  Uiso   1.00
C886   C     0.25900   0.98992   0.52171   0.00000  Uiso   1.00
C887   C     0.16460   0.82999   0.50049   0.00000  Uiso   1.00
C888   C     0.33538   0.83368   0.49889   0.00000  Uiso   1.00
C889   C     0.41306   0.87780   0.52785   0.00000  Uiso   1.00
C890   C     0.08858   0.78443   0.46682   0.00000  Uiso   1.00
C891   C     0.38392   0.83391   0.49573   0.00000  Uiso   1.00
C892   C     0.11607   0.82841   0.50170   0.00000  Uiso   1.00
C893   C     0.40135   0.79092   0.45848   0.00000  Uiso   1.00
C894   C     0.09746   0.87201   0.53485   0.00000  Uiso   1.00
C895   C     0.44789   0.78678   0.46299   0.00000  Uiso   1.00
C896   C     0.05150   0.87610   0.52536   0.00000  Uiso   1.00
C897   C     0.47677   0.83182   0.49304   0.00000  Uiso   1.00
C898   C     0.02328   0.83061   0.49461   0.00000  Uiso   1.00
C899   C     0.45904   0.87857   0.52116   0.00000  Uiso   1.00
C900   C     0.04161   0.78447   0.46477   0.00000  Uiso   1.00
C901   C     0.46626   0.73950   0.43695   0.00000  Uiso   1.00
C902   C     0.03364   0.92534   0.54156   0.00000  Uiso   1.00
Cu903  Cu    0.25501   0.83913   0.56146   0.00000  Uiso   1.00
Cu904  Cu    0.24500   0.82754   0.43854   0.00000  Uiso   1.00
N905   N     0.23745   0.81881   0.34617   0.00000  Uiso   1.00
N906   N     0.26256   0.84786   0.65383   0.00000  Uiso   1.00
O907   O     0.25326   0.76204   0.53992   0.00000  Uiso   1.00
O908   O     0.24675   0.90462   0.46008   0.00000  Uiso   1.00
O909   O     0.24480   0.75226   0.43612   0.00000  Uiso   1.00
O910   O     0.25520   0.91441   0.56388   0.00000  Uiso   1.00
O911   O     0.18936   0.83821   0.55191   0.00000  Uiso   1.00
O912   O     0.31065   0.82845   0.44809   0.00000  Uiso   1.00
O913   O     0.18090   0.82843   0.44810   0.00000  Uiso   1.00
O914   O     0.31910   0.83824   0.55190   0.00000  Uiso   1.00
O915   O     0.39864   0.91769   0.57160   0.00000  Uiso   1.00
C916   C     0.36862   0.94616   0.54628   0.00000  Uiso   1.00
H917   H     0.33569   0.93755   0.56174   0.00000  Uiso   1.00
H918   H     0.36655   0.93806   0.49609   0.00000  Uiso   1.00
H919   H     0.37807   0.98878   0.56440   0.00000  Uiso   1.00
O920   O     0.10722   0.73784   0.44668   0.00000  Uiso   1.00
C921   C     0.12062   0.73349   0.38757   0.00000  Uiso   1.00
H922   H     0.15697   0.74253   0.38940   0.00000  Uiso   1.00
H923   H     0.10337   0.75786   0.36129   0.00000  Uiso   1.00
H924   H     0.11395   0.69181   0.36260   0.00000  Uiso   1.00
C925   C     0.37118   0.75318   0.41119   0.00000  Uiso   1.00
O926   O     0.37746   0.74944   0.35795   0.00000  Uiso   1.00
O927   O     0.33709   0.72036   0.42649   0.00000  Uiso   1.00
H928   H     0.33758   0.72352   0.47169   0.00000  Uiso   1.00
C929   C     0.12590   0.91211   0.58142   0.00000  Uiso   1.00
O930   O     0.11589   0.92228   0.63383   0.00000  Uiso   1.00
O931   O     0.16216   0.94038   0.56420   0.00000  Uiso   1.00
H932   H     0.17572   0.97091   0.59778   0.00000  Uiso   1.00
C933   C     0.43759   0.68868   0.42014   0.00000  Uiso   1.00
O934   O     0.41642   0.67436   0.45854   0.00000  Uiso   1.00
O935   O     0.43235   0.99229   0.36056   0.00000  Uiso   1.00
H936   H     0.41202   0.95858   0.35567   0.00000  Uiso   1.00
C937   C     0.06401   0.97475   0.54987   0.00000  Uiso   1.00
O938   O     0.06722   0.67475   0.59752   0.00000  Uiso   1.00
O939   O     0.09323   0.97967   0.50569   0.00000  Uiso   1.00
H940   H     0.11518   0.67897   0.51852   0.00000  Uiso   1.00
O941   O     0.02956   0.70053   0.39128   0.00000  Uiso   1.00
C942   C     0.02674   0.98487   0.40706   0.00000  Uiso   1.00
H943   H     0.00340   0.95582   0.37407   0.00000  Uiso   1.00
H944   H     0.01644   0.98656   0.45325   0.00000  Uiso   1.00
H945   H     0.05952   0.96939   0.40268   0.00000  Uiso   1.00
O946   O     0.46739   0.97166   0.53460   0.00000  Uiso   1.00
C947   C     0.47641   0.68008   0.58638   0.00000  Uiso   1.00
H948   H     0.49868   0.71196   0.57554   0.00000  Uiso   1.00
H949   H     0.49036   0.66777   0.62601   0.00000  Uiso   1.00
H950   H     0.44529   0.69753   0.59866   0.00000  Uiso   1.00
O951   O     0.20279   0.98114   0.44270   0.00000  Uiso   1.00
C952   C     0.21187   0.97392   0.38166   0.00000  Uiso   1.00
H953   H     0.24761   0.97124   0.37417   0.00000  Uiso   1.00
H954   H     0.19958   0.67267   0.36356   0.00000  Uiso   1.00
H955   H     0.19385   0.93617   0.35596   0.00000  Uiso   1.00
O956   O     0.29361   0.68633   0.56078   0.00000  Uiso   1.00
C957   C     0.28264   0.69302   0.62120   0.00000  Uiso   1.00
H958   H     0.29778   0.99703   0.64172   0.00000  Uiso   1.00
H959   H     0.24630   0.69117   0.62625   0.00000  Uiso   1.00
H960   H     0.29675   0.73276   0.64686   0.00000  Uiso   1.00
C961   C     0.19414   0.80246   0.65151   0.00000  Uiso   1.00
O962   O     0.16465   0.83124   0.66337   0.00000  Uiso   1.00
O963   O     0.18466   0.75264   0.61266   0.00000  Uiso   1.00
H964   H     0.15235   0.74547   0.59629   0.00000  Uiso   1.00
C965   C     0.30530   0.86731   0.34897   0.00000  Uiso   1.00
O966   O     0.33615   0.84032   0.33916   0.00000  Uiso   1.00
O967   O     0.31303   0.91908   0.38321   0.00000  Uiso   1.00
H968   H     0.34559   0.92993   0.39659   0.00000  Uiso   1.00
C969   C     0.74627   0.73331   0.48477   0.00000  Uiso   1.00
C970   C     0.75244   0.93338   0.51544   0.00000  Uiso   1.00
C971   C     0.51276   0.73949   0.43375   0.00000  Uiso   1.00
C972   C     0.98684   0.92649   0.53906   0.00000  Uiso   1.00
C973   C     0.73874   0.67691   0.47945   0.00000  Uiso   1.00
C974   C     0.75900   0.98992   0.52171   0.00000  Uiso   1.00
C975   C     0.66460   0.82999   0.50049   0.00000  Uiso   1.00
C976   C     0.83538   0.83368   0.49889   0.00000  Uiso   1.00
C977   C     0.91306   0.87780   0.52785   0.00000  Uiso   1.00
C978   C     0.58858   0.78443   0.46682   0.00000  Uiso   1.00
C979   C     0.88392   0.83391   0.49573   0.00000  Uiso   1.00
C980   C     0.61607   0.82841   0.50170   0.00000  Uiso   1.00
C981   C     0.90135   0.79092   0.45848   0.00000  Uiso   1.00
C982   C     0.59746   0.87201   0.53485   0.00000  Uiso   1.00
C983   C     0.94789   0.78678   0.46299   0.00000  Uiso   1.00
C984   C     0.55150   0.87610   0.52536   0.00000  Uiso   1.00
C985   C     0.97677   0.83182   0.49304   0.00000  Uiso   1.00
C986   C     0.52328   0.83061   0.49461   0.00000  Uiso   1.00
C987   C     0.95904   0.87857   0.52116   0.00000  Uiso   1.00
C988   C     0.54161   0.78447   0.46477   0.00000  Uiso   1.00
C989   C     0.96626   0.73950   0.43695   0.00000  Uiso   1.00
C990   C     0.53364   0.92534   0.54156   0.00000  Uiso   1.00
Cu991  Cu    0.75501   0.83913   0.56146   0.00000  Uiso   1.00
Cu992  Cu    0.74500   0.82754   0.43854   0.00000  Uiso   1.00
N993   N     0.73745   0.81881   0.34617   0.00000  Uiso   1.00
N994   N     0.76256   0.84786   0.65383   0.00000  Uiso   1.00
O995   O     0.75326   0.76204   0.53992   0.00000  Uiso   1.00
O996   O     0.74675   0.90462   0.46008   0.00000  Uiso   1.00
O997   O     0.74480   0.75226   0.43612   0.00000  Uiso   1.00
O998   O     0.75520   0.91441   0.56388   0.00000  Uiso   1.00
O999   O     0.68936   0.83821   0.55191   0.00000  Uiso   1.00
O1000  O     0.81065   0.82845   0.44809   0.00000  Uiso   1.00
O1001  O     0.68090   0.82843   0.44810   0.00000  Uiso   1.00
O1002  O     0.81910   0.83824   0.55190   0.00000  Uiso   1.00
O1003  O     0.89864   0.91769   0.57160   0.00000  Uiso   1.00
C1004  C     0.86862   0.94616   0.54628   0.00000  Uiso   1.00
H1005  H     0.83569   0.93755   0.56174   0.00000  Uiso   1.00
H1006  H     0.86655   0.93806   0.49609   0.00000  Uiso   1.00
H1007  H     0.87807   0.98878   0.56440   0.00000  Uiso   1.00
O1008  O     0.60722   0.73784   0.44668   0.00000  Uiso   1.00
C1009  C     0.62062   0.73349   0.38757   0.00000  Uiso   1.00
H1010  H     0.65697   0.74253   0.38940   0.00000  Uiso   1.00
H1011  H     0.60337   0.75786   0.36129   0.00000  Uiso   1.00
H1012  H     0.61395   0.69181   0.36260   0.00000  Uiso   1.00
C1013  C     0.87118   0.75318   0.41119   0.00000  Uiso   1.00
O1014  O     0.87746   0.74944   0.35795   0.00000  Uiso   1.00
O1015  O     0.83709   0.72036   0.42649   0.00000  Uiso   1.00
H1016  H     0.83758   0.72352   0.47169   0.00000  Uiso   1.00
C1017  C     0.62590   0.91211   0.58142   0.00000  Uiso   1.00
O1018  O     0.61589   0.92228   0.63383   0.00000  Uiso   1.00
O1019  O     0.66216   0.94038   0.56420   0.00000  Uiso   1.00
H1020  H     0.67572   0.97091   0.59778   0.00000  Uiso   1.00
C1021  C     0.93759   0.68868   0.42014   0.00000  Uiso   1.00
O1022  O     0.91642   0.67436   0.45854   0.00000  Uiso   1.00
O1023  O     0.93235   0.99229   0.36056   0.00000  Uiso   1.00
H1024  H     0.91202   0.95858   0.35567   0.00000  Uiso   1.00
C1025  C     0.56401   0.97475   0.54987   0.00000  Uiso   1.00
O1026  O     0.56722   0.67475   0.59752   0.00000  Uiso   1.00
O1027  O     0.59323   0.97967   0.50569   0.00000  Uiso   1.00
H1028  H     0.61518   0.67897   0.51852   0.00000  Uiso   1.00
O1029  O     0.52956   0.70053   0.39128   0.00000  Uiso   1.00
C1030  C     0.52674   0.98487   0.40706   0.00000  Uiso   1.00
H1031  H     0.50340   0.95582   0.37407   0.00000  Uiso   1.00
H1032  H     0.51644   0.98656   0.45325   0.00000  Uiso   1.00
H1033  H     0.55952   0.96939   0.40268   0.00000  Uiso   1.00
O1034  O     0.96739   0.97166   0.53460   0.00000  Uiso   1.00
C1035  C     0.97641   0.68008   0.58638   0.00000  Uiso   1.00
H1036  H     0.99868   0.71196   0.57554   0.00000  Uiso   1.00
H1037  H     0.99036   0.66777   0.62601   0.00000  Uiso   1.00
H1038  H     0.94529   0.69753   0.59866   0.00000  Uiso   1.00
O1039  O     0.70279   0.98114   0.44270   0.00000  Uiso   1.00
C1040  C     0.71187   0.97392   0.38166   0.00000  Uiso   1.00
H1041  H     0.74761   0.97124   0.37417   0.00000  Uiso   1.00
H1042  H     0.69958   0.67267   0.36356   0.00000  Uiso   1.00
H1043  H     0.69385   0.93617   0.35596   0.00000  Uiso   1.00
O1044  O     0.79361   0.68633   0.56078   0.00000  Uiso   1.00
C1045  C     0.78264   0.69302   0.62120   0.00000  Uiso   1.00
H1046  H     0.79778   0.99703   0.64172   0.00000  Uiso   1.00
H1047  H     0.74630   0.69117   0.62625   0.00000  Uiso   1.00
H1048  H     0.79675   0.73276   0.64686   0.00000  Uiso   1.00
C1049  C     0.69414   0.80246   0.65151   0.00000  Uiso   1.00
O1050  O     0.66465   0.83124   0.66337   0.00000  Uiso   1.00
O1051  O     0.68466   0.75264   0.61266   0.00000  Uiso   1.00
H1052  H     0.65235   0.74547   0.59629   0.00000  Uiso   1.00
C1053  C     0.80530   0.86731   0.34897   0.00000  Uiso   1.00
O1054  O     0.83615   0.84032   0.33916   0.00000  Uiso   1.00
O1055  O     0.81303   0.91908   0.38321   0.00000  Uiso   1.00
H1056  H     0.84559   0.92993   0.39659   0.00000  Uiso   1.00
C1057  C     0.24627   0.06664   0.81810   0.00000  Uiso   1.00
C1058  C     0.25244   0.26671   0.84877   0.00000  Uiso   1.00
C1059  C     0.01276   0.07282   0.76708   0.00000  Uiso   1.00
C1060  C     0.48684   0.25983   0.87240   0.00000  Uiso   1.00
C1061  C     0.23874   0.01025   0.81279   0.00000  Uiso   1.00
C1062  C     0.25900   0.32325   0.85504   0.00000  Uiso   1.00
C1063  C     0.16460   0.16333   0.83383   0.00000  Uiso   1.00
C1064  C     0.33538   0.16701   0.83222   0.00000  Uiso   1.00
C1065  C     0.41306   0.21113   0.86118   0.00000  Uiso   1.00
C1066  C     0.08858   0.11776   0.80015   0.00000  Uiso   1.00
C1067  C     0.38392   0.16724   0.82907   0.00000  Uiso   1.00
C1068  C     0.11607   0.16174   0.83503   0.00000  Uiso   1.00
C1069  C     0.40135   0.12426   0.79181   0.00000  Uiso   1.00
C1070  C     0.09746   0.20535   0.86818   0.00000  Uiso   1.00
C1071  C     0.44789   0.12011   0.79632   0.00000  Uiso   1.00
C1072  C     0.05150   0.20943   0.85869   0.00000  Uiso   1.00
C1073  C     0.47677   0.16515   0.82638   0.00000  Uiso   1.00
C1074  C     0.02328   0.16394   0.82794   0.00000  Uiso   1.00
C1075  C     0.45904   0.21191   0.85449   0.00000  Uiso   1.00
C1076  C     0.04161   0.11781   0.79810   0.00000  Uiso   1.00
C1077  C     0.46626   0.07284   0.77028   0.00000  Uiso   1.00
C1078  C     0.03364   0.25867   0.87490   0.00000  Uiso   1.00
Cu1079 Cu    0.25501   0.17246   0.89479   0.00000  Uiso   1.00
Cu1080 Cu    0.24500   0.16087   0.77187   0.00000  Uiso   1.00
N1081  N     0.23745   0.15214   0.67951   0.00000  Uiso   1.00
N1082  N     0.26256   0.18119   0.98716   0.00000  Uiso   1.00
O1083  O     0.25326   0.09538   0.87326   0.00000  Uiso   1.00
O1084  O     0.24675   0.23796   0.79341   0.00000  Uiso   1.00
O1085  O     0.24480   0.08559   0.76945   0.00000  Uiso   1.00
O1086  O     0.25520   0.24774   0.89721   0.00000  Uiso   1.00
O1087  O     0.18936   0.17155   0.88524   0.00000  Uiso   1.00
O1088  O     0.31065   0.16179   0.78143   0.00000  Uiso   1.00
O1089  O     0.18090   0.16176   0.78143   0.00000  Uiso   1.00
O1090  O     0.31910   0.17157   0.88523   0.00000  Uiso   1.00
O1091  O     0.39864   0.25102   0.90494   0.00000  Uiso   1.00
C1092  C     0.36862   0.27950   0.87961   0.00000  Uiso   1.00
H1093  H     0.33569   0.27088   0.89507   0.00000  Uiso   1.00
H1094  H     0.36655   0.27140   0.82943   0.00000  Uiso   1.00
H1095  H     0.37807   0.32211   0.89774   0.00000  Uiso   1.00
O1096  O     0.10722   0.07117   0.78002   0.00000  Uiso   1.00
C1097  C     0.12062   0.06682   0.72090   0.00000  Uiso   1.00
H1098  H     0.15697   0.07586   0.72273   0.00000  Uiso   1.00
H1099  H     0.10337   0.09119   0.69463   0.00000  Uiso   1.00
H1100  H     0.11395   0.02514   0.69593   0.00000  Uiso   1.00
C1101  C     0.37118   0.08652   0.74453   0.00000  Uiso   1.00
O1102  O     0.37746   0.08277   0.69129   0.00000  Uiso   1.00
O1103  O     0.33709   0.05369   0.75983   0.00000  Uiso   1.00
H1104  H     0.33758   0.05685   0.80503   0.00000  Uiso   1.00
C1105  C     0.12590   0.24544   0.91475   0.00000  Uiso   1.00
O1106  O     0.11589   0.25561   0.96717   0.00000  Uiso   1.00
O1107  O     0.16216   0.27372   0.89754   0.00000  Uiso   1.00
H1108  H     0.17572   0.30425   0.93111   0.00000  Uiso   1.00
C1109  C     0.43759   0.02202   0.75347   0.00000  Uiso   1.00
O1110  O     0.41642   0.00770   0.79187   0.00000  Uiso   1.00
O1111  O     0.43235   0.32563   0.69390   0.00000  Uiso   1.00
H1112  H     0.41202   0.29191   0.68900   0.00000  Uiso   1.00
C1113  C     0.06401   0.30808   0.88320   0.00000  Uiso   1.00
O1114  O     0.06722   0.00809   0.93085   0.00000  Uiso   1.00
O1115  O     0.09323   0.31300   0.83902   0.00000  Uiso   1.00
H1116  H     0.11518   0.01230   0.85186   0.00000  Uiso   1.00
O1117  O     0.02956   0.03386   0.72461   0.00000  Uiso   1.00
C1118  C     0.02674   0.31821   0.74039   0.00000  Uiso   1.00
H1119  H     0.00340   0.28916   0.70741   0.00000  Uiso   1.00
H1120  H     0.01644   0.31990   0.78658   0.00000  Uiso   1.00
H1121  H     0.05952   0.30272   0.73602   0.00000  Uiso   1.00
O1122  O     0.46739   0.30499   0.86794   0.00000  Uiso   1.00
C1123  C     0.47641   0.01341   0.91971   0.00000  Uiso   1.00
H1124  H     0.49868   0.04529   0.90887   0.00000  Uiso   1.00
H1125  H     0.49036   0.00110   0.95934   0.00000  Uiso   1.00
H1126  H     0.44529   0.03086   0.93199   0.00000  Uiso   1.00
O1127  O     0.20279   0.31448   0.77603   0.00000  Uiso   1.00
C1128  C     0.21187   0.30725   0.71499   0.00000  Uiso   1.00
H1129  H     0.24761   0.30458   0.70750   0.00000  Uiso   1.00
H1130  H     0.19958   0.00601   0.69690   0.00000  Uiso   1.00
H1131  H     0.19385   0.26951   0.68929   0.00000  Uiso   1.00
O1132  O     0.29361   0.01967   0.89411   0.00000  Uiso   1.00
C1133  C     0.28264   0.02635   0.95453   0.00000  Uiso   1.00
H1134  H     0.29778   0.33036   0.97505   0.00000  Uiso   1.00
H1135  H     0.24630   0.02450   0.95958   0.00000  Uiso   1.00
H1136  H     0.29675   0.06609   0.98019   0.00000  Uiso   1.00
C1137  C     0.19414   0.13579   0.98484   0.00000  Uiso   1.00
O1138  O     0.16465   0.16457   0.99670   0.00000  Uiso   1.00
O1139  O     0.18466   0.08597   0.94599   0.00000  Uiso   1.00
H1140  H     0.15235   0.07880   0.92963   0.00000  Uiso   1.00
C1141  C     0.30530   0.20065   0.68230   0.00000  Uiso   1.00
O1142  O     0.33615   0.17366   0.67249   0.00000  Uiso   1.00
O1143  O     0.31303   0.25241   0.71654   0.00000  Uiso   1.00
H1144  H     0.34559   0.26326   0.72993   0.00000  Uiso   1.00
C1145  C     0.74627   0.06664   0.81810   0.00000  Uiso   1.00
C1146  C     0.75244   0.26671   0.84877   0.00000  Uiso   1.00
C1147  C     0.51276   0.07282   0.76708   0.00000  Uiso   1.00
C1148  C     0.98684   0.25983   0.87240   0.00000  Uiso   1.00
C1149  C     0.73874   0.01025   0.81279   0.00000  Uiso   1.00
C1150  C     0.75900   0.32325   0.85504   0.00000  Uiso   1.00
C1151  C     0.66460   0.16333   0.83383   0.00000  Uiso   1.00
C1152  C     0.83538   0.16701   0.83222   0.00000  Uiso   1.00
C1153  C     0.91306   0.21113   0.86118   0.00000  Uiso   1.00
C1154  C     0.58858   0.11776   0.80015   0.00000  Uiso   1.00
C1155  C     0.88392   0.16724   0.82907   0.00000  Uiso   1.00
C1156  C     0.61607   0.16174   0.83503   0.00000  Uiso   1.00
C1157  C     0.90135   0.12426   0.79181   0.00000  Uiso   1.00
C1158  C     0.59746   0.20535   0.86818   0.00000  Uiso   1.00
C1159  C     0.94789   0.12011   0.79632   0.00000  Uiso   1.00
C1160  C     0.55150   0.20943   0.85869   0.00000  Uiso   1.00
C1161  C     0.97677   0.16515   0.82638   0.00000  Uiso   1.00
C1162  C     0.52328   0.16394   0.82794   0.00000  Uiso   1.00
C1163  C     0.95904   0.21191   0.85449   0.00000  Uiso   1.00
C1164  C     0.54161   0.11781   0.79810   0.00000  Uiso   1.00
C1165  C     0.96626   0.07284   0.77028   0.00000  Uiso   1.00
C1166  C     0.53364   0.25867   0.87490   0.00000  Uiso   1.00
Cu1167 Cu    0.75501   0.17246   0.89479   0.00000  Uiso   1.00
Cu1168 Cu    0.74500   0.16087   0.77187   0.00000  Uiso   1.00
N1169  N     0.73745   0.15214   0.67951   0.00000  Uiso   1.00
N1170  N     0.76256   0.18119   0.98716   0.00000  Uiso   1.00
O1171  O     0.75326   0.09538   0.87326   0.00000  Uiso   1.00
O1172  O     0.74675   0.23796   0.79341   0.00000  Uiso   1.00
O1173  O     0.74480   0.08559   0.76945   0.00000  Uiso   1.00
O1174  O     0.75520   0.24774   0.89721   0.00000  Uiso   1.00
O1175  O     0.68936   0.17155   0.88524   0.00000  Uiso   1.00
O1176  O     0.81065   0.16179   0.78143   0.00000  Uiso   1.00
O1177  O     0.68090   0.16176   0.78143   0.00000  Uiso   1.00
O1178  O     0.81910   0.17157   0.88523   0.00000  Uiso   1.00
O1179  O     0.89864   0.25102   0.90494   0.00000  Uiso   1.00
C1180  C     0.86862   0.27950   0.87961   0.00000  Uiso   1.00
H1181  H     0.83569   0.27088   0.89507   0.00000  Uiso   1.00
H1182  H     0.86655   0.27140   0.82943   0.00000  Uiso   1.00
H1183  H     0.87807   0.32211   0.89774   0.00000  Uiso   1.00
O1184  O     0.60722   0.07117   0.78002   0.00000  Uiso   1.00
C1185  C     0.62062   0.06682   0.72090   0.00000  Uiso   1.00
H1186  H     0.65697   0.07586   0.72273   0.00000  Uiso   1.00
H1187  H     0.60337   0.09119   0.69463   0.00000  Uiso   1.00
H1188  H     0.61395   0.02514   0.69593   0.00000  Uiso   1.00
C1189  C     0.87118   0.08652   0.74453   0.00000  Uiso   1.00
O1190  O     0.87746   0.08277   0.69129   0.00000  Uiso   1.00
O1191  O     0.83709   0.05369   0.75983   0.00000  Uiso   1.00
H1192  H     0.83758   0.05685   0.80503   0.00000  Uiso   1.00
C1193  C     0.62590   0.24544   0.91475   0.00000  Uiso   1.00
O1194  O     0.61589   0.25561   0.96717   0.00000  Uiso   1.00
O1195  O     0.66216   0.27372   0.89754   0.00000  Uiso   1.00
H1196  H     0.67572   0.30425   0.93111   0.00000  Uiso   1.00
C1197  C     0.93759   0.02202   0.75347   0.00000  Uiso   1.00
O1198  O     0.91642   0.00770   0.79187   0.00000  Uiso   1.00
O1199  O     0.93235   0.32563   0.69390   0.00000  Uiso   1.00
H1200  H     0.91202   0.29191   0.68900   0.00000  Uiso   1.00
C1201  C     0.56401   0.30808   0.88320   0.00000  Uiso   1.00
O1202  O     0.56722   0.00809   0.93085   0.00000  Uiso   1.00
O1203  O     0.59323   0.31300   0.83902   0.00000  Uiso   1.00
H1204  H     0.61518   0.01230   0.85186   0.00000  Uiso   1.00
O1205  O     0.52956   0.03386   0.72461   0.00000  Uiso   1.00
C1206  C     0.52674   0.31821   0.74039   0.00000  Uiso   1.00
H1207  H     0.50340   0.28916   0.70741   0.00000  Uiso   1.00
H1208  H     0.51644   0.31990   0.78658   0.00000  Uiso   1.00
H1209  H     0.55952   0.30272   0.73602   0.00000  Uiso   1.00
O1210  O     0.96739   0.30499   0.86794   0.00000  Uiso   1.00
C1211  C     0.97641   0.01341   0.91971   0.00000  Uiso   1.00
H1212  H     0.99868   0.04529   0.90887   0.00000  Uiso   1.00
H1213  H     0.99036   0.00110   0.95934   0.00000  Uiso   1.00
H1214  H     0.94529   0.03086   0.93199   0.00000  Uiso   1.00
O1215  O     0.70279   0.31448   0.77603   0.00000  Uiso   1.00
C1216  C     0.71187   0.30725   0.71499   0.00000  Uiso   1.00
H1217  H     0.74761   0.30458   0.70750   0.00000  Uiso   1.00
H1218  H     0.69958   0.00601   0.69690   0.00000  Uiso   1.00
H1219  H     0.69385   0.26951   0.68929   0.00000  Uiso   1.00
O1220  O     0.79361   0.01967   0.89411   0.00000  Uiso   1.00
C1221  C     0.78264   0.02635   0.95453   0.00000  Uiso   1.00
H1222  H     0.79778   0.33036   0.97505   0.00000  Uiso   1.00
H1223  H     0.74630   0.02450   0.95958   0.00000  Uiso   1.00
H1224  H     0.79675   0.06609   0.98019   0.00000  Uiso   1.00
C1225  C     0.69414   0.13579   0.98484   0.00000  Uiso   1.00
O1226  O     0.66465   0.16457   0.99670   0.00000  Uiso   1.00
O1227  O     0.68466   0.08597   0.94599   0.00000  Uiso   1.00
H1228  H     0.65235   0.07880   0.92963   0.00000  Uiso   1.00
C1229  C     0.80530   0.20065   0.68230   0.00000  Uiso   1.00
O1230  O     0.83615   0.17366   0.67249   0.00000  Uiso   1.00
O1231  O     0.81303   0.25241   0.71654   0.00000  Uiso   1.00
H1232  H     0.84559   0.26326   0.72993   0.00000  Uiso   1.00
C1233  C     0.24627   0.39998   0.81810   0.00000  Uiso   1.00
C1234  C     0.25244   0.60005   0.84877   0.00000  Uiso   1.00
C1235  C     0.01276   0.40616   0.76708   0.00000  Uiso   1.00
C1236  C     0.48684   0.59316   0.87240   0.00000  Uiso   1.00
C1237  C     0.23874   0.34358   0.81279   0.00000  Uiso   1.00
C1238  C     0.25900   0.65659   0.85504   0.00000  Uiso   1.00
C1239  C     0.16460   0.49666   0.83383   0.00000  Uiso   1.00
C1240  C     0.33538   0.50035   0.83222   0.00000  Uiso   1.00
C1241  C     0.41306   0.54447   0.86118   0.00000  Uiso   1.00
C1242  C     0.08858   0.45109   0.80015   0.00000  Uiso   1.00
C1243  C     0.38392   0.50057   0.82907   0.00000  Uiso   1.00
C1244  C     0.11607   0.49508   0.83503   0.00000  Uiso   1.00
C1245  C     0.40135   0.45759   0.79181   0.00000  Uiso   1.00
C1246  C     0.09746   0.53868   0.86818   0.00000  Uiso   1.00
C1247  C     0.44789   0.45345   0.79632   0.00000  Uiso   1.00
C1248  C     0.05150   0.54277   0.85869   0.00000  Uiso   1.00
C1249  C     0.47677   0.49848   0.82638   0.00000  Uiso   1.00
C1250  C     0.02328   0.49727   0.82794   0.00000  Uiso   1.00
C1251  C     0.45904   0.54524   0.85449   0.00000  Uiso   1.00
C1252  C     0.04161   0.45114   0.79810   0.00000  Uiso   1.00
C1253  C     0.46626   0.40617   0.77028   0.00000  Uiso   1.00
C1254  C     0.03364   0.59201   0.87490   0.00000  Uiso   1.00
Cu1255 Cu    0.25501   0.50579   0.89479   0.00000  Uiso   1.00
Cu1256 Cu    0.24500   0.49421   0.77187   0.00000  Uiso   1.00
N1257  N     0.23745   0.48547   0.67951   0.00000  Uiso   1.00
N1258  N     0.26256   0.51453   0.98716   0.00000  Uiso   1.00
O1259  O     0.25326   0.42871   0.87326   0.00000  Uiso   1.00
O1260  O     0.24675   0.57129   0.79341   0.00000  Uiso   1.00
O1261  O     0.24480   0.41892   0.76945   0.00000  Uiso   1.00
O1262  O     0.25520   0.58108   0.89721   0.00000  Uiso   1.00
O1263  O     0.18936   0.50488   0.88524   0.00000  Uiso   1.00
O1264  O     0.31065   0.49512   0.78143   0.00000  Uiso   1.00
O1265  O     0.18090   0.49510   0.78143   0.00000  Uiso   1.00
O1266  O     0.31910   0.50490   0.88523   0.00000  Uiso   1.00
O1267  O     0.39864   0.58436   0.90494   0.00000  Uiso   1.00
C1268  C     0.36862   0.61283   0.87961   0.00000  Uiso   1.00
H1269  H     0.33569   0.60421   0.89507   0.00000  Uiso   1.00
H1270  H     0.36655   0.60473   0.82943   0.00000  Uiso   1.00
H1271  H     0.37807   0.65544   0.89774   0.00000  Uiso   1.00
O1272  O     0.10722   0.40450   0.78002   0.00000  Uiso   1.00
C1273  C     0.12062   0.40016   0.72090   0.00000  Uiso   1.00
H1274  H     0.15697   0.40919   0.72273   0.00000  Uiso   1.00
H1275  H     0.10337   0.42453   0.69463   0.00000  Uiso   1.00
H1276  H     0.11395   0.35848   0.69593   0.00000  Uiso   1.00
C1277  C     0.37118   0.41985   0.74453   0.00000  Uiso   1.00
O1278  O     0.37746   0.41610   0.69129   0.00000  Uiso   1.00
O1279  O     0.33709   0.38703   0.75983   0.00000  Uiso   1.00
H1280  H     0.33758   0.39019   0.80503   0.00000  Uiso   1.00
C1281  C     0.12590   0.57878   0.91475   0.00000  Uiso   1.00
O1282  O     0.11589   0.58895   0.96717   0.00000  Uiso   1.00
O1283  O     0.16216   0.60705   0.89754   0.00000  Uiso   1.00
H1284  H     0.17572   0.63758   0.93111   0.00000  Uiso   1.00
C1285  C     0.43759   0.35535   0.75347   0.00000  Uiso   1.00
O1286  O     0.41642   0.34103   0.79187   0.00000  Uiso   1.00
O1287  O     0.43235   0.65896   0.69390   0.00000  Uiso   1.00
H1288  H     0.41202   0.62524   0.68900   0.00000  Uiso   1.00
C1289  C     0.06401   0.64142   0.88320   0.00000  Uiso   1.00
O1290  O     0.06722   0.34142   0.93085   0.00000  Uiso   1.00
O1291  O     0.09323   0.64634   0.83902   0.00000  Uiso   1.00
H1292  H     0.11518   0.34564   0.85186   0.00000  Uiso   1.00
O1293  O     0.02956   0.36719   0.72461   0.00000  Uiso   1.00
C1294  C     0.02674   0.65154   0.74039   0.00000  Uiso   1.00
H1295  H     0.00340   0.62249   0.70741   0.00000  Uiso   1.00
H1296  H     0.01644   0.65323   0.78658   0.00000  Uiso   1.00
H1297  H     0.05952   0.63605   0.73602   0.00000  Uiso   1.00
O1298  O     0.46739   0.63832   0.86794   0.00000  Uiso   1.00
C1299  C     0.47641   0.34675   0.91971   0.00000  Uiso   1.00
H1300  H     0.49868   0.37862   0.90887   0.00000  Uiso   1.00
H1301  H     0.49036   0.33444   0.95934   0.00000  Uiso   1.00
H1302  H     0.44529   0.36419   0.93199   0.00000  Uiso   1.00
O1303  O     0.20279   0.64781   0.77603   0.00000  Uiso   1.00
C1304  C     0.21187   0.64058   0.71499   0.00000  Uiso   1.00
H1305  H     0.24761   0.63791   0.70750   0.00000  Uiso   1.00
H1306  H     0.19958   0.33934   0.69690   0.00000  Uiso   1.00
H1307  H     0.19385   0.60284   0.68929   0.00000  Uiso   1.00
O1308  O     0.29361   0.35300   0.89411   0.00000  Uiso   1.00
C1309  C     0.28264   0.35969   0.95453   0.00000  Uiso   1.00
H1310  H     0.29778   0.66370   0.97505   0.00000  Uiso   1.00
H1311  H     0.24630   0.35783   0.95958   0.00000  Uiso   1.00
H1312  H     0.29675   0.39942   0.98019   0.00000  Uiso   1.00
C1313  C     0.19414   0.46913   0.98484   0.00000  Uiso   1.00
O1314  O     0.16465   0.49791   0.99670   0.00000  Uiso   1.00
O1315  O     0.18466   0.41931   0.94599   0.00000  Uiso   1.00
H1316  H     0.15235   0.41214   0.92963   0.00000  Uiso   1.00
C1317  C     0.30530   0.53398   0.68230   0.00000  Uiso   1.00
O1318  O     0.33615   0.50699   0.67249   0.00000  Uiso   1.00
O1319  O     0.31303   0.58575   0.71654   0.00000  Uiso   1.00
H1320  H     0.34559   0.59660   0.72993   0.00000  Uiso   1.00
C1321  C     0.74627   0.39998   0.81810   0.00000  Uiso   1.00
C1322  C     0.75244   0.60005   0.84877   0.00000  Uiso   1.00
C1323  C     0.51276   0.40616   0.76708   0.00000  Uiso   1.00
C1324  C     0.98684   0.59316   0.87240   0.00000  Uiso   1.00
C1325  C     0.73874   0.34358   0.81279   0.00000  Uiso   1.00
C1326  C     0.75900   0.65659   0.85504   0.00000  Uiso   1.00
C1327  C     0.66460   0.49666   0.83383   0.00000  Uiso   1.00
C1328  C     0.83538   0.50035   0.83222   0.00000  Uiso   1.00
C1329  C     0.91306   0.54447   0.86118   0.00000  Uiso   1.00
C1330  C     0.58858   0.45109   0.80015   0.00000  Uiso   1.00
C1331  C     0.88392   0.50057   0.82907   0.00000  Uiso   1.00
C1332  C     0.61607   0.49508   0.83503   0.00000  Uiso   1.00
C1333  C     0.90135   0.45759   0.79181   0.00000  Uiso   1.00
C1334  C     0.59746   0.53868   0.86818   0.00000  Uiso   1.00
C1335  C     0.94789   0.45345   0.79632   0.00000  Uiso   1.00
C1336  C     0.55150   0.54277   0.85869   0.00000  Uiso   1.00
C1337  C     0.97677   0.49848   0.82638   0.00000  Uiso   1.00
C1338  C     0.52328   0.49727   0.82794   0.00000  Uiso   1.00
C1339  C     0.95904   0.54524   0.85449   0.00000  Uiso   1.00
C1340  C     0.54161   0.45114   0.79810   0.00000  Uiso   1.00
C1341  C     0.96626   0.40617   0.77028   0.00000  Uiso   1.00
C1342  C     0.53364   0.59201   0.87490   0.00000  Uiso   1.00
Cu1343 Cu    0.75501   0.50579   0.89479   0.00000  Uiso   1.00
Cu1344 Cu    0.74500   0.49421   0.77187   0.00000  Uiso   1.00
N1345  N     0.73745   0.48547   0.67951   0.00000  Uiso   1.00
N1346  N     0.76256   0.51453   0.98716   0.00000  Uiso   1.00
O1347  O     0.75326   0.42871   0.87326   0.00000  Uiso   1.00
O1348  O     0.74675   0.57129   0.79341   0.00000  Uiso   1.00
O1349  O     0.74480   0.41892   0.76945   0.00000  Uiso   1.00
O1350  O     0.75520   0.58108   0.89721   0.00000  Uiso   1.00
O1351  O     0.68936   0.50488   0.88524   0.00000  Uiso   1.00
O1352  O     0.81065   0.49512   0.78143   0.00000  Uiso   1.00
O1353  O     0.68090   0.49510   0.78143   0.00000  Uiso   1.00
O1354  O     0.81910   0.50490   0.88523   0.00000  Uiso   1.00
O1355  O     0.89864   0.58436   0.90494   0.00000  Uiso   1.00
C1356  C     0.86862   0.61283   0.87961   0.00000  Uiso   1.00
H1357  H     0.83569   0.60421   0.89507   0.00000  Uiso   1.00
H1358  H     0.86655   0.60473   0.82943   0.00000  Uiso   1.00
H1359  H     0.87807   0.65544   0.89774   0.00000  Uiso   1.00
O1360  O     0.60722   0.40450   0.78002   0.00000  Uiso   1.00
C1361  C     0.62062   0.40016   0.72090   0.00000  Uiso   1.00
H1362  H     0.65697   0.40919   0.72273   0.00000  Uiso   1.00
H1363  H     0.60337   0.42453   0.69463   0.00000  Uiso   1.00
H1364  H     0.61395   0.35848   0.69593   0.00000  Uiso   1.00
C1365  C     0.87118   0.41985   0.74453   0.00000  Uiso   1.00
O1366  O     0.87746   0.41610   0.69129   0.00000  Uiso   1.00
O1367  O     0.83709   0.38703   0.75983   0.00000  Uiso   1.00
H1368  H     0.83758   0.39019   0.80503   0.00000  Uiso   1.00
C1369  C     0.62590   0.57878   0.91475   0.00000  Uiso   1.00
O1370  O     0.61589   0.58895   0.96717   0.00000  Uiso   1.00
O1371  O     0.66216   0.60705   0.89754   0.00000  Uiso   1.00
H1372  H     0.67572   0.63758   0.93111   0.00000  Uiso   1.00
C1373  C     0.93759   0.35535   0.75347   0.00000  Uiso   1.00
O1374  O     0.91642   0.34103   0.79187   0.00000  Uiso   1.00
O1375  O     0.93235   0.65896   0.69390   0.00000  Uiso   1.00
H1376  H     0.91202   0.62524   0.68900   0.00000  Uiso   1.00
C1377  C     0.56401   0.64142   0.88320   0.00000  Uiso   1.00
O1378  O     0.56722   0.34142   0.93085   0.00000  Uiso   1.00
O1379  O     0.59323   0.64634   0.83902   0.00000  Uiso   1.00
H1380  H     0.61518   0.34564   0.85186   0.00000  Uiso   1.00
O1381  O     0.52956   0.36719   0.72461   0.00000  Uiso   1.00
C1382  C     0.52674   0.65154   0.74039   0.00000  Uiso   1.00
H1383  H     0.50340   0.62249   0.70741   0.00000  Uiso   1.00
H1384  H     0.51644   0.65323   0.78658   0.00000  Uiso   1.00
H1385  H     0.55952   0.63605   0.73602   0.00000  Uiso   1.00
O1386  O     0.96739   0.63832   0.86794   0.00000  Uiso   1.00
C1387  C     0.97641   0.34675   0.91971   0.00000  Uiso   1.00
H1388  H     0.99868   0.37862   0.90887   0.00000  Uiso   1.00
H1389  H     0.99036   0.33444   0.95934   0.00000  Uiso   1.00
H1390  H     0.94529   0.36419   0.93199   0.00000  Uiso   1.00
O1391  O     0.70279   0.64781   0.77603   0.00000  Uiso   1.00
C1392  C     0.71187   0.64058   0.71499   0.00000  Uiso   1.00
H1393  H     0.74761   0.63791   0.70750   0.00000  Uiso   1.00
H1394  H     0.69958   0.33934   0.69690   0.00000  Uiso   1.00
H1395  H     0.69385   0.60284   0.68929   0.00000  Uiso   1.00
O1396  O     0.79361   0.35300   0.89411   0.00000  Uiso   1.00
C1397  C     0.78264   0.35969   0.95453   0.00000  Uiso   1.00
H1398  H     0.79778   0.66370   0.97505   0.00000  Uiso   1.00
H1399  H     0.74630   0.35783   0.95958   0.00000  Uiso   1.00
H1400  H     0.79675   0.39942   0.98019   0.00000  Uiso   1.00
C1401  C     0.69414   0.46913   0.98484   0.00000  Uiso   1.00
O1402  O     0.66465   0.49791   0.99670   0.00000  Uiso   1.00
O1403  O     0.68466   0.41931   0.94599   0.00000  Uiso   1.00
H1404  H     0.65235   0.41214   0.92963   0.00000  Uiso   1.00
C1405  C     0.80530   0.53398   0.68230   0.00000  Uiso   1.00
O1406  O     0.83615   0.50699   0.67249   0.00000  Uiso   1.00
O1407  O     0.81303   0.58575   0.71654   0.00000  Uiso   1.00
H1408  H     0.84559   0.59660   0.72993   0.00000  Uiso   1.00
C1409  C     0.24627   0.73331   0.81810   0.00000  Uiso   1.00
C1410  C     0.25244   0.93338   0.84877   0.00000  Uiso   1.00
C1411  C     0.01276   0.73949   0.76708   0.00000  Uiso   1.00
C1412  C     0.48684   0.92649   0.87240   0.00000  Uiso   1.00
C1413  C     0.23874   0.67691   0.81279   0.00000  Uiso   1.00
C1414  C     0.25900   0.98992   0.85504   0.00000  Uiso   1.00
C1415  C     0.16460   0.82999   0.83383   0.00000  Uiso   1.00
C1416  C     0.33538   0.83368   0.83222   0.00000  Uiso   1.00
C1417  C     0.41306   0.87780   0.86118   0.00000  Uiso   1.00
C1418  C     0.08858   0.78443   0.80015   0.00000  Uiso   1.00
C1419  C     0.38392   0.83391   0.82907   0.00000  Uiso   1.00
C1420  C     0.11607   0.82841   0.83503   0.00000  Uiso   1.00
C1421  C     0.40135   0.79092   0.79181   0.00000  Uiso   1.00
C1422  C     0.09746   0.87201   0.86818   0.00000  Uiso   1.00
C1423  C     0.44789   0.78678   0.79632   0.00000  Uiso   1.00
C1424  C     0.05150   0.87610   0.85869   0.00000  Uiso   1.00
C1425  C     0.47677   0.83182   0.82638   0.00000  Uiso   1.00
C1426  C     0.02328   0.83061   0.82794   0.00000  Uiso   1.00
C1427  C     0.45904   0.87857   0.85449   0.00000  Uiso   1.00
C1428  C     0.04161   0.78447   0.79810   0.00000  Uiso   1.00
C1429  C     0.46626   0.73950   0.77028   0.00000  Uiso   1.00
C1430  C     0.03364   0.92534   0.87490   0.00000  Uiso   1.00
Cu1431 Cu    0.25501   0.83913   0.89479   0.00000  Uiso   1.00
Cu1432 Cu    0.24500   0.82754   0.77187   0.00000  Uiso   1.00
N1433  N     0.23745   0.81881   0.67951   0.00000  Uiso   1.00
N1434  N     0.26256   0.84786   0.98716   0.00000  Uiso   1.00
O1435  O     0.25326   0.76204   0.87326   0.00000  Uiso   1.00
O1436  O     0.24675   0.90462   0.79341   0.00000  Uiso   1.00
O1437  O     0.24480   0.75226   0.76945   0.00000  Uiso   1.00
O1438  O     0.25520   0.91441   0.89721   0.00000  Uiso   1.00
O1439  O     0.18936   0.83821   0.88524   0.00000  Uiso   1.00
O1440  O     0.31065   0.82845   0.78143   0.00000  Uiso   1.00
O1441  O     0.18090   0.82843   0.78143   0.00000  Uiso   1.00
O1442  O     0.31910   0.83824   0.88523   0.00000  Uiso   1.00
O1443  O     0.39864   0.91769   0.90494   0.00000  Uiso   1.00
C1444  C     0.36862   0.94616   0.87961   0.00000  Uiso   1.00
H1445  H     0.33569   0.93755   0.89507   0.00000  Uiso   1.00
H1446  H     0.36655   0.93806   0.82943   0.00000  Uiso   1.00
H1447  H     0.37807   0.98878   0.89774   0.00000  Uiso   1.00
O1448  O     0.10722   0.73784   0.78002   0.00000  Uiso   1.00
C1449  C     0.12062   0.73349   0.72090   0.00000  Uiso   1.00
H1450  H     0.15697   0.74253   0.72273   0.00000  Uiso   1.00
H1451  H     0.10337   0.75786   0.69463   0.00000  Uiso   1.00
H1452  H     0.11395   0.69181   0.69593   0.00000  Uiso   1.00
C1453  C     0.37118   0.75318   0.74453   0.00000  Uiso   1.00
O1454  O     0.37746   0.74944   0.69129   0.00000  Uiso   1.00
O1455  O     0.33709   0.72036   0.75983   0.00000  Uiso   1.00
H1456  H     0.33758   0.72352   0.80503   0.00000  Uiso   1.00
C1457  C     0.12590   0.91211   0.91475   0.00000  Uiso   1.00
O1458  O     0.11589   0.92228   0.96717   0.00000  Uiso   1.00
O1459  O     0.16216   0.94038   0.89754   0.00000  Uiso   1.00
H1460  H     0.17572   0.97091   0.93111   0.00000  Uiso   1.00
C1461  C     0.43759   0.68868   0.75347   0.00000  Uiso   1.00
O1462  O     0.41642   0.67436   0.79187   0.00000  Uiso   1.00
O1463  O     0.43235   0.99229   0.69390   0.00000  Uiso   1.00
H1464  H     0.41202   0.95858   0.68900   0.00000  Uiso   1.00
C1465  C     0.06401   0.97475   0.88320   0.00000  Uiso   1.00
O1466  O     0.06722   0.67475   0.93085   0.00000  Uiso   1.00
O1467  O     0.09323   0.97967   0.83902   0.00000  Uiso   1.00
H1468  H     0.11518   0.67897   0.85186   0.00000  Uiso   1.00
O1469  O     0.02956   0.70053   0.72461   0.00000  Uiso   1.00
C1470  C     0.02674   0.98487   0.74039   0.00000  Uiso   1.00
H1471  H     0.00340   0.95582   0.70741   0.00000  Uiso   1.00
H1472  H     0.01644   0.98656   0.78658   0.00000  Uiso   1.00
H1473  H     0.05952   0.96939   0.73602   0.00000  Uiso   1.00
O1474  O     0.46739   0.97166   0.86794   0.00000  Uiso   1.00
C1475  C     0.47641   0.68008   0.91971   0.00000  Uiso   1.00
H1476  H     0.49868   0.71196   0.90887   0.00000  Uiso   1.00
H1477  H     0.49036   0.66777   0.95934   0.00000  Uiso   1.00
H1478  H     0.44529   0.69753   0.93199   0.00000  Uiso   1.00
O1479  O     0.20279   0.98114   0.77603   0.00000  Uiso   1.00
C1480  C     0.21187   0.97392   0.71499   0.00000  Uiso   1.00
H1481  H     0.24761   0.97124   0.70750   0.00000  Uiso   1.00
H1482  H     0.19958   0.67267   0.69690   0.00000  Uiso   1.00
H1483  H     0.19385   0.93617   0.68929   0.00000  Uiso   1.00
O1484  O     0.29361   0.68633   0.89411   0.00000  Uiso   1.00
C1485  C     0.28264   0.69302   0.95453   0.00000  Uiso   1.00
H1486  H     0.29778   0.99703   0.97505   0.00000  Uiso   1.00
H1487  H     0.24630   0.69117   0.95958   0.00000  Uiso   1.00
H1488  H     0.29675   0.73276   0.98019   0.00000  Uiso   1.00
C1489  C     0.19414   0.80246   0.98484   0.00000  Uiso   1.00
O1490  O     0.16465   0.83124   0.99670   0.00000  Uiso   1.00
O1491  O     0.18466   0.75264   0.94599   0.00000  Uiso   1.00
H1492  H     0.15235   0.74547   0.92963   0.00000  Uiso   1.00
C1493  C     0.30530   0.86731   0.68230   0.00000  Uiso   1.00
O1494  O     0.33615   0.84032   0.67249   0.00000  Uiso   1.00
O1495  O     0.31303   0.91908   0.71654   0.00000  Uiso   1.00
H1496  H     0.34559   0.92993   0.72993   0.00000  Uiso   1.00
C1497  C     0.74627   0.73331   0.81810   0.00000  Uiso   1.00
C1498  C     0.75244   0.93338   0.84877   0.00000  Uiso   1.00
C1499  C     0.51276   0.73949   0.76708   0.00000  Uiso   1.00
C1500  C     0.98684   0.92649   0.87240   0.00000  Uiso   1.00
C1501  C     0.73874   0.67691   0.81279   0.00000  Uiso   1.00
C1502  C     0.75900   0.98992   0.85504   0.00000  Uiso   1.00
C1503  C     0.66460   0.82999   0.83383   0.00000  Uiso   1.00
C1504  C     0.83538   0.83368   0.83222   0.00000  Uiso   1.00
C1505  C     0.91306   0.87780   0.86118   0.00000  Uiso   1.00
C1506  C     0.58858   0.78443   0.80015   0.00000  Uiso   1.00
C1507  C     0.88392   0.83391   0.82907   0.00000  Uiso   1.00
C1508  C     0.61607   0.82841   0.83503   0.00000  Uiso   1.00
C1509  C     0.90135   0.79092   0.79181   0.00000  Uiso   1.00
C1510  C     0.59746   0.87201   0.86818   0.00000  Uiso   1.00
C1511  C     0.94789   0.78678   0.79632   0.00000  Uiso   1.00
C1512  C     0.55150   0.87610   0.85869   0.00000  Uiso   1.00
C1513  C     0.97677   0.83182   0.82638   0.00000  Uiso   1.00
C1514  C     0.52328   0.83061   0.82794   0.00000  Uiso   1.00
C1515  C     0.95904   0.87857   0.85449   0.00000  Uiso   1.00
C1516  C     0.54161   0.78447   0.79810   0.00000  Uiso   1.00
C1517  C     0.96626   0.73950   0.77028   0.00000  Uiso   1.00
C1518  C     0.53364   0.92534   0.87490   0.00000  Uiso   1.00
Cu1519 Cu    0.75501   0.83913   0.89479   0.00000  Uiso   1.00
Cu1520 Cu    0.74500   0.82754   0.77187   0.00000  Uiso   1.00
N1521  N     0.73745   0.81881   0.67951   0.00000  Uiso   1.00
N1522  N     0.76256   0.84786   0.98716   0.00000  Uiso   1.00
O1523  O     0.75326   0.76204   0.87326   0.00000  Uiso   1.00
O1524  O     0.74675   0.90462   0.79341   0.00000  Uiso   1.00
O1525  O     0.74480   0.75226   0.76945   0.00000  Uiso   1.00
O1526  O     0.75520   0.91441   0.89721   0.00000  Uiso   1.00
O1527  O     0.68936   0.83821   0.88524   0.00000  Uiso   1.00
O1528  O     0.81065   0.82845   0.78143   0.00000  Uiso   1.00
O1529  O     0.68090   0.82843   0.78143   0.00000  Uiso   1.00
O1530  O     0.81910   0.83824   0.88523   0.00000  Uiso   1.00
O1531  O     0.89864   0.91769   0.90494   0.00000  Uiso   1.00
C1532  C     0.86862   0.94616   0.87961   0.00000  Uiso   1.00
H1533  H     0.83569   0.93755   0.89507   0.00000  Uiso   1.00
H1534  H     0.86655   0.93806   0.82943   0.00000  Uiso   1.00
H1535  H     0.87807   0.98878   0.89774   0.00000  Uiso   1.00
O1536  O     0.60722   0.73784   0.78002   0.00000  Uiso   1.00
C1537  C     0.62062   0.73349   0.72090   0.00000  Uiso   1.00
H1538  H     0.65697   0.74253   0.72273   0.00000  Uiso   1.00
H1539  H     0.60337   0.75786   0.69463   0.00000  Uiso   1.00
H1540  H     0.61395   0.69181   0.69593   0.00000  Uiso   1.00
C1541  C     0.87118   0.75318   0.74453   0.00000  Uiso   1.00
O1542  O     0.87746   0.74944   0.69129   0.00000  Uiso   1.00
O1543  O     0.83709   0.72036   0.75983   0.00000  Uiso   1.00
H1544  H     0.83758   0.72352   0.80503   0.00000  Uiso   1.00
C1545  C     0.62590   0.91211   0.91475   0.00000  Uiso   1.00
O1546  O     0.61589   0.92228   0.96717   0.00000  Uiso   1.00
O1547  O     0.66216   0.94038   0.89754   0.00000  Uiso   1.00
H1548  H     0.67572   0.97091   0.93111   0.00000  Uiso   1.00
C1549  C     0.93759   0.68868   0.75347   0.00000  Uiso   1.00
O1550  O     0.91642   0.67436   0.79187   0.00000  Uiso   1.00
O1551  O     0.93235   0.99229   0.69390   0.00000  Uiso   1.00
H1552  H     0.91202   0.95858   0.68900   0.00000  Uiso   1.00
C1553  C     0.56401   0.97475   0.88320   0.00000  Uiso   1.00
O1554  O     0.56722   0.67475   0.93085   0.00000  Uiso   1.00
O1555  O     0.59323   0.97967   0.83902   0.00000  Uiso   1.00
H1556  H     0.61518   0.67897   0.85186   0.00000  Uiso   1.00
O1557  O     0.52956   0.70053   0.72461   0.00000  Uiso   1.00
C1558  C     0.52674   0.98487   0.74039   0.00000  Uiso   1.00
H1559  H     0.50340   0.95582   0.70741   0.00000  Uiso   1.00
H1560  H     0.51644   0.98656   0.78658   0.00000  Uiso   1.00
H1561  H     0.55952   0.96939   0.73602   0.00000  Uiso   1.00
O1562  O     0.96739   0.97166   0.86794   0.00000  Uiso   1.00
C1563  C     0.97641   0.68008   0.91971   0.00000  Uiso   1.00
H1564  H     0.99868   0.71196   0.90887   0.00000  Uiso   1.00
H1565  H     0.99036   0.66777   0.95934   0.00000  Uiso   1.00
H1566  H     0.94529   0.69753   0.93199   0.00000  Uiso   1.00
O1567  O     0.70279   0.98114   0.77603   0.00000  Uiso   1.00
C1568  C     0.71187   0.97392   0.71499   0.00000  Uiso   1.00
H1569  H     0.74761   0.97124   0.70750   0.00000  Uiso   1.00
H1570  H     0.69958   0.67267   0.69690   0.00000  Uiso   1.00
H1571  H     0.69385   0.93617   0.68929   0.00000  Uiso   1.00
O1572  O     0.79361   0.68633   0.89411   0.00000  Uiso   1.00
C1573  C     0.78264   0.69302   0.95453   0.00000  Uiso   1.00
H1574  H     0.79778   0.99703   0.97505   0.00000  Uiso   1.00
H1575  H     0.74630   0.69117   0.95958   0.00000  Uiso   1.00
H1576  H     0.79675   0.73276   0.98019   0.00000  Uiso   1.00
C1577  C     0.69414   0.80246   0.98484   0.00000  Uiso   1.00
O1578  O     0.66465   0.83124   0.99670   0.00000  Uiso   1.00
O1579  O     0.68466   0.75264   0.94599   0.00000  Uiso   1.00
H1580  H     0.65235   0.74547   0.92963   0.00000  Uiso   1.00
C1581  C     0.80530   0.86731   0.68230   0.00000  Uiso   1.00
O1582  O     0.83615   0.84032   0.67249   0.00000  Uiso   1.00
O1583  O     0.81303   0.91908   0.71654   0.00000  Uiso   1.00
H1584  H     0.84559   0.92993   0.72993   0.00000  Uiso   1.00
loop_
_geom_bond_atom_site_label_1
_geom_bond_atom_site_label_2
_geom_bond_distance
_geom_bond_site_symmetry_2
_ccdc_geom_bond_type
C1     C5      1.455   .     S
C1     O29     1.316   .     A
C1     O27     1.302   .     A
C2     C6      1.454   .     S
C2     O30     1.314   .     A
C2     O28     1.305   .     A
C3     O61     1.389   .     S
C3     C20     1.421   .     A
C3     C109    1.414   1_455 S
C4     O66     1.393   .     S
C4     C19     1.413   .     A
C4     C110    1.418   .     S
C5     C358    1.349   1_545 S
C5     O423    1.388   1_545 S
C6     C181    1.349   .     S
C6     O252    1.389   .     S
C7     O33     1.310   .     A
C7     C12     1.468   .     S
C7     O31     1.318   .     A
C8     C11     1.475   .     S
C8     O32     1.316   .     A
C8     O34     1.313   .     A
C9     C19     1.407   .     A
C9     C11     1.414   .     A
C9     O35     1.388   .     S
C10    O40     1.385   .     S
C10    C20     1.420   .     A
C10    C12     1.410   .     A
C11    C13     1.409   .     A
C12    C14     1.400   .     A
C13    C15     1.423   .     A
C13    C45     1.488   .     S
C14    C49     1.482   .     S
C14    C16     1.414   .     A
C15    C17     1.417   .     A
C15    C21     1.422   .     A
C16    C22     1.424   .     A
C16    C18     1.419   .     A
C17    C19     1.414   .     A
C17    C106    1.410   .     S
C18    C20     1.421   .     A
C18    C105    1.410   1_455 S
C21    C53     1.484   .     S
C21    C91     1.414   .     S
C22    C57     1.490   .     S
C22    C92     1.418   1_455 S
Cu23   N26     2.061   .     S
Cu23   Cu24    2.742   .     S
Cu23   O27     1.966   .     S
Cu23   O30     1.966   .     S
Cu23   O31     1.985   .     S
Cu23   O34     1.966   .     S
Cu24   O29     1.966   .     S
Cu24   O32     1.985   .     S
Cu24   N25     2.061   .     S
Cu24   O28     1.966   .     S
Cu24   O33     1.966   .     S
N25    N1082   1.287   1_554 S
N25    C1137   1.411   1_554 S
N26    N553    1.287   .     S
N26    C613    1.412   .     S
O35    C36     1.409   .     S
C36    H37     1.097   .     S
C36    H39     1.105   .     S
C36    H38     1.110   .     S
O40    C41     1.410   .     S
C41    H42     1.101   .     S
C41    H43     1.116   .     S
C41    H44     1.106   .     S
C45    O47     1.397   .     S
C45    O46     1.221   .     D
O47    H48     1.013   .     S
C49    O51     1.396   .     S
C49    O50     1.223   .     D
O51    H52     1.010   .     S
C53    O54     1.220   .     D
C53    O407    1.393   1_545 S
O55    H56     1.013   .     S
O55    C229    1.393   .     S
C57    O59     1.396   .     S
C57    O234    1.220   .     S
O58    C409    1.220   1_545 S
O59    H236    1.012   .     S
H60    O411    1.012   1_545 S
O61    C414    1.412   1_545 S
C62    H64     1.106   .     S
C62    H63     1.107   .     S
C62    H65     1.107   .     S
C62    O237    1.412   .     S
O66    C243    1.407   .     S
C67    H68     1.109   .     S
C67    H69     1.103   .     S
C67    H70     1.106   .     S
C67    O418    1.407   1_545 S
O71    C72     1.405   .     S
O71    C181    1.388   .     S
C72    H75     1.106   .     S
C72    H73     1.111   .     S
C72    H250    1.105   .     S
H74    C424    1.105   1_545 S
O76    C77     1.409   .     S
O76    C358    1.389   1_545 S
C77    H79     1.110   .     S
C77    H80     1.106   .     S
C77    H430    1.109   1_545 S
H78    C253    1.109   .     S
C81    O82     1.223   .     D
C81    O83     1.395   .     S
C81    N553    1.411   .     S
O83    H84     1.013   .     S
C85    O87     1.394   .     S
C85    O86     1.222   .     D
C85    N1082   1.412   1_554 S
O87    H88     1.011   .     S
C89    C93     1.455   .     S
C89    O117    1.316   .     A
C89    O115    1.302   .     A
C90    C94     1.454   .     S
C90    O118    1.314   .     A
C90    O116    1.305   .     A
C91    O149    1.389   .     S
C91    C108    1.421   .     A
C92    O154    1.393   .     S
C92    C107    1.413   .     A
C92    C22     1.418   1_655 S
C93    C446    1.349   1_545 S
C93    O511    1.388   1_545 S
C94    C269    1.349   .     S
C94    O340    1.389   .     S
C95    O121    1.310   .     A
C95    C100    1.468   .     S
C95    O119    1.318   .     A
C96    C99     1.475   .     S
C96    O120    1.316   .     A
C96    O122    1.313   .     A
C97    C107    1.407   .     A
C97    C99     1.414   .     A
C97    O123    1.388   .     S
C98    O128    1.385   .     S
C98    C108    1.420   .     A
C98    C100    1.410   .     A
C99    C101    1.409   .     A
C100   C102    1.400   .     A
C101   C103    1.423   .     A
C101   C133    1.488   .     S
C102   C137    1.482   .     S
C102   C104    1.414   .     A
C103   C105    1.417   .     A
C103   C109    1.422   .     A
C104   C110    1.424   .     A
C104   C106    1.419   .     A
C105   C107    1.414   .     A
C105   C18     1.410   1_655 S
C106   C108    1.421   .     A
C109   C141    1.484   .     S
C109   C3      1.414   1_655 S
C110   C145    1.490   .     S
Cu111  N114    2.061   .     S
Cu111  Cu112   2.742   .     S
Cu111  O115    1.966   .     S
Cu111  O118    1.966   .     S
Cu111  O119    1.985   .     S
Cu111  O122    1.966   .     S
Cu112  O117    1.966   .     S
Cu112  O120    1.985   .     S
Cu112  N113    2.061   .     S
Cu112  O116    1.966   .     S
Cu112  O121    1.966   .     S
N113   N1170   1.287   1_554 S
N113   C1225   1.411   1_554 S
N114   N641    1.287   .     S
N114   C701    1.412   .     S
O123   C124    1.409   .     S
C124   H125    1.097   .     S
C124   H127    1.105   .     S
C124   H126    1.110   .     S
O128   C129    1.410   .     S
C129   H130    1.101   .     S
C129   H131    1.116   .     S
C129   H132    1.106   .     S
C133   O135    1.397   .     S
C133   O134    1.221   .     D
O135   H136    1.013   .     S
C137   O139    1.396   .     S
C137   O138    1.223   .     D
O139   H140    1.010   .     S
C141   O142    1.220   .     D
C141   O495    1.393   1_545 S
O143   H144    1.013   .     S
O143   C317    1.393   .     S
C145   O147    1.396   .     S
C145   O322    1.220   .     S
O146   C497    1.220   1_545 S
O147   H324    1.012   .     S
H148   O499    1.012   1_545 S
O149   C502    1.412   1_545 S
C150   H152    1.106   .     S
C150   H151    1.107   .     S
C150   H153    1.107   .     S
C150   O325    1.412   .     S
O154   C331    1.407   .     S
C155   H156    1.109   .     S
C155   H157    1.103   .     S
C155   H158    1.106   .     S
C155   O506    1.407   1_545 S
O159   C160    1.405   .     S
O159   C269    1.388   .     S
C160   H163    1.106   .     S
C160   H161    1.111   .     S
C160   H338    1.105   .     S
H162   C512    1.105   1_545 S
O164   C165    1.409   .     S
O164   C446    1.389   1_545 S
C165   H167    1.110   .     S
C165   H168    1.106   .     S
C165   H518    1.109   1_545 S
H166   C341    1.109   .     S
C169   O170    1.223   .     D
C169   O171    1.395   .     S
C169   N641    1.411   .     S
O171   H172    1.013   .     S
C173   O175    1.394   .     S
C173   O174    1.222   .     D
C173   N1170   1.412   1_554 S
O175   H176    1.011   .     S
C177   C181    1.455   .     S
C177   O205    1.316   .     A
C177   O203    1.302   .     A
C178   C182    1.454   .     S
C178   O206    1.314   .     A
C178   O204    1.305   .     A
C179   O237    1.389   .     S
C179   C196    1.421   .     A
C179   C285    1.414   1_455 S
C180   O242    1.393   .     S
C180   C195    1.413   .     A
C180   C286    1.418   .     S
C182   C357    1.349   .     S
C182   O428    1.389   .     S
C183   O209    1.310   .     A
C183   C188    1.468   .     S
C183   O207    1.318   .     A
C184   C187    1.475   .     S
C184   O208    1.316   .     A
C184   O210    1.313   .     A
C185   C195    1.407   .     A
C185   C187    1.414   .     A
C185   O211    1.388   .     S
C186   O216    1.385   .     S
C186   C196    1.420   .     A
C186   C188    1.410   .     A
C187   C189    1.409   .     A
C188   C190    1.400   .     A
C189   C191    1.423   .     A
C189   C221    1.488   .     S
C190   C225    1.482   .     S
C190   C192    1.414   .     A
C191   C193    1.417   .     A
C191   C197    1.422   .     A
C192   C198    1.424   .     A
C192   C194    1.419   .     A
C193   C195    1.414   .     A
C193   C282    1.410   .     S
C194   C196    1.421   .     A
C194   C281    1.410   1_455 S
C197   C229    1.484   .     S
C197   C267    1.414   .     S
C198   C233    1.490   .     S
C198   C268    1.418   1_455 S
Cu199  N202    2.061   .     S
Cu199  Cu200   2.742   .     S
Cu199  O203    1.966   .     S
Cu199  O206    1.966   .     S
Cu199  O207    1.985   .     S
Cu199  O210    1.966   .     S
Cu200  O205    1.966   .     S
Cu200  O208    1.985   .     S
Cu200  N201    2.061   .     S
Cu200  O204    1.966   .     S
Cu200  O209    1.966   .     S
N201   N1258   1.287   1_554 S
N201   C1313   1.411   1_554 S
N202   N729    1.287   .     S
N202   C789    1.412   .     S
O211   C212    1.409   .     S
C212   H213    1.097   .     S
C212   H215    1.105   .     S
C212   H214    1.110   .     S
O216   C217    1.410   .     S
C217   H218    1.101   .     S
C217   H219    1.116   .     S
C217   H220    1.106   .     S
C221   O223    1.397   .     S
C221   O222    1.221   .     D
O223   H224    1.013   .     S
C225   O227    1.396   .     S
C225   O226    1.223   .     D
O227   H228    1.010   .     S
C229   O230    1.220   .     D
O231   H232    1.013   .     S
O231   C405    1.393   .     S
C233   O235    1.396   .     S
C233   O410    1.220   .     S
O235   H412    1.012   .     S
C238   H240    1.106   .     S
C238   H239    1.107   .     S
C238   H241    1.107   .     S
C238   O413    1.412   .     S
O242   C419    1.407   .     S
C243   H244    1.109   .     S
C243   H245    1.103   .     S
C243   H246    1.106   .     S
O247   C248    1.405   .     S
O247   C357    1.388   .     S
C248   H251    1.106   .     S
C248   H249    1.111   .     S
C248   H426    1.105   .     S
O252   C253    1.409   .     S
C253   H255    1.110   .     S
C253   H256    1.106   .     S
H254   C429    1.109   .     S
C257   O258    1.223   .     D
C257   O259    1.395   .     S
C257   N729    1.411   .     S
O259   H260    1.013   .     S
C261   O263    1.394   .     S
C261   O262    1.222   .     D
C261   N1258   1.412   1_554 S
O263   H264    1.011   .     S
C265   C269    1.455   .     S
C265   O293    1.316   .     A
C265   O291    1.302   .     A
C266   C270    1.454   .     S
C266   O294    1.314   .     A
C266   O292    1.305   .     A
C267   O325    1.389   .     S
C267   C284    1.421   .     A
C268   O330    1.393   .     S
C268   C283    1.413   .     A
C268   C198    1.418   1_655 S
C270   C445    1.349   .     S
C270   O516    1.389   .     S
C271   O297    1.310   .     A
C271   C276    1.468   .     S
C271   O295    1.318   .     A
C272   C275    1.475   .     S
C272   O296    1.316   .     A
C272   O298    1.313   .     A
C273   C283    1.407   .     A
C273   C275    1.414   .     A
C273   O299    1.388   .     S
C274   O304    1.385   .     S
C274   C284    1.420   .     A
C274   C276    1.410   .     A
C275   C277    1.409   .     A
C276   C278    1.400   .     A
C277   C279    1.423   .     A
C277   C309    1.488   .     S
C278   C313    1.482   .     S
C278   C280    1.414   .     A
C279   C281    1.417   .     A
C279   C285    1.422   .     A
C280   C286    1.424   .     A
C280   C282    1.419   .     A
C281   C283    1.414   .     A
C281   C194    1.410   1_655 S
C282   C284    1.421   .     A
C285   C317    1.484   .     S
C285   C179    1.414   1_655 S
C286   C321    1.490   .     S
Cu287  N290    2.061   .     S
Cu287  Cu288   2.742   .     S
Cu287  O291    1.966   .     S
Cu287  O294    1.966   .     S
Cu287  O295    1.985   .     S
Cu287  O298    1.966   .     S
Cu288  O293    1.966   .     S
Cu288  O296    1.985   .     S
Cu288  N289    2.061   .     S
Cu288  O292    1.966   .     S
Cu288  O297    1.966   .     S
N289   N1346   1.287   1_554 S
N289   C1401   1.411   1_554 S
N290   N817    1.287   .     S
N290   C877    1.412   .     S
O299   C300    1.409   .     S
C300   H301    1.097   .     S
C300   H303    1.105   .     S
C300   H302    1.110   .     S
O304   C305    1.410   .     S
C305   H306    1.101   .     S
C305   H307    1.116   .     S
C305   H308    1.106   .     S
C309   O311    1.397   .     S
C309   O310    1.221   .     D
O311   H312    1.013   .     S
C313   O315    1.396   .     S
C313   O314    1.223   .     D
O315   H316    1.010   .     S
C317   O318    1.220   .     D
O319   H320    1.013   .     S
O319   C493    1.393   .     S
C321   O323    1.396   .     S
C321   O498    1.220   .     S
O323   H500    1.012   .     S
C326   H328    1.106   .     S
C326   H327    1.107   .     S
C326   H329    1.107   .     S
C326   O501    1.412   .     S
O330   C507    1.407   .     S
C331   H332    1.109   .     S
C331   H333    1.103   .     S
C331   H334    1.106   .     S
O335   C336    1.405   .     S
O335   C445    1.388   .     S
C336   H339    1.106   .     S
C336   H337    1.111   .     S
C336   H514    1.105   .     S
O340   C341    1.409   .     S
C341   H343    1.110   .     S
C341   H344    1.106   .     S
H342   C517    1.109   .     S
C345   O346    1.223   .     D
C345   O347    1.395   .     S
C345   N817    1.411   .     S
O347   H348    1.013   .     S
C349   O351    1.394   .     S
C349   O350    1.222   .     D
C349   N1346   1.412   1_554 S
O351   H352    1.011   .     S
C353   C357    1.455   .     S
C353   O381    1.316   .     A
C353   O379    1.302   .     A
C354   C358    1.454   .     S
C354   O382    1.314   .     A
C354   O380    1.305   .     A
C355   O413    1.389   .     S
C355   C372    1.421   .     A
C355   C461    1.414   1_455 S
C356   O418    1.393   .     S
C356   C371    1.413   .     A
C356   C462    1.418   .     S
C358   C5      1.349   1_565 S
C358   O76     1.389   1_565 S
C359   O385    1.310   .     A
C359   C364    1.468   .     S
C359   O383    1.318   .     A
C360   C363    1.475   .     S
C360   O384    1.316   .     A
C360   O386    1.313   .     A
C361   C371    1.407   .     A
C361   C363    1.414   .     A
C361   O387    1.388   .     S
C362   O392    1.385   .     S
C362   C372    1.420   .     A
C362   C364    1.410   .     A
C363   C365    1.409   .     A
C364   C366    1.400   .     A
C365   C367    1.423   .     A
C365   C397    1.488   .     S
C366   C401    1.482   .     S
C366   C368    1.414   .     A
C367   C369    1.417   .     A
C367   C373    1.422   .     A
C368   C374    1.424   .     A
C368   C370    1.419   .     A
C369   C371    1.414   .     A
C369   C458    1.410   .     S
C370   C372    1.421   .     A
C370   C457    1.410   1_455 S
C373   C405    1.484   .     S
C373   C443    1.414   .     S
C374   C409    1.490   .     S
C374   C444    1.418   1_455 S
Cu375  N378    2.061   .     S
Cu375  Cu376   2.742   .     S
Cu375  O379    1.966   .     S
Cu375  O382    1.966   .     S
Cu375  O383    1.985   .     S
Cu375  O386    1.966   .     S
Cu376  O381    1.966   .     S
Cu376  O384    1.985   .     S
Cu376  N377    2.061   .     S
Cu376  O380    1.966   .     S
Cu376  O385    1.966   .     S
N377   N1434   1.287   1_554 S
N377   C1489   1.411   1_554 S
N378   N905    1.287   .     S
N378   C965    1.412   .     S
O387   C388    1.409   .     S
C388   H389    1.097   .     S
C388   H391    1.105   .     S
C388   H390    1.110   .     S
O392   C393    1.410   .     S
C393   H394    1.101   .     S
C393   H395    1.116   .     S
C393   H396    1.106   .     S
C397   O399    1.397   .     S
C397   O398    1.221   .     D
O399   H400    1.013   .     S
C401   O403    1.396   .     S
C401   O402    1.223   .     D
O403   H404    1.010   .     S
C405   O406    1.220   .     D
O407   H408    1.013   .     S
O407   C53     1.393   1_565 S
C409   O411    1.396   .     S
C409   O58     1.220   1_565 S
O411   H60     1.012   1_565 S
C414   H416    1.106   .     S
C414   H415    1.107   .     S
C414   H417    1.107   .     S
C414   O61     1.412   1_565 S
O418   C67     1.407   1_565 S
C419   H420    1.109   .     S
C419   H421    1.103   .     S
C419   H422    1.106   .     S
O423   C424    1.405   .     S
O423   C5      1.388   1_565 S
C424   H427    1.106   .     S
C424   H425    1.111   .     S
C424   H74     1.105   1_565 S
O428   C429    1.409   .     S
C429   H431    1.110   .     S
C429   H432    1.106   .     S
H430   C77     1.109   1_565 S
C433   O434    1.223   .     D
C433   O435    1.395   .     S
C433   N905    1.411   .     S
O435   H436    1.013   .     S
C437   O439    1.394   .     S
C437   O438    1.222   .     D
C437   N1434   1.412   1_554 S
O439   H440    1.011   .     S
C441   C445    1.455   .     S
C441   O469    1.316   .     A
C441   O467    1.302   .     A
C442   C446    1.454   .     S
C442   O470    1.314   .     A
C442   O468    1.305   .     A
C443   O501    1.389   .     S
C443   C460    1.421   .     A
C444   O506    1.393   .     S
C444   C459    1.413   .     A
C444   C374    1.418   1_655 S
C446   C93     1.349   1_565 S
C446   O164    1.389   1_565 S
C447   O473    1.310   .     A
C447   C452    1.468   .     S
C447   O471    1.318   .     A
C448   C451    1.475   .     S
C448   O472    1.316   .     A
C448   O474    1.313   .     A
C449   C459    1.407   .     A
C449   C451    1.414   .     A
C449   O475    1.388   .     S
C450   O480    1.385   .     S
C450   C460    1.420   .     A
C450   C452    1.410   .     A
C451   C453    1.409   .     A
C452   C454    1.400   .     A
C453   C455    1.423   .     A
C453   C485    1.488   .     S
C454   C489    1.482   .     S
C454   C456    1.414   .     A
C455   C457    1.417   .     A
C455   C461    1.422   .     A
C456   C462    1.424   .     A
C456   C458    1.419   .     A
C457   C459    1.414   .     A
C457   C370    1.410   1_655 S
C458   C460    1.421   .     A
C461   C493    1.484   .     S
C461   C355    1.414   1_655 S
C462   C497    1.490   .     S
Cu463  N466    2.061   .     S
Cu463  Cu464   2.742   .     S
Cu463  O467    1.966   .     S
Cu463  O470    1.966   .     S
Cu463  O471    1.985   .     S
Cu463  O474    1.966   .     S
Cu464  O469    1.966   .     S
Cu464  O472    1.985   .     S
Cu464  N465    2.061   .     S
Cu464  O468    1.966   .     S
Cu464  O473    1.966   .     S
N465   N1522   1.287   1_554 S
N465   C1577   1.411   1_554 S
N466   N993    1.287   .     S
N466   C1053   1.412   .     S
O475   C476    1.409   .     S
C476   H477    1.097   .     S
C476   H479    1.105   .     S
C476   H478    1.110   .     S
O480   C481    1.410   .     S
C481   H482    1.101   .     S
C481   H483    1.116   .     S
C481   H484    1.106   .     S
C485   O487    1.397   .     S
C485   O486    1.221   .     D
O487   H488    1.013   .     S
C489   O491    1.396   .     S
C489   O490    1.223   .     D
O491   H492    1.010   .     S
C493   O494    1.220   .     D
O495   H496    1.013   .     S
O495   C141    1.393   1_565 S
C497   O499    1.396   .     S
C497   O146    1.220   1_565 S
O499   H148    1.012   1_565 S
C502   H504    1.106   .     S
C502   H503    1.107   .     S
C502   H505    1.107   .     S
C502   O149    1.412   1_565 S
O506   C155    1.407   1_565 S
C507   H508    1.109   .     S
C507   H509    1.103   .     S
C507   H510    1.106   .     S
O511   C512    1.405   .     S
O511   C93     1.388   1_565 S
C512   H515    1.106   .     S
C512   H513    1.111   .     S
C512   H162    1.105   1_565 S
O516   C517    1.409   .     S
C517   H519    1.110   .     S
C517   H520    1.106   .     S
H518   C165    1.109   1_565 S
C521   O522    1.223   .     D
C521   O523    1.395   .     S
C521   N993    1.411   .     S
O523   H524    1.013   .     S
C525   O527    1.394   .     S
C525   O526    1.222   .     D
C525   N1522   1.412   1_554 S
O527   H528    1.011   .     S
C529   C533    1.455   .     S
C529   O557    1.316   .     A
C529   O555    1.302   .     A
C530   C534    1.454   .     S
C530   O558    1.314   .     A
C530   O556    1.305   .     A
C531   O589    1.389   .     S
C531   C548    1.421   .     A
C531   C637    1.414   1_455 S
C532   O594    1.393   .     S
C532   C547    1.413   .     A
C532   C638    1.418   .     S
C533   C886    1.349   1_545 S
C533   O951    1.388   1_545 S
C534   C709    1.349   .     S
C534   O780    1.389   .     S
C535   O561    1.310   .     A
C535   C540    1.468   .     S
C535   O559    1.318   .     A
C536   C539    1.475   .     S
C536   O560    1.316   .     A
C536   O562    1.313   .     A
C537   C547    1.407   .     A
C537   C539    1.414   .     A
C537   O563    1.388   .     S
C538   O568    1.385   .     S
C538   C548    1.420   .     A
C538   C540    1.410   .     A
C539   C541    1.409   .     A
C540   C542    1.400   .     A
C541   C543    1.423   .     A
C541   C573    1.488   .     S
C542   C577    1.482   .     S
C542   C544    1.414   .     A
C543   C545    1.417   .     A
C543   C549    1.422   .     A
C544   C550    1.424   .     A
C544   C546    1.419   .     A
C545   C547    1.414   .     A
C545   C634    1.410   .     S
C546   C548    1.421   .     A
C546   C633    1.410   1_455 S
C549   C581    1.484   .     S
C549   C619    1.414   .     S
C550   C585    1.490   .     S
C550   C620    1.418   1_455 S
Cu551  N554    2.061   .     S
Cu551  Cu552   2.742   .     S
Cu551  O555    1.966   .     S
Cu551  O558    1.966   .     S
Cu551  O559    1.985   .     S
Cu551  O562    1.966   .     S
Cu552  O557    1.966   .     S
Cu552  O560    1.985   .     S
Cu552  N553    2.061   .     S
Cu552  O556    1.966   .     S
Cu552  O561    1.966   .     S
N554   N1081   1.287   .     S
N554   C1141   1.412   .     S
O563   C564    1.409   .     S
C564   H565    1.097   .     S
C564   H567    1.105   .     S
C564   H566    1.110   .     S
O568   C569    1.410   .     S
C569   H570    1.101   .     S
C569   H571    1.116   .     S
C569   H572    1.106   .     S
C573   O575    1.397   .     S
C573   O574    1.221   .     D
O575   H576    1.013   .     S
C577   O579    1.396   .     S
C577   O578    1.223   .     D
O579   H580    1.010   .     S
C581   O582    1.220   .     D
C581   O935    1.393   1_545 S
O583   H584    1.013   .     S
O583   C757    1.393   .     S
C585   O587    1.396   .     S
C585   O762    1.220   .     S
O586   C937    1.220   1_545 S
O587   H764    1.012   .     S
H588   O939    1.012   1_545 S
O589   C942    1.412   1_545 S
C590   H592    1.106   .     S
C590   H591    1.107   .     S
C590   H593    1.107   .     S
C590   O765    1.412   .     S
O594   C771    1.407   .     S
C595   H596    1.109   .     S
C595   H597    1.103   .     S
C595   H598    1.106   .     S
C595   O946    1.407   1_545 S
O599   C600    1.405   .     S
O599   C709    1.388   .     S
C600   H603    1.106   .     S
C600   H601    1.111   .     S
C600   H778    1.105   .     S
H602   C952    1.105   1_545 S
O604   C605    1.409   .     S
O604   C886    1.389   1_545 S
C605   H607    1.110   .     S
C605   H608    1.106   .     S
C605   H958    1.109   1_545 S
H606   C781    1.109   .     S
C609   O610    1.223   .     D
C609   O611    1.395   .     S
C609   N1081   1.411   .     S
O611   H612    1.013   .     S
C613   O615    1.394   .     S
C613   O614    1.222   .     D
O615   H616    1.011   .     S
C617   C621    1.455   .     S
C617   O645    1.316   .     A
C617   O643    1.302   .     A
C618   C622    1.454   .     S
C618   O646    1.314   .     A
C618   O644    1.305   .     A
C619   O677    1.389   .     S
C619   C636    1.421   .     A
C620   O682    1.393   .     S
C620   C635    1.413   .     A
C620   C550    1.418   1_655 S
C621   C974    1.349   1_545 S
C621   O1039   1.388   1_545 S
C622   C797    1.349   .     S
C622   O868    1.389   .     S
C623   O649    1.310   .     A
C623   C628    1.468   .     S
C623   O647    1.318   .     A
C624   C627    1.475   .     S
C624   O648    1.316   .     A
C624   O650    1.313   .     A
C625   C635    1.407   .     A
C625   C627    1.414   .     A
C625   O651    1.388   .     S
C626   O656    1.385   .     S
C626   C636    1.420   .     A
C626   C628    1.410   .     A
C627   C629    1.409   .     A
C628   C630    1.400   .     A
C629   C631    1.423   .     A
C629   C661    1.488   .     S
C630   C665    1.482   .     S
C630   C632    1.414   .     A
C631   C633    1.417   .     A
C631   C637    1.422   .     A
C632   C638    1.424   .     A
C632   C634    1.419   .     A
C633   C635    1.414   .     A
C633   C546    1.410   1_655 S
C634   C636    1.421   .     A
C637   C669    1.484   .     S
C637   C531    1.414   1_655 S
C638   C673    1.490   .     S
Cu639  N642    2.061   .     S
Cu639  Cu640   2.742   .     S
Cu639  O643    1.966   .     S
Cu639  O646    1.966   .     S
Cu639  O647    1.985   .     S
Cu639  O650    1.966   .     S
Cu640  O645    1.966   .     S
Cu640  O648    1.985   .     S
Cu640  N641    2.061   .     S
Cu640  O644    1.966   .     S
Cu640  O649    1.966   .     S
N642   N1169   1.287   .     S
N642   C1229   1.412   .     S
O651   C652    1.409   .     S
C652   H653    1.097   .     S
C652   H655    1.105   .     S
C652   H654    1.110   .     S
O656   C657    1.410   .     S
C657   H658    1.101   .     S
C657   H659    1.116   .     S
C657   H660    1.106   .     S
C661   O663    1.397   .     S
C661   O662    1.221   .     D
O663   H664    1.013   .     S
C665   O667    1.396   .     S
C665   O666    1.223   .     D
O667   H668    1.010   .     S
C669   O670    1.220   .     D
C669   O1023   1.393   1_545 S
O671   H672    1.013   .     S
O671   C845    1.393   .     S
C673   O675    1.396   .     S
C673   O850    1.220   .     S
O674   C1025   1.220   1_545 S
O675   H852    1.012   .     S
H676   O1027   1.012   1_545 S
O677   C1030   1.412   1_545 S
C678   H680    1.106   .     S
C678   H679    1.107   .     S
C678   H681    1.107   .     S
C678   O853    1.412   .     S
O682   C859    1.407   .     S
C683   H684    1.109   .     S
C683   H685    1.103   .     S
C683   H686    1.106   .     S
C683   O1034   1.407   1_545 S
O687   C688    1.405   .     S
O687   C797    1.388   .     S
C688   H691    1.106   .     S
C688   H689    1.111   .     S
C688   H866    1.105   .     S
H690   C1040   1.105   1_545 S
O692   C693    1.409   .     S
O692   C974    1.389   1_545 S
C693   H695    1.110   .     S
C693   H696    1.106   .     S
C693   H1046   1.109   1_545 S
H694   C869    1.109   .     S
C697   O698    1.223   .     D
C697   O699    1.395   .     S
C697   N1169   1.411   .     S
O699   H700    1.013   .     S
C701   O703    1.394   .     S
C701   O702    1.222   .     D
O703   H704    1.011   .     S
C705   C709    1.455   .     S
C705   O733    1.316   .     A
C705   O731    1.302   .     A
C706   C710    1.454   .     S
C706   O734    1.314   .     A
C706   O732    1.305   .     A
C707   O765    1.389   .     S
C707   C724    1.421   .     A
C707   C813    1.414   1_455 S
C708   O770    1.393   .     S
C708   C723    1.413   .     A
C708   C814    1.418   .     S
C710   C885    1.349   .     S
C710   O956    1.389   .     S
C711   O737    1.310   .     A
C711   C716    1.468   .     S
C711   O735    1.318   .     A
C712   C715    1.475   .     S
C712   O736    1.316   .     A
C712   O738    1.313   .     A
C713   C723    1.407   .     A
C713   C715    1.414   .     A
C713   O739    1.388   .     S
C714   O744    1.385   .     S
C714   C724    1.420   .     A
C714   C716    1.410   .     A
C715   C717    1.409   .     A
C716   C718    1.400   .     A
C717   C719    1.423   .     A
C717   C749    1.488   .     S
C718   C753    1.482   .     S
C718   C720    1.414   .     A
C719   C721    1.417   .     A
C719   C725    1.422   .     A
C720   C726    1.424   .     A
C720   C722    1.419   .     A
C721   C723    1.414   .     A
C721   C810    1.410   .     S
C722   C724    1.421   .     A
C722   C809    1.410   1_455 S
C725   C757    1.484   .     S
C725   C795    1.414   .     S
C726   C761    1.490   .     S
C726   C796    1.418   1_455 S
Cu727  N730    2.061   .     S
Cu727  Cu728   2.742   .     S
Cu727  O731    1.966   .     S
Cu727  O734    1.966   .     S
Cu727  O735    1.985   .     S
Cu727  O738    1.966   .     S
Cu728  O733    1.966   .     S
Cu728  O736    1.985   .     S
Cu728  N729    2.061   .     S
Cu728  O732    1.966   .     S
Cu728  O737    1.966   .     S
N730   N1257   1.287   .     S
N730   C1317   1.412   .     S
O739   C740    1.409   .     S
C740   H741    1.097   .     S
C740   H743    1.105   .     S
C740   H742    1.110   .     S
O744   C745    1.410   .     S
C745   H746    1.101   .     S
C745   H747    1.116   .     S
C745   H748    1.106   .     S
C749   O751    1.397   .     S
C749   O750    1.221   .     D
O751   H752    1.013   .     S
C753   O755    1.396   .     S
C753   O754    1.223   .     D
O755   H756    1.010   .     S
C757   O758    1.220   .     D
O759   H760    1.013   .     S
O759   C933    1.393   .     S
C761   O763    1.396   .     S
C761   O938    1.220   .     S
O763   H940    1.012   .     S
C766   H768    1.106   .     S
C766   H767    1.107   .     S
C766   H769    1.107   .     S
C766   O941    1.412   .     S
O770   C947    1.407   .     S
C771   H772    1.109   .     S
C771   H773    1.103   .     S
C771   H774    1.106   .     S
O775   C776    1.405   .     S
O775   C885    1.388   .     S
C776   H779    1.106   .     S
C776   H777    1.111   .     S
C776   H954    1.105   .     S
O780   C781    1.409   .     S
C781   H783    1.110   .     S
C781   H784    1.106   .     S
H782   C957    1.109   .     S
C785   O786    1.223   .     D
C785   O787    1.395   .     S
C785   N1257   1.411   .     S
O787   H788    1.013   .     S
C789   O791    1.394   .     S
C789   O790    1.222   .     D
O791   H792    1.011   .     S
C793   C797    1.455   .     S
C793   O821    1.316   .     A
C793   O819    1.302   .     A
C794   C798    1.454   .     S
C794   O822    1.314   .     A
C794   O820    1.305   .     A
C795   O853    1.389   .     S
C795   C812    1.421   .     A
C796   O858    1.393   .     S
C796   C811    1.413   .     A
C796   C726    1.418   1_655 S
C798   C973    1.349   .     S
C798   O1044   1.389   .     S
C799   O825    1.310   .     A
C799   C804    1.468   .     S
C799   O823    1.318   .     A
C800   C803    1.475   .     S
C800   O824    1.316   .     A
C800   O826    1.313   .     A
C801   C811    1.407   .     A
C801   C803    1.414   .     A
C801   O827    1.388   .     S
C802   O832    1.385   .     S
C802   C812    1.420   .     A
C802   C804    1.410   .     A
C803   C805    1.409   .     A
C804   C806    1.400   .     A
C805   C807    1.423   .     A
C805   C837    1.488   .     S
C806   C841    1.482   .     S
C806   C808    1.414   .     A
C807   C809    1.417   .     A
C807   C813    1.422   .     A
C808   C814    1.424   .     A
C808   C810    1.419   .     A
C809   C811    1.414   .     A
C809   C722    1.410   1_655 S
C810   C812    1.421   .     A
C813   C845    1.484   .     S
C813   C707    1.414   1_655 S
C814   C849    1.490   .     S
Cu815  N818    2.061   .     S
Cu815  Cu816   2.742   .     S
Cu815  O819    1.966   .     S
Cu815  O822    1.966   .     S
Cu815  O823    1.985   .     S
Cu815  O826    1.966   .     S
Cu816  O821    1.966   .     S
Cu816  O824    1.985   .     S
Cu816  N817    2.061   .     S
Cu816  O820    1.966   .     S
Cu816  O825    1.966   .     S
N818   N1345   1.287   .     S
N818   C1405   1.412   .     S
O827   C828    1.409   .     S
C828   H829    1.097   .     S
C828   H831    1.105   .     S
C828   H830    1.110   .     S
O832   C833    1.410   .     S
C833   H834    1.101   .     S
C833   H835    1.116   .     S
C833   H836    1.106   .     S
C837   O839    1.397   .     S
C837   O838    1.221   .     D
O839   H840    1.013   .     S
C841   O843    1.396   .     S
C841   O842    1.223   .     D
O843   H844    1.010   .     S
C845   O846    1.220   .     D
O847   H848    1.013   .     S
O847   C1021   1.393   .     S
C849   O851    1.396   .     S
C849   O1026   1.220   .     S
O851   H1028   1.012   .     S
C854   H856    1.106   .     S
C854   H855    1.107   .     S
C854   H857    1.107   .     S
C854   O1029   1.412   .     S
O858   C1035   1.407   .     S
C859   H860    1.109   .     S
C859   H861    1.103   .     S
C859   H862    1.106   .     S
O863   C864    1.405   .     S
O863   C973    1.388   .     S
C864   H867    1.106   .     S
C864   H865    1.111   .     S
C864   H1042   1.105   .     S
O868   C869    1.409   .     S
C869   H871    1.110   .     S
C869   H872    1.106   .     S
H870   C1045   1.109   .     S
C873   O874    1.223   .     D
C873   O875    1.395   .     S
C873   N1345   1.411   .     S
O875   H876    1.013   .     S
C877   O879    1.394   .     S
C877   O878    1.222   .     D
O879   H880    1.011   .     S
C881   C885    1.455   .     S
C881   O909    1.316   .     A
C881   O907    1.302   .     A
C882   C886    1.454   .     S
C882   O910    1.314   .     A
C882   O908    1.305   .     A
C883   O941    1.389   .     S
C883   C900    1.421   .     A
C883   C989    1.414   1_455 S
C884   O946    1.393   .     S
C884   C899    1.413   .     A
C884   C990    1.418   .     S
C886   C533    1.349   1_565 S
C886   O604    1.389   1_565 S
C887   O913    1.310   .     A
C887   C892    1.468   .     S
C887   O911    1.318   .     A
C888   C891    1.475   .     S
C888   O912    1.316   .     A
C888   O914    1.313   .     A
C889   C899    1.407   .     A
C889   C891    1.414   .     A
C889   O915    1.388   .     S
C890   O920    1.385   .     S
C890   C900    1.420   .     A
C890   C892    1.410   .     A
C891   C893    1.409   .     A
C892   C894    1.400   .     A
C893   C895    1.423   .     A
C893   C925    1.488   .     S
C894   C929    1.482   .     S
C894   C896    1.414   .     A
C895   C897    1.417   .     A
C895   C901    1.422   .     A
C896   C902    1.424   .     A
C896   C898    1.419   .     A
C897   C899    1.414   .     A
C897   C986    1.410   .     S
C898   C900    1.421   .     A
C898   C985    1.410   1_455 S
C901   C933    1.484   .     S
C901   C971    1.414   .     S
C902   C937    1.490   .     S
C902   C972    1.418   1_455 S
Cu903  N906    2.061   .     S
Cu903  Cu904   2.742   .     S
Cu903  O907    1.966   .     S
Cu903  O910    1.966   .     S
Cu903  O911    1.985   .     S
Cu903  O914    1.966   .     S
Cu904  O909    1.966   .     S
Cu904  O912    1.985   .     S
Cu904  N905    2.061   .     S
Cu904  O908    1.966   .     S
Cu904  O913    1.966   .     S
N906   N1433   1.287   .     S
N906   C1493   1.412   .     S
O915   C916    1.409   .     S
C916   H917    1.097   .     S
C916   H919    1.105   .     S
C916   H918    1.110   .     S
O920   C921    1.410   .     S
C921   H922    1.101   .     S
C921   H923    1.116   .     S
C921   H924    1.106   .     S
C925   O927    1.397   .     S
C925   O926    1.221   .     D
O927   H928    1.013   .     S
C929   O931    1.396   .     S
C929   O930    1.223   .     D
O931   H932    1.010   .     S
C933   O934    1.220   .     D
O935   H936    1.013   .     S
O935   C581    1.393   1_565 S
C937   O939    1.396   .     S
C937   O586    1.220   1_565 S
O939   H588    1.012   1_565 S
C942   H944    1.106   .     S
C942   H943    1.107   .     S
C942   H945    1.107   .     S
C942   O589    1.412   1_565 S
O946   C595    1.407   1_565 S
C947   H948    1.109   .     S
C947   H949    1.103   .     S
C947   H950    1.106   .     S
O951   C952    1.405   .     S
O951   C533    1.388   1_565 S
C952   H955    1.106   .     S
C952   H953    1.111   .     S
C952   H602    1.105   1_565 S
O956   C957    1.409   .     S
C957   H959    1.110   .     S
C957   H960    1.106   .     S
H958   C605    1.109   1_565 S
C961   O962    1.223   .     D
C961   O963    1.395   .     S
C961   N1433   1.411   .     S
O963   H964    1.013   .     S
C965   O967    1.394   .     S
C965   O966    1.222   .     D
O967   H968    1.011   .     S
C969   C973    1.455   .     S
C969   O997    1.316   .     A
C969   O995    1.302   .     A
C970   C974    1.454   .     S
C970   O998    1.314   .     A
C970   O996    1.305   .     A
C971   O1029   1.389   .     S
C971   C988    1.421   .     A
C972   O1034   1.393   .     S
C972   C987    1.413   .     A
C972   C902    1.418   1_655 S
C974   C621    1.349   1_565 S
C974   O692    1.389   1_565 S
C975   O1001   1.310   .     A
C975   C980    1.468   .     S
C975   O999    1.318   .     A
C976   C979    1.475   .     S
C976   O1000   1.316   .     A
C976   O1002   1.313   .     A
C977   C987    1.407   .     A
C977   C979    1.414   .     A
C977   O1003   1.388   .     S
C978   O1008   1.385   .     S
C978   C988    1.420   .     A
C978   C980    1.410   .     A
C979   C981    1.409   .     A
C980   C982    1.400   .     A
C981   C983    1.423   .     A
C981   C1013   1.488   .     S
C982   C1017   1.482   .     S
C982   C984    1.414   .     A
C983   C985    1.417   .     A
C983   C989    1.422   .     A
C984   C990    1.424   .     A
C984   C986    1.419   .     A
C985   C987    1.414   .     A
C985   C898    1.410   1_655 S
C986   C988    1.421   .     A
C989   C1021   1.484   .     S
C989   C883    1.414   1_655 S
C990   C1025   1.490   .     S
Cu991  N994    2.061   .     S
Cu991  Cu992   2.742   .     S
Cu991  O995    1.966   .     S
Cu991  O998    1.966   .     S
Cu991  O999    1.985   .     S
Cu991  O1002   1.966   .     S
Cu992  O997    1.966   .     S
Cu992  O1000   1.985   .     S
Cu992  N993    2.061   .     S
Cu992  O996    1.966   .     S
Cu992  O1001   1.966   .     S
N994   N1521   1.287   .     S
N994   C1581   1.412   .     S
O1003  C1004   1.409   .     S
C1004  H1005   1.097   .     S
C1004  H1007   1.105   .     S
C1004  H1006   1.110   .     S
O1008  C1009   1.410   .     S
C1009  H1010   1.101   .     S
C1009  H1011   1.116   .     S
C1009  H1012   1.106   .     S
C1013  O1015   1.397   .     S
C1013  O1014   1.221   .     D
O1015  H1016   1.013   .     S
C1017  O1019   1.396   .     S
C1017  O1018   1.223   .     D
O1019  H1020   1.010   .     S
C1021  O1022   1.220   .     D
O1023  H1024   1.013   .     S
O1023  C669    1.393   1_565 S
C1025  O1027   1.396   .     S
C1025  O674    1.220   1_565 S
O1027  H676    1.012   1_565 S
C1030  H1032   1.106   .     S
C1030  H1031   1.107   .     S
C1030  H1033   1.107   .     S
C1030  O677    1.412   1_565 S
O1034  C683    1.407   1_565 S
C1035  H1036   1.109   .     S
C1035  H1037   1.103   .     S
C1035  H1038   1.106   .     S
O1039  C1040   1.405   .     S
O1039  C621    1.388   1_565 S
C1040  H1043   1.106   .     S
C1040  H1041   1.111   .     S
C1040  H690    1.105   1_565 S
O1044  C1045   1.409   .     S
C1045  H1047   1.110   .     S
C1045  H1048   1.106   .     S
H1046  C693    1.109   1_565 S
C1049  O1050   1.223   .     D
C1049  O1051   1.395   .     S
C1049  N1521   1.411   .     S
O1051  H1052   1.013   .     S
C1053  O1055   1.394   .     S
C1053  O1054   1.222   .     D
O1055  H1056   1.011   .     S
C1057  C1061   1.455   .     S
C1057  O1085   1.316   .     A
C1057  O1083   1.302   .     A
C1058  C1062   1.454   .     S
C1058  O1086   1.314   .     A
C1058  O1084   1.305   .     A
C1059  O1117   1.389   .     S
C1059  C1076   1.421   .     A
C1059  C1165   1.414   1_455 S
C1060  O1122   1.393   .     S
C1060  C1075   1.413   .     A
C1060  C1166   1.418   .     S
C1061  C1414   1.349   1_545 S
C1061  O1479   1.388   1_545 S
C1062  C1237   1.349   .     S
C1062  O1308   1.389   .     S
C1063  O1089   1.310   .     A
C1063  C1068   1.468   .     S
C1063  O1087   1.318   .     A
C1064  C1067   1.475   .     S
C1064  O1088   1.316   .     A
C1064  O1090   1.313   .     A
C1065  C1075   1.407   .     A
C1065  C1067   1.414   .     A
C1065  O1091   1.388   .     S
C1066  O1096   1.385   .     S
C1066  C1076   1.420   .     A
C1066  C1068   1.410   .     A
C1067  C1069   1.409   .     A
C1068  C1070   1.400   .     A
C1069  C1071   1.423   .     A
C1069  C1101   1.488   .     S
C1070  C1105   1.482   .     S
C1070  C1072   1.414   .     A
C1071  C1073   1.417   .     A
C1071  C1077   1.422   .     A
C1072  C1078   1.424   .     A
C1072  C1074   1.419   .     A
C1073  C1075   1.414   .     A
C1073  C1162   1.410   .     S
C1074  C1076   1.421   .     A
C1074  C1161   1.410   1_455 S
C1077  C1109   1.484   .     S
C1077  C1147   1.414   .     S
C1078  C1113   1.490   .     S
C1078  C1148   1.418   1_455 S
Cu1079 N1082   2.061   .     S
Cu1079 Cu1080  2.742   .     S
Cu1079 O1083   1.966   .     S
Cu1079 O1086   1.966   .     S
Cu1079 O1087   1.985   .     S
Cu1079 O1090   1.966   .     S
Cu1080 O1085   1.966   .     S
Cu1080 O1088   1.985   .     S
Cu1080 N1081   2.061   .     S
Cu1080 O1084   1.966   .     S
Cu1080 O1089   1.966   .     S
N1082  N25     1.287   1_556 S
N1082  C85     1.412   1_556 S
O1091  C1092   1.409   .     S
C1092  H1093   1.097   .     S
C1092  H1095   1.105   .     S
C1092  H1094   1.110   .     S
O1096  C1097   1.410   .     S
C1097  H1098   1.101   .     S
C1097  H1099   1.116   .     S
C1097  H1100   1.106   .     S
C1101  O1103   1.397   .     S
C1101  O1102   1.221   .     D
O1103  H1104   1.013   .     S
C1105  O1107   1.396   .     S
C1105  O1106   1.223   .     D
O1107  H1108   1.010   .     S
C1109  O1110   1.220   .     D
C1109  O1463   1.393   1_545 S
O1111  H1112   1.013   .     S
O1111  C1285   1.393   .     S
C1113  O1115   1.396   .     S
C1113  O1290   1.220   .     S
O1114  C1465   1.220   1_545 S
O1115  H1292   1.012   .     S
H1116  O1467   1.012   1_545 S
O1117  C1470   1.412   1_545 S
C1118  H1120   1.106   .     S
C1118  H1119   1.107   .     S
C1118  H1121   1.107   .     S
C1118  O1293   1.412   .     S
O1122  C1299   1.407   .     S
C1123  H1124   1.109   .     S
C1123  H1125   1.103   .     S
C1123  H1126   1.106   .     S
C1123  O1474   1.407   1_545 S
O1127  C1128   1.405   .     S
O1127  C1237   1.388   .     S
C1128  H1131   1.106   .     S
C1128  H1129   1.111   .     S
C1128  H1306   1.105   .     S
H1130  C1480   1.105   1_545 S
O1132  C1133   1.409   .     S
O1132  C1414   1.389   1_545 S
C1133  H1135   1.110   .     S
C1133  H1136   1.106   .     S
C1133  H1486   1.109   1_545 S
H1134  C1309   1.109   .     S
C1137  O1138   1.223   .     D
C1137  O1139   1.395   .     S
C1137  N25     1.411   1_556 S
O1139  H1140   1.013   .     S
C1141  O1143   1.394   .     S
C1141  O1142   1.222   .     D
O1143  H1144   1.011   .     S
C1145  C1149   1.455   .     S
C1145  O1173   1.316   .     A
C1145  O1171   1.302   .     A
C1146  C1150   1.454   .     S
C1146  O1174   1.314   .     A
C1146  O1172   1.305   .     A
C1147  O1205   1.389   .     S
C1147  C1164   1.421   .     A
C1148  O1210   1.393   .     S
C1148  C1163   1.413   .     A
C1148  C1078   1.418   1_655 S
C1149  C1502   1.349   1_545 S
C1149  O1567   1.388   1_545 S
C1150  C1325   1.349   .     S
C1150  O1396   1.389   .     S
C1151  O1177   1.310   .     A
C1151  C1156   1.468   .     S
C1151  O1175   1.318   .     A
C1152  C1155   1.475   .     S
C1152  O1176   1.316   .     A
C1152  O1178   1.313   .     A
C1153  C1163   1.407   .     A
C1153  C1155   1.414   .     A
C1153  O1179   1.388   .     S
C1154  O1184   1.385   .     S
C1154  C1164   1.420   .     A
C1154  C1156   1.410   .     A
C1155  C1157   1.409   .     A
C1156  C1158   1.400   .     A
C1157  C1159   1.423   .     A
C1157  C1189   1.488   .     S
C1158  C1193   1.482   .     S
C1158  C1160   1.414   .     A
C1159  C1161   1.417   .     A
C1159  C1165   1.422   .     A
C1160  C1166   1.424   .     A
C1160  C1162   1.419   .     A
C1161  C1163   1.414   .     A
C1161  C1074   1.410   1_655 S
C1162  C1164   1.421   .     A
C1165  C1197   1.484   .     S
C1165  C1059   1.414   1_655 S
C1166  C1201   1.490   .     S
Cu1167 N1170   2.061   .     S
Cu1167 Cu1168  2.742   .     S
Cu1167 O1171   1.966   .     S
Cu1167 O1174   1.966   .     S
Cu1167 O1175   1.985   .     S
Cu1167 O1178   1.966   .     S
Cu1168 O1173   1.966   .     S
Cu1168 O1176   1.985   .     S
Cu1168 N1169   2.061   .     S
Cu1168 O1172   1.966   .     S
Cu1168 O1177   1.966   .     S
N1170  N113    1.287   1_556 S
N1170  C173    1.412   1_556 S
O1179  C1180   1.409   .     S
C1180  H1181   1.097   .     S
C1180  H1183   1.105   .     S
C1180  H1182   1.110   .     S
O1184  C1185   1.410   .     S
C1185  H1186   1.101   .     S
C1185  H1187   1.116   .     S
C1185  H1188   1.106   .     S
C1189  O1191   1.397   .     S
C1189  O1190   1.221   .     D
O1191  H1192   1.013   .     S
C1193  O1195   1.396   .     S
C1193  O1194   1.223   .     D
O1195  H1196   1.010   .     S
C1197  O1198   1.220   .     D
C1197  O1551   1.393   1_545 S
O1199  H1200   1.013   .     S
O1199  C1373   1.393   .     S
C1201  O1203   1.396   .     S
C1201  O1378   1.220   .     S
O1202  C1553   1.220   1_545 S
O1203  H1380   1.012   .     S
H1204  O1555   1.012   1_545 S
O1205  C1558   1.412   1_545 S
C1206  H1208   1.106   .     S
C1206  H1207   1.107   .     S
C1206  H1209   1.107   .     S
C1206  O1381   1.412   .     S
O1210  C1387   1.407   .     S
C1211  H1212   1.109   .     S
C1211  H1213   1.103   .     S
C1211  H1214   1.106   .     S
C1211  O1562   1.407   1_545 S
O1215  C1216   1.405   .     S
O1215  C1325   1.388   .     S
C1216  H1219   1.106   .     S
C1216  H1217   1.111   .     S
C1216  H1394   1.105   .     S
H1218  C1568   1.105   1_545 S
O1220  C1221   1.409   .     S
O1220  C1502   1.389   1_545 S
C1221  H1223   1.110   .     S
C1221  H1224   1.106   .     S
C1221  H1574   1.109   1_545 S
H1222  C1397   1.109   .     S
C1225  O1226   1.223   .     D
C1225  O1227   1.395   .     S
C1225  N113    1.411   1_556 S
O1227  H1228   1.013   .     S
C1229  O1231   1.394   .     S
C1229  O1230   1.222   .     D
O1231  H1232   1.011   .     S
C1233  C1237   1.455   .     S
C1233  O1261   1.316   .     A
C1233  O1259   1.302   .     A
C1234  C1238   1.454   .     S
C1234  O1262   1.314   .     A
C1234  O1260   1.305   .     A
C1235  O1293   1.389   .     S
C1235  C1252   1.421   .     A
C1235  C1341   1.414   1_455 S
C1236  O1298   1.393   .     S
C1236  C1251   1.413   .     A
C1236  C1342   1.418   .     S
C1238  C1413   1.349   .     S
C1238  O1484   1.389   .     S
C1239  O1265   1.310   .     A
C1239  C1244   1.468   .     S
C1239  O1263   1.318   .     A
C1240  C1243   1.475   .     S
C1240  O1264   1.316   .     A
C1240  O1266   1.313   .     A
C1241  C1251   1.407   .     A
C1241  C1243   1.414   .     A
C1241  O1267   1.388   .     S
C1242  O1272   1.385   .     S
C1242  C1252   1.420   .     A
C1242  C1244   1.410   .     A
C1243  C1245   1.409   .     A
C1244  C1246   1.400   .     A
C1245  C1247   1.423   .     A
C1245  C1277   1.488   .     S
C1246  C1281   1.482   .     S
C1246  C1248   1.414   .     A
C1247  C1249   1.417   .     A
C1247  C1253   1.422   .     A
C1248  C1254   1.424   .     A
C1248  C1250   1.419   .     A
C1249  C1251   1.414   .     A
C1249  C1338   1.410   .     S
C1250  C1252   1.421   .     A
C1250  C1337   1.410   1_455 S
C1253  C1285   1.484   .     S
C1253  C1323   1.414   .     S
C1254  C1289   1.490   .     S
C1254  C1324   1.418   1_455 S
Cu1255 N1258   2.061   .     S
Cu1255 Cu1256  2.742   .     S
Cu1255 O1259   1.966   .     S
Cu1255 O1262   1.966   .     S
Cu1255 O1263   1.985   .     S
Cu1255 O1266   1.966   .     S
Cu1256 O1261   1.966   .     S
Cu1256 O1264   1.985   .     S
Cu1256 N1257   2.061   .     S
Cu1256 O1260   1.966   .     S
Cu1256 O1265   1.966   .     S
N1258  N201    1.287   1_556 S
N1258  C261    1.412   1_556 S
O1267  C1268   1.409   .     S
C1268  H1269   1.097   .     S
C1268  H1271   1.105   .     S
C1268  H1270   1.110   .     S
O1272  C1273   1.410   .     S
C1273  H1274   1.101   .     S
C1273  H1275   1.116   .     S
C1273  H1276   1.106   .     S
C1277  O1279   1.397   .     S
C1277  O1278   1.221   .     D
O1279  H1280   1.013   .     S
C1281  O1283   1.396   .     S
C1281  O1282   1.223   .     D
O1283  H1284   1.010   .     S
C1285  O1286   1.220   .     D
O1287  H1288   1.013   .     S
O1287  C1461   1.393   .     S
C1289  O1291   1.396   .     S
C1289  O1466   1.220   .     S
O1291  H1468   1.012   .     S
C1294  H1296   1.106   .     S
C1294  H1295   1.107   .     S
C1294  H1297   1.107   .     S
C1294  O1469   1.412   .     S
O1298  C1475   1.407   .     S
C1299  H1300   1.109   .     S
C1299  H1301   1.103   .     S
C1299  H1302   1.106   .     S
O1303  C1304   1.405   .     S
O1303  C1413   1.388   .     S
C1304  H1307   1.106   .     S
C1304  H1305   1.111   .     S
C1304  H1482   1.105   .     S
O1308  C1309   1.409   .     S
C1309  H1311   1.110   .     S
C1309  H1312   1.106   .     S
H1310  C1485   1.109   .     S
C1313  O1314   1.223   .     D
C1313  O1315   1.395   .     S
C1313  N201    1.411   1_556 S
O1315  H1316   1.013   .     S
C1317  O1319   1.394   .     S
C1317  O1318   1.222   .     D
O1319  H1320   1.011   .     S
C1321  C1325   1.455   .     S
C1321  O1349   1.316   .     A
C1321  O1347   1.302   .     A
C1322  C1326   1.454   .     S
C1322  O1350   1.314   .     A
C1322  O1348   1.305   .     A
C1323  O1381   1.389   .     S
C1323  C1340   1.421   .     A
C1324  O1386   1.393   .     S
C1324  C1339   1.413   .     A
C1324  C1254   1.418   1_655 S
C1326  C1501   1.349   .     S
C1326  O1572   1.389   .     S
C1327  O1353   1.310   .     A
C1327  C1332   1.468   .     S
C1327  O1351   1.318   .     A
C1328  C1331   1.475   .     S
C1328  O1352   1.316   .     A
C1328  O1354   1.313   .     A
C1329  C1339   1.407   .     A
C1329  C1331   1.414   .     A
C1329  O1355   1.388   .     S
C1330  O1360   1.385   .     S
C1330  C1340   1.420   .     A
C1330  C1332   1.410   .     A
C1331  C1333   1.409   .     A
C1332  C1334   1.400   .     A
C1333  C1335   1.423   .     A
C1333  C1365   1.488   .     S
C1334  C1369   1.482   .     S
C1334  C1336   1.414   .     A
C1335  C1337   1.417   .     A
C1335  C1341   1.422   .     A
C1336  C1342   1.424   .     A
C1336  C1338   1.419   .     A
C1337  C1339   1.414   .     A
C1337  C1250   1.410   1_655 S
C1338  C1340   1.421   .     A
C1341  C1373   1.484   .     S
C1341  C1235   1.414   1_655 S
C1342  C1377   1.490   .     S
Cu1343 N1346   2.061   .     S
Cu1343 Cu1344  2.742   .     S
Cu1343 O1347   1.966   .     S
Cu1343 O1350   1.966   .     S
Cu1343 O1351   1.985   .     S
Cu1343 O1354   1.966   .     S
Cu1344 O1349   1.966   .     S
Cu1344 O1352   1.985   .     S
Cu1344 N1345   2.061   .     S
Cu1344 O1348   1.966   .     S
Cu1344 O1353   1.966   .     S
N1346  N289    1.287   1_556 S
N1346  C349    1.412   1_556 S
O1355  C1356   1.409   .     S
C1356  H1357   1.097   .     S
C1356  H1359   1.105   .     S
C1356  H1358   1.110   .     S
O1360  C1361   1.410   .     S
C1361  H1362   1.101   .     S
C1361  H1363   1.116   .     S
C1361  H1364   1.106   .     S
C1365  O1367   1.397   .     S
C1365  O1366   1.221   .     D
O1367  H1368   1.013   .     S
C1369  O1371   1.396   .     S
C1369  O1370   1.223   .     D
O1371  H1372   1.010   .     S
C1373  O1374   1.220   .     D
O1375  H1376   1.013   .     S
O1375  C1549   1.393   .     S
C1377  O1379   1.396   .     S
C1377  O1554   1.220   .     S
O1379  H1556   1.012   .     S
C1382  H1384   1.106   .     S
C1382  H1383   1.107   .     S
C1382  H1385   1.107   .     S
C1382  O1557   1.412   .     S
O1386  C1563   1.407   .     S
C1387  H1388   1.109   .     S
C1387  H1389   1.103   .     S
C1387  H1390   1.106   .     S
O1391  C1392   1.405   .     S
O1391  C1501   1.388   .     S
C1392  H1395   1.106   .     S
C1392  H1393   1.111   .     S
C1392  H1570   1.105   .     S
O1396  C1397   1.409   .     S
C1397  H1399   1.110   .     S
C1397  H1400   1.106   .     S
H1398  C1573   1.109   .     S
C1401  O1402   1.223   .     D
C1401  O1403   1.395   .     S
C1401  N289    1.411   1_556 S
O1403  H1404   1.013   .     S
C1405  O1407   1.394   .     S
C1405  O1406   1.222   .     D
O1407  H1408   1.011   .     S
C1409  C1413   1.455   .     S
C1409  O1437   1.316   .     A
C1409  O1435   1.302   .     A
C1410  C1414   1.454   .     S
C1410  O1438   1.314   .     A
C1410  O1436   1.305   .     A
C1411  O1469   1.389   .     S
C1411  C1428   1.421   .     A
C1411  C1517   1.414   1_455 S
C1412  O1474   1.393   .     S
C1412  C1427   1.413   .     A
C1412  C1518   1.418   .     S
C1414  C1061   1.349   1_565 S
C1414  O1132   1.389   1_565 S
C1415  O1441   1.310   .     A
C1415  C1420   1.468   .     S
C1415  O1439   1.318   .     A
C1416  C1419   1.475   .     S
C1416  O1440   1.316   .     A
C1416  O1442   1.313   .     A
C1417  C1427   1.407   .     A
C1417  C1419   1.414   .     A
C1417  O1443   1.388   .     S
C1418  O1448   1.385   .     S
C1418  C1428   1.420   .     A
C1418  C1420   1.410   .     A
C1419  C1421   1.409   .     A
C1420  C1422   1.400   .     A
C1421  C1423   1.423   .     A
C1421  C1453   1.488   .     S
C1422  C1457   1.482   .     S
C1422  C1424   1.414   .     A
C1423  C1425   1.417   .     A
C1423  C1429   1.422   .     A
C1424  C1430   1.424   .     A
C1424  C1426   1.419   .     A
C1425  C1427   1.414   .     A
C1425  C1514   1.410   .     S
C1426  C1428   1.421   .     A
C1426  C1513   1.410   1_455 S
C1429  C1461   1.484   .     S
C1429  C1499   1.414   .     S
C1430  C1465   1.490   .     S
C1430  C1500   1.418   1_455 S
Cu1431 N1434   2.061   .     S
Cu1431 Cu1432  2.742   .     S
Cu1431 O1435   1.966   .     S
Cu1431 O1438   1.966   .     S
Cu1431 O1439   1.985   .     S
Cu1431 O1442   1.966   .     S
Cu1432 O1437   1.966   .     S
Cu1432 O1440   1.985   .     S
Cu1432 N1433   2.061   .     S
Cu1432 O1436   1.966   .     S
Cu1432 O1441   1.966   .     S
N1434  N377    1.287   1_556 S
N1434  C437    1.412   1_556 S
O1443  C1444   1.409   .     S
C1444  H1445   1.097   .     S
C1444  H1447   1.105   .     S
C1444  H1446   1.110   .     S
O1448  C1449   1.410   .     S
C1449  H1450   1.101   .     S
C1449  H1451   1.116   .     S
C1449  H1452   1.106   .     S
C1453  O1455   1.397   .     S
C1453  O1454   1.221   .     D
O1455  H1456   1.013   .     S
C1457  O1459   1.396   .     S
C1457  O1458   1.223   .     D
O1459  H1460   1.010   .     S
C1461  O1462   1.220   .     D
O1463  H1464   1.013   .     S
O1463  C1109   1.393   1_565 S
C1465  O1467   1.396   .     S
C1465  O1114   1.220   1_565 S
O1467  H1116   1.012   1_565 S
C1470  H1472   1.106   .     S
C1470  H1471   1.107   .     S
C1470  H1473   1.107   .     S
C1470  O1117   1.412   1_565 S
O1474  C1123   1.407   1_565 S
C1475  H1476   1.109   .     S
C1475  H1477   1.103   .     S
C1475  H1478   1.106   .     S
O1479  C1480   1.405   .     S
O1479  C1061   1.388   1_565 S
C1480  H1483   1.106   .     S
C1480  H1481   1.111   .     S
C1480  H1130   1.105   1_565 S
O1484  C1485   1.409   .     S
C1485  H1487   1.110   .     S
C1485  H1488   1.106   .     S
H1486  C1133   1.109   1_565 S
C1489  O1490   1.223   .     D
C1489  O1491   1.395   .     S
C1489  N377    1.411   1_556 S
O1491  H1492   1.013   .     S
C1493  O1495   1.394   .     S
C1493  O1494   1.222   .     D
O1495  H1496   1.011   .     S
C1497  C1501   1.455   .     S
C1497  O1525   1.316   .     A
C1497  O1523   1.302   .     A
C1498  C1502   1.454   .     S
C1498  O1526   1.314   .     A
C1498  O1524   1.305   .     A
C1499  O1557   1.389   .     S
C1499  C1516   1.421   .     A
C1500  O1562   1.393   .     S
C1500  C1515   1.413   .     A
C1500  C1430   1.418   1_655 S
C1502  C1149   1.349   1_565 S
C1502  O1220   1.389   1_565 S
C1503  O1529   1.310   .     A
C1503  C1508   1.468   .     S
C1503  O1527   1.318   .     A
C1504  C1507   1.475   .     S
C1504  O1528   1.316   .     A
C1504  O1530   1.313   .     A
C1505  C1515   1.407   .     A
C1505  C1507   1.414   .     A
C1505  O1531   1.388   .     S
C1506  O1536   1.385   .     S
C1506  C1516   1.420   .     A
C1506  C1508   1.410   .     A
C1507  C1509   1.409   .     A
C1508  C1510   1.400   .     A
C1509  C1511   1.423   .     A
C1509  C1541   1.488   .     S
C1510  C1545   1.482   .     S
C1510  C1512   1.414   .     A
C1511  C1513   1.417   .     A
C1511  C1517   1.422   .     A
C1512  C1518   1.424   .     A
C1512  C1514   1.419   .     A
C1513  C1515   1.414   .     A
C1513  C1426   1.410   1_655 S
C1514  C1516   1.421   .     A
C1517  C1549   1.484   .     S
C1517  C1411   1.414   1_655 S
C1518  C1553   1.490   .     S
Cu1519 N1522   2.061   .     S
Cu1519 Cu1520  2.742   .     S
Cu1519 O1523   1.966   .     S
Cu1519 O1526   1.966   .     S
Cu1519 O1527   1.985   .     S
Cu1519 O1530   1.966   .     S
Cu1520 O1525   1.966   .     S
Cu1520 O1528   1.985   .     S
Cu1520 N1521   2.061   .     S
Cu1520 O1524   1.966   .     S
Cu1520 O1529   1.966   .     S
N1522  N465    1.287   1_556 S
N1522  C525    1.412   1_556 S
O1531  C1532   1.409   .     S
C1532  H1533   1.097   .     S
C1532  H1535   1.105   .     S
C1532  H1534   1.110   .     S
O1536  C1537   1.410   .     S
C1537  H1538   1.101   .     S
C1537  H1539   1.116   .     S
C1537  H1540   1.106   .     S
C1541  O1543   1.397   .     S
C1541  O1542   1.221   .     D
O1543  H1544   1.013   .     S
C1545  O1547   1.396   .     S
C1545  O1546   1.223   .     D
O1547  H1548   1.010   .     S
C1549  O1550   1.220   .     D
O1551  H1552   1.013   .     S
O1551  C1197   1.393   1_565 S
C1553  O1555   1.396   .     S
C1553  O1202   1.220   1_565 S
O1555  H1204   1.012   1_565 S
C1558  H1560   1.106   .     S
C1558  H1559   1.107   .     S
C1558  H1561   1.107   .     S
C1558  O1205   1.412   1_565 S
O1562  C1211   1.407   1_565 S
C1563  H1564   1.109   .     S
C1563  H1565   1.103   .     S
C1563  H1566   1.106   .     S
O1567  C1568   1.405   .     S
O1567  C1149   1.388   1_565 S
C1568  H1571   1.106   .     S
C1568  H1569   1.111   .     S
C1568  H1218   1.105   1_565 S
O1572  C1573   1.409   .     S
C1573  H1575   1.110   .     S
C1573  H1576   1.106   .     S
H1574  C1221   1.109   1_565 S
C1577  O1578   1.223   .     D
C1577  O1579   1.395   .     S
C1577  N465    1.411   1_556 S
O1579  H1580   1.013   .     S
C1581  O1583   1.394   .     S
C1581  O1582   1.222   .     D
O1583  H1584   1.011   .     S
