data_str_m2_o2_o10_pcu_sym.74
_audit_creation_date              2020-01-03
_audit_creation_method            'Materials Studio'
_symmetry_space_group_name_H-M    'P1'
_symmetry_Int_Tables_number       1
_symmetry_cell_setting            triclinic
loop_
_symmetry_equiv_pos_as_xyz
  x,y,z
_cell_length_a                    26.2728
_cell_length_b                    30.2704
_cell_length_c                    27.9250
_cell_angle_alpha                 89.2115
_cell_angle_beta                  96.7977
_cell_angle_gamma                 91.5030
loop_
_atom_site_label
_atom_site_type_symbol
_atom_site_fract_x
_atom_site_fract_y
_atom_site_fract_z
_atom_site_U_iso_or_equiv
_atom_site_adp_type
_atom_site_occupancy
Br1    Br    0.32043   0.20330   0.18116   0.00000  Uiso   1.00
Br2    Br    0.01294   0.29661   0.31891   0.00000  Uiso   1.00
Br3    Br    0.20733   0.34345   0.03288   0.00000  Uiso   1.00
Br4    Br    0.12619   0.15683   0.46787   0.00000  Uiso   1.00
Br5    Br    0.24732   0.31711   0.14460   0.00000  Uiso   1.00
Br6    Br    0.08766   0.18147   0.35542   0.00000  Uiso   1.00
C7     C     0.16632   0.16504   0.25021   0.00000  Uiso   1.00
C8     C     0.20314   0.27471   0.44888   0.00000  Uiso   1.00
C9     C     0.16454   0.25235   0.02720   0.00000  Uiso   1.00
C10    C     0.16851   0.24810   0.47277   0.00000  Uiso   1.00
C11    C     0.06821   0.24935   0.23814   0.00000  Uiso   1.00
C12    C     0.26513   0.25063   0.26187   0.00000  Uiso   1.00
C13    C     0.01380   0.24241   0.23308   0.00000  Uiso   1.00
C14    C     0.31954   0.25754   0.26694   0.00000  Uiso   1.00
C15    C     0.18205   0.04738   0.29243   0.00000  Uiso   1.00
C16    C     0.17687   0.45351   0.20925   0.00000  Uiso   1.00
C17    C     0.18224   0.09333   0.29268   0.00000  Uiso   1.00
C18    C     0.16629   0.33500   0.24973   0.00000  Uiso   1.00
C19    C     0.17693   0.40759   0.20889   0.00000  Uiso   1.00
C20    C     0.16525   0.11682   0.25048   0.00000  Uiso   1.00
C21    C     0.16515   0.38329   0.24939   0.00000  Uiso   1.00
C22    C     0.14726   0.09395   0.20829   0.00000  Uiso   1.00
C23    C     0.15228   0.40549   0.28989   0.00000  Uiso   1.00
C24    C     0.14627   0.04805   0.20824   0.00000  Uiso   1.00
C25    C     0.15138   0.45136   0.28996   0.00000  Uiso   1.00
C26    C     0.16404   0.02436   0.25020   0.00000  Uiso   1.00
C27    C     0.16405   0.47578   0.24978   0.00000  Uiso   1.00
C28    C     0.19257   0.28465   0.05678   0.00000  Uiso   1.00
C29    C     0.14099   0.21540   0.44334   0.00000  Uiso   1.00
C30    C     0.19723   0.27983   0.10752   0.00000  Uiso   1.00
C31    C     0.13657   0.21983   0.39255   0.00000  Uiso   1.00
C32    C     0.13171   0.22477   0.10149   0.00000  Uiso   1.00
C33    C     0.20110   0.27577   0.39841   0.00000  Uiso   1.00
C34    C     0.12956   0.22603   0.05099   0.00000  Uiso   1.00
Cu35   Cu    0.16667   0.24999   0.29821   0.00000  Uiso   1.00
Cu36   Cu    0.16667   0.25000   0.20178   0.00000  Uiso   1.00
H37    H     0.19674   0.02993   0.32506   0.00000  Uiso   1.00
H38    H     0.14032   0.46767   0.32127   0.00000  Uiso   1.00
H39    H     0.10469   0.20395   0.11836   0.00000  Uiso   1.00
H40    H     0.22782   0.29686   0.38147   0.00000  Uiso   1.00
H41    H     0.18754   0.47155   0.17806   0.00000  Uiso   1.00
H42    H     0.19653   0.11045   0.32555   0.00000  Uiso   1.00
H43    H     0.18685   0.39124   0.17719   0.00000  Uiso   1.00
H44    H     0.09810   0.20821   0.03136   0.00000  Uiso   1.00
H45    H     0.23435   0.29292   0.46838   0.00000  Uiso   1.00
H46    H     0.13337   0.11153   0.17547   0.00000  Uiso   1.00
H47    H     0.14239   0.38742   0.32139   0.00000  Uiso   1.00
H48    H     0.13119   0.03112   0.17549   0.00000  Uiso   1.00
N49    N     0.16667   0.25001   0.12934   0.00000  Uiso   1.00
N50    N     0.16667   0.24999   0.37066   0.00000  Uiso   1.00
O51    O     0.16667   0.18572   0.29072   0.00000  Uiso   1.00
O52    O     0.16666   0.31427   0.20928   0.00000  Uiso   1.00
O53    O     0.16667   0.18573   0.20928   0.00000  Uiso   1.00
O54    O     0.16666   0.31427   0.29072   0.00000  Uiso   1.00
O55    O     0.09161   0.24999   0.28132   0.00000  Uiso   1.00
O56    O     0.24172   0.25000   0.21868   0.00000  Uiso   1.00
O57    O     0.09161   0.25000   0.19988   0.00000  Uiso   1.00
O58    O     0.24172   0.25000   0.30012   0.00000  Uiso   1.00
Br59   Br    0.65377   0.20330   0.18116   0.00000  Uiso   1.00
Br60   Br    0.34627   0.29661   0.31891   0.00000  Uiso   1.00
Br61   Br    0.54066   0.34345   0.03288   0.00000  Uiso   1.00
Br62   Br    0.45952   0.15683   0.46787   0.00000  Uiso   1.00
Br63   Br    0.58066   0.31711   0.14460   0.00000  Uiso   1.00
Br64   Br    0.42100   0.18147   0.35542   0.00000  Uiso   1.00
C65    C     0.49965   0.16504   0.25021   0.00000  Uiso   1.00
C66    C     0.53647   0.27471   0.44888   0.00000  Uiso   1.00
C67    C     0.49787   0.25235   0.02720   0.00000  Uiso   1.00
C68    C     0.50185   0.24810   0.47277   0.00000  Uiso   1.00
C69    C     0.40154   0.24935   0.23814   0.00000  Uiso   1.00
C70    C     0.59846   0.25063   0.26187   0.00000  Uiso   1.00
C71    C     0.34713   0.24241   0.23308   0.00000  Uiso   1.00
C72    C     0.65288   0.25754   0.26694   0.00000  Uiso   1.00
C73    C     0.51538   0.04738   0.29243   0.00000  Uiso   1.00
C74    C     0.51020   0.45351   0.20925   0.00000  Uiso   1.00
C75    C     0.51557   0.09333   0.29268   0.00000  Uiso   1.00
C76    C     0.49963   0.33500   0.24973   0.00000  Uiso   1.00
C77    C     0.51026   0.40759   0.20889   0.00000  Uiso   1.00
C78    C     0.49858   0.11682   0.25048   0.00000  Uiso   1.00
C79    C     0.49848   0.38329   0.24939   0.00000  Uiso   1.00
C80    C     0.48059   0.09395   0.20829   0.00000  Uiso   1.00
C81    C     0.48562   0.40549   0.28989   0.00000  Uiso   1.00
C82    C     0.47961   0.04805   0.20824   0.00000  Uiso   1.00
C83    C     0.48472   0.45136   0.28996   0.00000  Uiso   1.00
C84    C     0.49737   0.02436   0.25020   0.00000  Uiso   1.00
C85    C     0.49738   0.47578   0.24978   0.00000  Uiso   1.00
C86    C     0.52590   0.28465   0.05678   0.00000  Uiso   1.00
C87    C     0.47433   0.21540   0.44334   0.00000  Uiso   1.00
C88    C     0.53057   0.27983   0.10752   0.00000  Uiso   1.00
C89    C     0.46990   0.21983   0.39255   0.00000  Uiso   1.00
C90    C     0.46504   0.22477   0.10149   0.00000  Uiso   1.00
C91    C     0.53443   0.27577   0.39841   0.00000  Uiso   1.00
C92    C     0.46290   0.22603   0.05099   0.00000  Uiso   1.00
Cu93   Cu    0.50000   0.24999   0.29821   0.00000  Uiso   1.00
Cu94   Cu    0.50000   0.25000   0.20178   0.00000  Uiso   1.00
H95    H     0.53007   0.02993   0.32506   0.00000  Uiso   1.00
H96    H     0.47366   0.46767   0.32127   0.00000  Uiso   1.00
H97    H     0.43802   0.20395   0.11836   0.00000  Uiso   1.00
H98    H     0.56115   0.29686   0.38147   0.00000  Uiso   1.00
H99    H     0.52087   0.47155   0.17806   0.00000  Uiso   1.00
H100   H     0.52986   0.11045   0.32555   0.00000  Uiso   1.00
H101   H     0.52018   0.39124   0.17719   0.00000  Uiso   1.00
H102   H     0.43143   0.20821   0.03136   0.00000  Uiso   1.00
H103   H     0.56768   0.29292   0.46838   0.00000  Uiso   1.00
H104   H     0.46670   0.11153   0.17547   0.00000  Uiso   1.00
H105   H     0.47573   0.38742   0.32139   0.00000  Uiso   1.00
H106   H     0.46452   0.03112   0.17549   0.00000  Uiso   1.00
N107   N     0.50000   0.25001   0.12934   0.00000  Uiso   1.00
N108   N     0.50000   0.24999   0.37066   0.00000  Uiso   1.00
O109   O     0.50000   0.18572   0.29072   0.00000  Uiso   1.00
O110   O     0.50000   0.31427   0.20928   0.00000  Uiso   1.00
O111   O     0.50000   0.18573   0.20928   0.00000  Uiso   1.00
O112   O     0.50000   0.31427   0.29072   0.00000  Uiso   1.00
O113   O     0.42495   0.24999   0.28132   0.00000  Uiso   1.00
O114   O     0.57505   0.25000   0.21868   0.00000  Uiso   1.00
O115   O     0.42495   0.25000   0.19988   0.00000  Uiso   1.00
O116   O     0.57505   0.25000   0.30012   0.00000  Uiso   1.00
Br117  Br    0.98710   0.20330   0.18116   0.00000  Uiso   1.00
Br118  Br    0.67961   0.29661   0.31891   0.00000  Uiso   1.00
Br119  Br    0.87400   0.34345   0.03288   0.00000  Uiso   1.00
Br120  Br    0.79285   0.15683   0.46787   0.00000  Uiso   1.00
Br121  Br    0.91399   0.31711   0.14460   0.00000  Uiso   1.00
Br122  Br    0.75433   0.18147   0.35542   0.00000  Uiso   1.00
C123   C     0.83298   0.16504   0.25021   0.00000  Uiso   1.00
C124   C     0.86980   0.27471   0.44888   0.00000  Uiso   1.00
C125   C     0.83121   0.25235   0.02720   0.00000  Uiso   1.00
C126   C     0.83518   0.24810   0.47277   0.00000  Uiso   1.00
C127   C     0.73487   0.24935   0.23814   0.00000  Uiso   1.00
C128   C     0.93179   0.25063   0.26187   0.00000  Uiso   1.00
C129   C     0.68047   0.24241   0.23308   0.00000  Uiso   1.00
C130   C     0.98621   0.25754   0.26694   0.00000  Uiso   1.00
C131   C     0.84872   0.04738   0.29243   0.00000  Uiso   1.00
C132   C     0.84354   0.45351   0.20925   0.00000  Uiso   1.00
C133   C     0.84890   0.09333   0.29268   0.00000  Uiso   1.00
C134   C     0.83296   0.33500   0.24973   0.00000  Uiso   1.00
C135   C     0.84360   0.40759   0.20889   0.00000  Uiso   1.00
C136   C     0.83191   0.11682   0.25048   0.00000  Uiso   1.00
C137   C     0.83182   0.38329   0.24939   0.00000  Uiso   1.00
C138   C     0.81393   0.09395   0.20829   0.00000  Uiso   1.00
C139   C     0.81895   0.40549   0.28989   0.00000  Uiso   1.00
C140   C     0.81294   0.04805   0.20824   0.00000  Uiso   1.00
C141   C     0.81805   0.45136   0.28996   0.00000  Uiso   1.00
C142   C     0.83070   0.02436   0.25020   0.00000  Uiso   1.00
C143   C     0.83071   0.47578   0.24978   0.00000  Uiso   1.00
C144   C     0.85923   0.28465   0.05678   0.00000  Uiso   1.00
C145   C     0.80766   0.21540   0.44334   0.00000  Uiso   1.00
C146   C     0.86390   0.27983   0.10752   0.00000  Uiso   1.00
C147   C     0.80324   0.21983   0.39255   0.00000  Uiso   1.00
C148   C     0.79837   0.22477   0.10149   0.00000  Uiso   1.00
C149   C     0.86776   0.27577   0.39841   0.00000  Uiso   1.00
C150   C     0.79623   0.22603   0.05099   0.00000  Uiso   1.00
Cu151  Cu    0.83333   0.24999   0.29821   0.00000  Uiso   1.00
Cu152  Cu    0.83333   0.25000   0.20178   0.00000  Uiso   1.00
H153   H     0.86341   0.02993   0.32506   0.00000  Uiso   1.00
H154   H     0.80699   0.46767   0.32127   0.00000  Uiso   1.00
H155   H     0.77135   0.20395   0.11836   0.00000  Uiso   1.00
H156   H     0.89448   0.29686   0.38147   0.00000  Uiso   1.00
H157   H     0.85420   0.47155   0.17806   0.00000  Uiso   1.00
H158   H     0.86320   0.11045   0.32555   0.00000  Uiso   1.00
H159   H     0.85351   0.39124   0.17719   0.00000  Uiso   1.00
H160   H     0.76476   0.20821   0.03136   0.00000  Uiso   1.00
H161   H     0.90101   0.29292   0.46838   0.00000  Uiso   1.00
H162   H     0.80003   0.11153   0.17547   0.00000  Uiso   1.00
H163   H     0.80906   0.38742   0.32139   0.00000  Uiso   1.00
H164   H     0.79786   0.03112   0.17549   0.00000  Uiso   1.00
N165   N     0.83333   0.25001   0.12934   0.00000  Uiso   1.00
N166   N     0.83333   0.24999   0.37066   0.00000  Uiso   1.00
O167   O     0.83334   0.18572   0.29072   0.00000  Uiso   1.00
O168   O     0.83333   0.31427   0.20928   0.00000  Uiso   1.00
O169   O     0.83334   0.18573   0.20928   0.00000  Uiso   1.00
O170   O     0.83333   0.31427   0.29072   0.00000  Uiso   1.00
O171   O     0.75828   0.24999   0.28132   0.00000  Uiso   1.00
O172   O     0.90839   0.25000   0.21868   0.00000  Uiso   1.00
O173   O     0.75828   0.25000   0.19988   0.00000  Uiso   1.00
O174   O     0.90839   0.25000   0.30012   0.00000  Uiso   1.00
Br175  Br    0.32043   0.70330   0.18116   0.00000  Uiso   1.00
Br176  Br    0.01294   0.79661   0.31891   0.00000  Uiso   1.00
Br177  Br    0.20733   0.84345   0.03288   0.00000  Uiso   1.00
Br178  Br    0.12619   0.65683   0.46787   0.00000  Uiso   1.00
Br179  Br    0.24732   0.81711   0.14460   0.00000  Uiso   1.00
Br180  Br    0.08766   0.68147   0.35542   0.00000  Uiso   1.00
C181   C     0.16632   0.66504   0.25021   0.00000  Uiso   1.00
C182   C     0.20314   0.77471   0.44888   0.00000  Uiso   1.00
C183   C     0.16454   0.75235   0.02720   0.00000  Uiso   1.00
C184   C     0.16851   0.74810   0.47277   0.00000  Uiso   1.00
C185   C     0.06821   0.74935   0.23814   0.00000  Uiso   1.00
C186   C     0.26513   0.75063   0.26187   0.00000  Uiso   1.00
C187   C     0.01380   0.74241   0.23308   0.00000  Uiso   1.00
C188   C     0.31954   0.75754   0.26694   0.00000  Uiso   1.00
C189   C     0.18205   0.54738   0.29243   0.00000  Uiso   1.00
C190   C     0.17687   0.95351   0.20925   0.00000  Uiso   1.00
C191   C     0.18224   0.59333   0.29268   0.00000  Uiso   1.00
C192   C     0.16629   0.83500   0.24973   0.00000  Uiso   1.00
C193   C     0.17693   0.90759   0.20889   0.00000  Uiso   1.00
C194   C     0.16525   0.61682   0.25048   0.00000  Uiso   1.00
C195   C     0.16515   0.88329   0.24939   0.00000  Uiso   1.00
C196   C     0.14726   0.59395   0.20829   0.00000  Uiso   1.00
C197   C     0.15228   0.90549   0.28989   0.00000  Uiso   1.00
C198   C     0.14627   0.54805   0.20824   0.00000  Uiso   1.00
C199   C     0.15138   0.95136   0.28996   0.00000  Uiso   1.00
C200   C     0.16404   0.52436   0.25020   0.00000  Uiso   1.00
C201   C     0.16405   0.97578   0.24978   0.00000  Uiso   1.00
C202   C     0.19257   0.78465   0.05678   0.00000  Uiso   1.00
C203   C     0.14099   0.71540   0.44334   0.00000  Uiso   1.00
C204   C     0.19723   0.77983   0.10752   0.00000  Uiso   1.00
C205   C     0.13657   0.71983   0.39255   0.00000  Uiso   1.00
C206   C     0.13171   0.72477   0.10149   0.00000  Uiso   1.00
C207   C     0.20110   0.77577   0.39841   0.00000  Uiso   1.00
C208   C     0.12956   0.72603   0.05099   0.00000  Uiso   1.00
Cu209  Cu    0.16667   0.74999   0.29821   0.00000  Uiso   1.00
Cu210  Cu    0.16667   0.75000   0.20178   0.00000  Uiso   1.00
H211   H     0.19674   0.52993   0.32506   0.00000  Uiso   1.00
H212   H     0.14032   0.96767   0.32127   0.00000  Uiso   1.00
H213   H     0.10469   0.70395   0.11836   0.00000  Uiso   1.00
H214   H     0.22782   0.79686   0.38147   0.00000  Uiso   1.00
H215   H     0.18754   0.97155   0.17806   0.00000  Uiso   1.00
H216   H     0.19653   0.61045   0.32555   0.00000  Uiso   1.00
H217   H     0.18685   0.89124   0.17719   0.00000  Uiso   1.00
H218   H     0.09810   0.70821   0.03136   0.00000  Uiso   1.00
H219   H     0.23435   0.79292   0.46838   0.00000  Uiso   1.00
H220   H     0.13337   0.61153   0.17547   0.00000  Uiso   1.00
H221   H     0.14239   0.88742   0.32139   0.00000  Uiso   1.00
H222   H     0.13119   0.53112   0.17549   0.00000  Uiso   1.00
N223   N     0.16667   0.75001   0.12934   0.00000  Uiso   1.00
N224   N     0.16667   0.74999   0.37066   0.00000  Uiso   1.00
O225   O     0.16667   0.68572   0.29072   0.00000  Uiso   1.00
O226   O     0.16666   0.81427   0.20928   0.00000  Uiso   1.00
O227   O     0.16667   0.68573   0.20928   0.00000  Uiso   1.00
O228   O     0.16666   0.81427   0.29072   0.00000  Uiso   1.00
O229   O     0.09161   0.74999   0.28132   0.00000  Uiso   1.00
O230   O     0.24172   0.75000   0.21868   0.00000  Uiso   1.00
O231   O     0.09161   0.75000   0.19988   0.00000  Uiso   1.00
O232   O     0.24172   0.75000   0.30012   0.00000  Uiso   1.00
Br233  Br    0.65377   0.70330   0.18116   0.00000  Uiso   1.00
Br234  Br    0.34627   0.79661   0.31891   0.00000  Uiso   1.00
Br235  Br    0.54066   0.84345   0.03288   0.00000  Uiso   1.00
Br236  Br    0.45952   0.65683   0.46787   0.00000  Uiso   1.00
Br237  Br    0.58066   0.81711   0.14460   0.00000  Uiso   1.00
Br238  Br    0.42100   0.68147   0.35542   0.00000  Uiso   1.00
C239   C     0.49965   0.66504   0.25021   0.00000  Uiso   1.00
C240   C     0.53647   0.77471   0.44888   0.00000  Uiso   1.00
C241   C     0.49787   0.75235   0.02720   0.00000  Uiso   1.00
C242   C     0.50185   0.74810   0.47277   0.00000  Uiso   1.00
C243   C     0.40154   0.74935   0.23814   0.00000  Uiso   1.00
C244   C     0.59846   0.75063   0.26187   0.00000  Uiso   1.00
C245   C     0.34713   0.74241   0.23308   0.00000  Uiso   1.00
C246   C     0.65288   0.75754   0.26694   0.00000  Uiso   1.00
C247   C     0.51538   0.54738   0.29243   0.00000  Uiso   1.00
C248   C     0.51020   0.95351   0.20925   0.00000  Uiso   1.00
C249   C     0.51557   0.59333   0.29268   0.00000  Uiso   1.00
C250   C     0.49963   0.83500   0.24973   0.00000  Uiso   1.00
C251   C     0.51026   0.90759   0.20889   0.00000  Uiso   1.00
C252   C     0.49858   0.61682   0.25048   0.00000  Uiso   1.00
C253   C     0.49848   0.88329   0.24939   0.00000  Uiso   1.00
C254   C     0.48059   0.59395   0.20829   0.00000  Uiso   1.00
C255   C     0.48562   0.90549   0.28989   0.00000  Uiso   1.00
C256   C     0.47961   0.54805   0.20824   0.00000  Uiso   1.00
C257   C     0.48472   0.95136   0.28996   0.00000  Uiso   1.00
C258   C     0.49737   0.52436   0.25020   0.00000  Uiso   1.00
C259   C     0.49738   0.97578   0.24978   0.00000  Uiso   1.00
C260   C     0.52590   0.78465   0.05678   0.00000  Uiso   1.00
C261   C     0.47433   0.71540   0.44334   0.00000  Uiso   1.00
C262   C     0.53057   0.77983   0.10752   0.00000  Uiso   1.00
C263   C     0.46990   0.71983   0.39255   0.00000  Uiso   1.00
C264   C     0.46504   0.72477   0.10149   0.00000  Uiso   1.00
C265   C     0.53443   0.77577   0.39841   0.00000  Uiso   1.00
C266   C     0.46290   0.72603   0.05099   0.00000  Uiso   1.00
Cu267  Cu    0.50000   0.74999   0.29821   0.00000  Uiso   1.00
Cu268  Cu    0.50000   0.75000   0.20178   0.00000  Uiso   1.00
H269   H     0.53007   0.52993   0.32506   0.00000  Uiso   1.00
H270   H     0.47366   0.96767   0.32127   0.00000  Uiso   1.00
H271   H     0.43802   0.70395   0.11836   0.00000  Uiso   1.00
H272   H     0.56115   0.79686   0.38147   0.00000  Uiso   1.00
H273   H     0.52087   0.97155   0.17806   0.00000  Uiso   1.00
H274   H     0.52986   0.61045   0.32555   0.00000  Uiso   1.00
H275   H     0.52018   0.89124   0.17719   0.00000  Uiso   1.00
H276   H     0.43143   0.70821   0.03136   0.00000  Uiso   1.00
H277   H     0.56768   0.79292   0.46838   0.00000  Uiso   1.00
H278   H     0.46670   0.61153   0.17547   0.00000  Uiso   1.00
H279   H     0.47573   0.88742   0.32139   0.00000  Uiso   1.00
H280   H     0.46452   0.53112   0.17549   0.00000  Uiso   1.00
N281   N     0.50000   0.75001   0.12934   0.00000  Uiso   1.00
N282   N     0.50000   0.74999   0.37066   0.00000  Uiso   1.00
O283   O     0.50000   0.68572   0.29072   0.00000  Uiso   1.00
O284   O     0.50000   0.81427   0.20928   0.00000  Uiso   1.00
O285   O     0.50000   0.68573   0.20928   0.00000  Uiso   1.00
O286   O     0.50000   0.81427   0.29072   0.00000  Uiso   1.00
O287   O     0.42495   0.74999   0.28132   0.00000  Uiso   1.00
O288   O     0.57505   0.75000   0.21868   0.00000  Uiso   1.00
O289   O     0.42495   0.75000   0.19988   0.00000  Uiso   1.00
O290   O     0.57505   0.75000   0.30012   0.00000  Uiso   1.00
Br291  Br    0.98710   0.70330   0.18116   0.00000  Uiso   1.00
Br292  Br    0.67961   0.79661   0.31891   0.00000  Uiso   1.00
Br293  Br    0.87400   0.84345   0.03288   0.00000  Uiso   1.00
Br294  Br    0.79285   0.65683   0.46787   0.00000  Uiso   1.00
Br295  Br    0.91399   0.81711   0.14460   0.00000  Uiso   1.00
Br296  Br    0.75433   0.68147   0.35542   0.00000  Uiso   1.00
C297   C     0.83298   0.66504   0.25021   0.00000  Uiso   1.00
C298   C     0.86980   0.77471   0.44888   0.00000  Uiso   1.00
C299   C     0.83121   0.75235   0.02720   0.00000  Uiso   1.00
C300   C     0.83518   0.74810   0.47277   0.00000  Uiso   1.00
C301   C     0.73487   0.74935   0.23814   0.00000  Uiso   1.00
C302   C     0.93179   0.75063   0.26187   0.00000  Uiso   1.00
C303   C     0.68047   0.74241   0.23308   0.00000  Uiso   1.00
C304   C     0.98621   0.75754   0.26694   0.00000  Uiso   1.00
C305   C     0.84872   0.54738   0.29243   0.00000  Uiso   1.00
C306   C     0.84354   0.95351   0.20925   0.00000  Uiso   1.00
C307   C     0.84890   0.59333   0.29268   0.00000  Uiso   1.00
C308   C     0.83296   0.83500   0.24973   0.00000  Uiso   1.00
C309   C     0.84360   0.90759   0.20889   0.00000  Uiso   1.00
C310   C     0.83191   0.61682   0.25048   0.00000  Uiso   1.00
C311   C     0.83182   0.88329   0.24939   0.00000  Uiso   1.00
C312   C     0.81393   0.59395   0.20829   0.00000  Uiso   1.00
C313   C     0.81895   0.90549   0.28989   0.00000  Uiso   1.00
C314   C     0.81294   0.54805   0.20824   0.00000  Uiso   1.00
C315   C     0.81805   0.95136   0.28996   0.00000  Uiso   1.00
C316   C     0.83070   0.52436   0.25020   0.00000  Uiso   1.00
C317   C     0.83071   0.97578   0.24978   0.00000  Uiso   1.00
C318   C     0.85923   0.78465   0.05678   0.00000  Uiso   1.00
C319   C     0.80766   0.71540   0.44334   0.00000  Uiso   1.00
C320   C     0.86390   0.77983   0.10752   0.00000  Uiso   1.00
C321   C     0.80324   0.71983   0.39255   0.00000  Uiso   1.00
C322   C     0.79837   0.72477   0.10149   0.00000  Uiso   1.00
C323   C     0.86776   0.77577   0.39841   0.00000  Uiso   1.00
C324   C     0.79623   0.72603   0.05099   0.00000  Uiso   1.00
Cu325  Cu    0.83333   0.74999   0.29821   0.00000  Uiso   1.00
Cu326  Cu    0.83333   0.75000   0.20178   0.00000  Uiso   1.00
H327   H     0.86341   0.52993   0.32506   0.00000  Uiso   1.00
H328   H     0.80699   0.96767   0.32127   0.00000  Uiso   1.00
H329   H     0.77135   0.70395   0.11836   0.00000  Uiso   1.00
H330   H     0.89448   0.79686   0.38147   0.00000  Uiso   1.00
H331   H     0.85420   0.97155   0.17806   0.00000  Uiso   1.00
H332   H     0.86320   0.61045   0.32555   0.00000  Uiso   1.00
H333   H     0.85351   0.89124   0.17719   0.00000  Uiso   1.00
H334   H     0.76476   0.70821   0.03136   0.00000  Uiso   1.00
H335   H     0.90101   0.79292   0.46838   0.00000  Uiso   1.00
H336   H     0.80003   0.61153   0.17547   0.00000  Uiso   1.00
H337   H     0.80906   0.88742   0.32139   0.00000  Uiso   1.00
H338   H     0.79786   0.53112   0.17549   0.00000  Uiso   1.00
N339   N     0.83333   0.75001   0.12934   0.00000  Uiso   1.00
N340   N     0.83333   0.74999   0.37066   0.00000  Uiso   1.00
O341   O     0.83334   0.68572   0.29072   0.00000  Uiso   1.00
O342   O     0.83333   0.81427   0.20928   0.00000  Uiso   1.00
O343   O     0.83334   0.68573   0.20928   0.00000  Uiso   1.00
O344   O     0.83333   0.81427   0.29072   0.00000  Uiso   1.00
O345   O     0.75828   0.74999   0.28132   0.00000  Uiso   1.00
O346   O     0.90839   0.75000   0.21868   0.00000  Uiso   1.00
O347   O     0.75828   0.75000   0.19988   0.00000  Uiso   1.00
O348   O     0.90839   0.75000   0.30012   0.00000  Uiso   1.00
Br349  Br    0.32043   0.20330   0.68116   0.00000  Uiso   1.00
Br350  Br    0.01294   0.29661   0.81891   0.00000  Uiso   1.00
Br351  Br    0.20733   0.34345   0.53288   0.00000  Uiso   1.00
Br352  Br    0.12619   0.15683   0.96787   0.00000  Uiso   1.00
Br353  Br    0.24732   0.31711   0.64460   0.00000  Uiso   1.00
Br354  Br    0.08766   0.18147   0.85542   0.00000  Uiso   1.00
C355   C     0.16632   0.16504   0.75021   0.00000  Uiso   1.00
C356   C     0.20314   0.27471   0.94888   0.00000  Uiso   1.00
C357   C     0.16454   0.25235   0.52720   0.00000  Uiso   1.00
C358   C     0.16851   0.24810   0.97277   0.00000  Uiso   1.00
C359   C     0.06821   0.24935   0.73814   0.00000  Uiso   1.00
C360   C     0.26513   0.25063   0.76187   0.00000  Uiso   1.00
C361   C     0.01380   0.24241   0.73308   0.00000  Uiso   1.00
C362   C     0.31954   0.25754   0.76694   0.00000  Uiso   1.00
C363   C     0.18205   0.04738   0.79243   0.00000  Uiso   1.00
C364   C     0.17687   0.45351   0.70925   0.00000  Uiso   1.00
C365   C     0.18224   0.09333   0.79268   0.00000  Uiso   1.00
C366   C     0.16629   0.33500   0.74973   0.00000  Uiso   1.00
C367   C     0.17693   0.40759   0.70889   0.00000  Uiso   1.00
C368   C     0.16525   0.11682   0.75048   0.00000  Uiso   1.00
C369   C     0.16515   0.38329   0.74939   0.00000  Uiso   1.00
C370   C     0.14726   0.09395   0.70829   0.00000  Uiso   1.00
C371   C     0.15228   0.40549   0.78989   0.00000  Uiso   1.00
C372   C     0.14627   0.04805   0.70824   0.00000  Uiso   1.00
C373   C     0.15138   0.45136   0.78996   0.00000  Uiso   1.00
C374   C     0.16404   0.02436   0.75020   0.00000  Uiso   1.00
C375   C     0.16405   0.47578   0.74978   0.00000  Uiso   1.00
C376   C     0.19257   0.28465   0.55678   0.00000  Uiso   1.00
C377   C     0.14099   0.21540   0.94334   0.00000  Uiso   1.00
C378   C     0.19723   0.27983   0.60752   0.00000  Uiso   1.00
C379   C     0.13657   0.21983   0.89255   0.00000  Uiso   1.00
C380   C     0.13171   0.22477   0.60149   0.00000  Uiso   1.00
C381   C     0.20110   0.27577   0.89841   0.00000  Uiso   1.00
C382   C     0.12956   0.22603   0.55099   0.00000  Uiso   1.00
Cu383  Cu    0.16667   0.24999   0.79821   0.00000  Uiso   1.00
Cu384  Cu    0.16667   0.25000   0.70178   0.00000  Uiso   1.00
H385   H     0.19674   0.02993   0.82506   0.00000  Uiso   1.00
H386   H     0.14032   0.46767   0.82127   0.00000  Uiso   1.00
H387   H     0.10469   0.20395   0.61836   0.00000  Uiso   1.00
H388   H     0.22782   0.29686   0.88147   0.00000  Uiso   1.00
H389   H     0.18754   0.47155   0.67806   0.00000  Uiso   1.00
H390   H     0.19653   0.11045   0.82555   0.00000  Uiso   1.00
H391   H     0.18685   0.39124   0.67719   0.00000  Uiso   1.00
H392   H     0.09810   0.20821   0.53136   0.00000  Uiso   1.00
H393   H     0.23435   0.29292   0.96838   0.00000  Uiso   1.00
H394   H     0.13337   0.11153   0.67547   0.00000  Uiso   1.00
H395   H     0.14239   0.38742   0.82139   0.00000  Uiso   1.00
H396   H     0.13119   0.03112   0.67549   0.00000  Uiso   1.00
N397   N     0.16667   0.25001   0.62934   0.00000  Uiso   1.00
N398   N     0.16667   0.24999   0.87066   0.00000  Uiso   1.00
O399   O     0.16667   0.18572   0.79072   0.00000  Uiso   1.00
O400   O     0.16666   0.31427   0.70928   0.00000  Uiso   1.00
O401   O     0.16667   0.18573   0.70928   0.00000  Uiso   1.00
O402   O     0.16666   0.31427   0.79072   0.00000  Uiso   1.00
O403   O     0.09161   0.24999   0.78132   0.00000  Uiso   1.00
O404   O     0.24172   0.25000   0.71868   0.00000  Uiso   1.00
O405   O     0.09161   0.25000   0.69988   0.00000  Uiso   1.00
O406   O     0.24172   0.25000   0.80012   0.00000  Uiso   1.00
Br407  Br    0.65377   0.20330   0.68116   0.00000  Uiso   1.00
Br408  Br    0.34627   0.29661   0.81891   0.00000  Uiso   1.00
Br409  Br    0.54066   0.34345   0.53288   0.00000  Uiso   1.00
Br410  Br    0.45952   0.15683   0.96787   0.00000  Uiso   1.00
Br411  Br    0.58066   0.31711   0.64460   0.00000  Uiso   1.00
Br412  Br    0.42100   0.18147   0.85542   0.00000  Uiso   1.00
C413   C     0.49965   0.16504   0.75021   0.00000  Uiso   1.00
C414   C     0.53647   0.27471   0.94888   0.00000  Uiso   1.00
C415   C     0.49787   0.25235   0.52720   0.00000  Uiso   1.00
C416   C     0.50185   0.24810   0.97277   0.00000  Uiso   1.00
C417   C     0.40154   0.24935   0.73814   0.00000  Uiso   1.00
C418   C     0.59846   0.25063   0.76187   0.00000  Uiso   1.00
C419   C     0.34713   0.24241   0.73308   0.00000  Uiso   1.00
C420   C     0.65288   0.25754   0.76694   0.00000  Uiso   1.00
C421   C     0.51538   0.04738   0.79243   0.00000  Uiso   1.00
C422   C     0.51020   0.45351   0.70925   0.00000  Uiso   1.00
C423   C     0.51557   0.09333   0.79268   0.00000  Uiso   1.00
C424   C     0.49963   0.33500   0.74973   0.00000  Uiso   1.00
C425   C     0.51026   0.40759   0.70889   0.00000  Uiso   1.00
C426   C     0.49858   0.11682   0.75048   0.00000  Uiso   1.00
C427   C     0.49848   0.38329   0.74939   0.00000  Uiso   1.00
C428   C     0.48059   0.09395   0.70829   0.00000  Uiso   1.00
C429   C     0.48562   0.40549   0.78989   0.00000  Uiso   1.00
C430   C     0.47961   0.04805   0.70824   0.00000  Uiso   1.00
C431   C     0.48472   0.45136   0.78996   0.00000  Uiso   1.00
C432   C     0.49737   0.02436   0.75020   0.00000  Uiso   1.00
C433   C     0.49738   0.47578   0.74978   0.00000  Uiso   1.00
C434   C     0.52590   0.28465   0.55678   0.00000  Uiso   1.00
C435   C     0.47433   0.21540   0.94334   0.00000  Uiso   1.00
C436   C     0.53057   0.27983   0.60752   0.00000  Uiso   1.00
C437   C     0.46990   0.21983   0.89255   0.00000  Uiso   1.00
C438   C     0.46504   0.22477   0.60149   0.00000  Uiso   1.00
C439   C     0.53443   0.27577   0.89841   0.00000  Uiso   1.00
C440   C     0.46290   0.22603   0.55099   0.00000  Uiso   1.00
Cu441  Cu    0.50000   0.24999   0.79821   0.00000  Uiso   1.00
Cu442  Cu    0.50000   0.25000   0.70178   0.00000  Uiso   1.00
H443   H     0.53007   0.02993   0.82506   0.00000  Uiso   1.00
H444   H     0.47366   0.46767   0.82127   0.00000  Uiso   1.00
H445   H     0.43802   0.20395   0.61836   0.00000  Uiso   1.00
H446   H     0.56115   0.29686   0.88147   0.00000  Uiso   1.00
H447   H     0.52087   0.47155   0.67806   0.00000  Uiso   1.00
H448   H     0.52986   0.11045   0.82555   0.00000  Uiso   1.00
H449   H     0.52018   0.39124   0.67719   0.00000  Uiso   1.00
H450   H     0.43143   0.20821   0.53136   0.00000  Uiso   1.00
H451   H     0.56768   0.29292   0.96838   0.00000  Uiso   1.00
H452   H     0.46670   0.11153   0.67547   0.00000  Uiso   1.00
H453   H     0.47573   0.38742   0.82139   0.00000  Uiso   1.00
H454   H     0.46452   0.03112   0.67549   0.00000  Uiso   1.00
N455   N     0.50000   0.25001   0.62934   0.00000  Uiso   1.00
N456   N     0.50000   0.24999   0.87066   0.00000  Uiso   1.00
O457   O     0.50000   0.18572   0.79072   0.00000  Uiso   1.00
O458   O     0.50000   0.31427   0.70928   0.00000  Uiso   1.00
O459   O     0.50000   0.18573   0.70928   0.00000  Uiso   1.00
O460   O     0.50000   0.31427   0.79072   0.00000  Uiso   1.00
O461   O     0.42495   0.24999   0.78132   0.00000  Uiso   1.00
O462   O     0.57505   0.25000   0.71868   0.00000  Uiso   1.00
O463   O     0.42495   0.25000   0.69988   0.00000  Uiso   1.00
O464   O     0.57505   0.25000   0.80012   0.00000  Uiso   1.00
Br465  Br    0.98710   0.20330   0.68116   0.00000  Uiso   1.00
Br466  Br    0.67961   0.29661   0.81891   0.00000  Uiso   1.00
Br467  Br    0.87400   0.34345   0.53288   0.00000  Uiso   1.00
Br468  Br    0.79285   0.15683   0.96787   0.00000  Uiso   1.00
Br469  Br    0.91399   0.31711   0.64460   0.00000  Uiso   1.00
Br470  Br    0.75433   0.18147   0.85542   0.00000  Uiso   1.00
C471   C     0.83298   0.16504   0.75021   0.00000  Uiso   1.00
C472   C     0.86980   0.27471   0.94888   0.00000  Uiso   1.00
C473   C     0.83121   0.25235   0.52720   0.00000  Uiso   1.00
C474   C     0.83518   0.24810   0.97277   0.00000  Uiso   1.00
C475   C     0.73487   0.24935   0.73814   0.00000  Uiso   1.00
C476   C     0.93179   0.25063   0.76187   0.00000  Uiso   1.00
C477   C     0.68047   0.24241   0.73308   0.00000  Uiso   1.00
C478   C     0.98621   0.25754   0.76694   0.00000  Uiso   1.00
C479   C     0.84872   0.04738   0.79243   0.00000  Uiso   1.00
C480   C     0.84354   0.45351   0.70925   0.00000  Uiso   1.00
C481   C     0.84890   0.09333   0.79268   0.00000  Uiso   1.00
C482   C     0.83296   0.33500   0.74973   0.00000  Uiso   1.00
C483   C     0.84360   0.40759   0.70889   0.00000  Uiso   1.00
C484   C     0.83191   0.11682   0.75048   0.00000  Uiso   1.00
C485   C     0.83182   0.38329   0.74939   0.00000  Uiso   1.00
C486   C     0.81393   0.09395   0.70829   0.00000  Uiso   1.00
C487   C     0.81895   0.40549   0.78989   0.00000  Uiso   1.00
C488   C     0.81294   0.04805   0.70824   0.00000  Uiso   1.00
C489   C     0.81805   0.45136   0.78996   0.00000  Uiso   1.00
C490   C     0.83070   0.02436   0.75020   0.00000  Uiso   1.00
C491   C     0.83071   0.47578   0.74978   0.00000  Uiso   1.00
C492   C     0.85923   0.28465   0.55678   0.00000  Uiso   1.00
C493   C     0.80766   0.21540   0.94334   0.00000  Uiso   1.00
C494   C     0.86390   0.27983   0.60752   0.00000  Uiso   1.00
C495   C     0.80324   0.21983   0.89255   0.00000  Uiso   1.00
C496   C     0.79837   0.22477   0.60149   0.00000  Uiso   1.00
C497   C     0.86776   0.27577   0.89841   0.00000  Uiso   1.00
C498   C     0.79623   0.22603   0.55099   0.00000  Uiso   1.00
Cu499  Cu    0.83333   0.24999   0.79821   0.00000  Uiso   1.00
Cu500  Cu    0.83333   0.25000   0.70178   0.00000  Uiso   1.00
H501   H     0.86341   0.02993   0.82506   0.00000  Uiso   1.00
H502   H     0.80699   0.46767   0.82127   0.00000  Uiso   1.00
H503   H     0.77135   0.20395   0.61836   0.00000  Uiso   1.00
H504   H     0.89448   0.29686   0.88147   0.00000  Uiso   1.00
H505   H     0.85420   0.47155   0.67806   0.00000  Uiso   1.00
H506   H     0.86320   0.11045   0.82555   0.00000  Uiso   1.00
H507   H     0.85351   0.39124   0.67719   0.00000  Uiso   1.00
H508   H     0.76476   0.20821   0.53136   0.00000  Uiso   1.00
H509   H     0.90101   0.29292   0.96838   0.00000  Uiso   1.00
H510   H     0.80003   0.11153   0.67547   0.00000  Uiso   1.00
H511   H     0.80906   0.38742   0.82139   0.00000  Uiso   1.00
H512   H     0.79786   0.03112   0.67549   0.00000  Uiso   1.00
N513   N     0.83333   0.25001   0.62934   0.00000  Uiso   1.00
N514   N     0.83333   0.24999   0.87066   0.00000  Uiso   1.00
O515   O     0.83334   0.18572   0.79072   0.00000  Uiso   1.00
O516   O     0.83333   0.31427   0.70928   0.00000  Uiso   1.00
O517   O     0.83334   0.18573   0.70928   0.00000  Uiso   1.00
O518   O     0.83333   0.31427   0.79072   0.00000  Uiso   1.00
O519   O     0.75828   0.24999   0.78132   0.00000  Uiso   1.00
O520   O     0.90839   0.25000   0.71868   0.00000  Uiso   1.00
O521   O     0.75828   0.25000   0.69988   0.00000  Uiso   1.00
O522   O     0.90839   0.25000   0.80012   0.00000  Uiso   1.00
Br523  Br    0.32043   0.70330   0.68116   0.00000  Uiso   1.00
Br524  Br    0.01294   0.79661   0.81891   0.00000  Uiso   1.00
Br525  Br    0.20733   0.84345   0.53288   0.00000  Uiso   1.00
Br526  Br    0.12619   0.65683   0.96787   0.00000  Uiso   1.00
Br527  Br    0.24732   0.81711   0.64460   0.00000  Uiso   1.00
Br528  Br    0.08766   0.68147   0.85542   0.00000  Uiso   1.00
C529   C     0.16632   0.66504   0.75021   0.00000  Uiso   1.00
C530   C     0.20314   0.77471   0.94888   0.00000  Uiso   1.00
C531   C     0.16454   0.75235   0.52720   0.00000  Uiso   1.00
C532   C     0.16851   0.74810   0.97277   0.00000  Uiso   1.00
C533   C     0.06821   0.74935   0.73814   0.00000  Uiso   1.00
C534   C     0.26513   0.75063   0.76187   0.00000  Uiso   1.00
C535   C     0.01380   0.74241   0.73308   0.00000  Uiso   1.00
C536   C     0.31954   0.75754   0.76694   0.00000  Uiso   1.00
C537   C     0.18205   0.54738   0.79243   0.00000  Uiso   1.00
C538   C     0.17687   0.95351   0.70925   0.00000  Uiso   1.00
C539   C     0.18224   0.59333   0.79268   0.00000  Uiso   1.00
C540   C     0.16629   0.83500   0.74973   0.00000  Uiso   1.00
C541   C     0.17693   0.90759   0.70889   0.00000  Uiso   1.00
C542   C     0.16525   0.61682   0.75048   0.00000  Uiso   1.00
C543   C     0.16515   0.88329   0.74939   0.00000  Uiso   1.00
C544   C     0.14726   0.59395   0.70829   0.00000  Uiso   1.00
C545   C     0.15228   0.90549   0.78989   0.00000  Uiso   1.00
C546   C     0.14627   0.54805   0.70824   0.00000  Uiso   1.00
C547   C     0.15138   0.95136   0.78996   0.00000  Uiso   1.00
C548   C     0.16404   0.52436   0.75020   0.00000  Uiso   1.00
C549   C     0.16405   0.97578   0.74978   0.00000  Uiso   1.00
C550   C     0.19257   0.78465   0.55678   0.00000  Uiso   1.00
C551   C     0.14099   0.71540   0.94334   0.00000  Uiso   1.00
C552   C     0.19723   0.77983   0.60752   0.00000  Uiso   1.00
C553   C     0.13657   0.71983   0.89255   0.00000  Uiso   1.00
C554   C     0.13171   0.72477   0.60149   0.00000  Uiso   1.00
C555   C     0.20110   0.77577   0.89841   0.00000  Uiso   1.00
C556   C     0.12956   0.72603   0.55099   0.00000  Uiso   1.00
Cu557  Cu    0.16667   0.74999   0.79821   0.00000  Uiso   1.00
Cu558  Cu    0.16667   0.75000   0.70178   0.00000  Uiso   1.00
H559   H     0.19674   0.52993   0.82506   0.00000  Uiso   1.00
H560   H     0.14032   0.96767   0.82127   0.00000  Uiso   1.00
H561   H     0.10469   0.70395   0.61836   0.00000  Uiso   1.00
H562   H     0.22782   0.79686   0.88147   0.00000  Uiso   1.00
H563   H     0.18754   0.97155   0.67806   0.00000  Uiso   1.00
H564   H     0.19653   0.61045   0.82555   0.00000  Uiso   1.00
H565   H     0.18685   0.89124   0.67719   0.00000  Uiso   1.00
H566   H     0.09810   0.70821   0.53136   0.00000  Uiso   1.00
H567   H     0.23435   0.79292   0.96838   0.00000  Uiso   1.00
H568   H     0.13337   0.61153   0.67547   0.00000  Uiso   1.00
H569   H     0.14239   0.88742   0.82139   0.00000  Uiso   1.00
H570   H     0.13119   0.53112   0.67549   0.00000  Uiso   1.00
N571   N     0.16667   0.75001   0.62934   0.00000  Uiso   1.00
N572   N     0.16667   0.74999   0.87066   0.00000  Uiso   1.00
O573   O     0.16667   0.68572   0.79072   0.00000  Uiso   1.00
O574   O     0.16666   0.81427   0.70928   0.00000  Uiso   1.00
O575   O     0.16667   0.68573   0.70928   0.00000  Uiso   1.00
O576   O     0.16666   0.81427   0.79072   0.00000  Uiso   1.00
O577   O     0.09161   0.74999   0.78132   0.00000  Uiso   1.00
O578   O     0.24172   0.75000   0.71868   0.00000  Uiso   1.00
O579   O     0.09161   0.75000   0.69988   0.00000  Uiso   1.00
O580   O     0.24172   0.75000   0.80012   0.00000  Uiso   1.00
Br581  Br    0.65377   0.70330   0.68116   0.00000  Uiso   1.00
Br582  Br    0.34627   0.79661   0.81891   0.00000  Uiso   1.00
Br583  Br    0.54066   0.84345   0.53288   0.00000  Uiso   1.00
Br584  Br    0.45952   0.65683   0.96787   0.00000  Uiso   1.00
Br585  Br    0.58066   0.81711   0.64460   0.00000  Uiso   1.00
Br586  Br    0.42100   0.68147   0.85542   0.00000  Uiso   1.00
C587   C     0.49965   0.66504   0.75021   0.00000  Uiso   1.00
C588   C     0.53647   0.77471   0.94888   0.00000  Uiso   1.00
C589   C     0.49787   0.75235   0.52720   0.00000  Uiso   1.00
C590   C     0.50185   0.74810   0.97277   0.00000  Uiso   1.00
C591   C     0.40154   0.74935   0.73814   0.00000  Uiso   1.00
C592   C     0.59846   0.75063   0.76187   0.00000  Uiso   1.00
C593   C     0.34713   0.74241   0.73308   0.00000  Uiso   1.00
C594   C     0.65288   0.75754   0.76694   0.00000  Uiso   1.00
C595   C     0.51538   0.54738   0.79243   0.00000  Uiso   1.00
C596   C     0.51020   0.95351   0.70925   0.00000  Uiso   1.00
C597   C     0.51557   0.59333   0.79268   0.00000  Uiso   1.00
C598   C     0.49963   0.83500   0.74973   0.00000  Uiso   1.00
C599   C     0.51026   0.90759   0.70889   0.00000  Uiso   1.00
C600   C     0.49858   0.61682   0.75048   0.00000  Uiso   1.00
C601   C     0.49848   0.88329   0.74939   0.00000  Uiso   1.00
C602   C     0.48059   0.59395   0.70829   0.00000  Uiso   1.00
C603   C     0.48562   0.90549   0.78989   0.00000  Uiso   1.00
C604   C     0.47961   0.54805   0.70824   0.00000  Uiso   1.00
C605   C     0.48472   0.95136   0.78996   0.00000  Uiso   1.00
C606   C     0.49737   0.52436   0.75020   0.00000  Uiso   1.00
C607   C     0.49738   0.97578   0.74978   0.00000  Uiso   1.00
C608   C     0.52590   0.78465   0.55678   0.00000  Uiso   1.00
C609   C     0.47433   0.71540   0.94334   0.00000  Uiso   1.00
C610   C     0.53057   0.77983   0.60752   0.00000  Uiso   1.00
C611   C     0.46990   0.71983   0.89255   0.00000  Uiso   1.00
C612   C     0.46504   0.72477   0.60149   0.00000  Uiso   1.00
C613   C     0.53443   0.77577   0.89841   0.00000  Uiso   1.00
C614   C     0.46290   0.72603   0.55099   0.00000  Uiso   1.00
Cu615  Cu    0.50000   0.74999   0.79821   0.00000  Uiso   1.00
Cu616  Cu    0.50000   0.75000   0.70178   0.00000  Uiso   1.00
H617   H     0.53007   0.52993   0.82506   0.00000  Uiso   1.00
H618   H     0.47366   0.96767   0.82127   0.00000  Uiso   1.00
H619   H     0.43802   0.70395   0.61836   0.00000  Uiso   1.00
H620   H     0.56115   0.79686   0.88147   0.00000  Uiso   1.00
H621   H     0.52087   0.97155   0.67806   0.00000  Uiso   1.00
H622   H     0.52986   0.61045   0.82555   0.00000  Uiso   1.00
H623   H     0.52018   0.89124   0.67719   0.00000  Uiso   1.00
H624   H     0.43143   0.70821   0.53136   0.00000  Uiso   1.00
H625   H     0.56768   0.79292   0.96838   0.00000  Uiso   1.00
H626   H     0.46670   0.61153   0.67547   0.00000  Uiso   1.00
H627   H     0.47573   0.88742   0.82139   0.00000  Uiso   1.00
H628   H     0.46452   0.53112   0.67549   0.00000  Uiso   1.00
N629   N     0.50000   0.75001   0.62934   0.00000  Uiso   1.00
N630   N     0.50000   0.74999   0.87066   0.00000  Uiso   1.00
O631   O     0.50000   0.68572   0.79072   0.00000  Uiso   1.00
O632   O     0.50000   0.81427   0.70928   0.00000  Uiso   1.00
O633   O     0.50000   0.68573   0.70928   0.00000  Uiso   1.00
O634   O     0.50000   0.81427   0.79072   0.00000  Uiso   1.00
O635   O     0.42495   0.74999   0.78132   0.00000  Uiso   1.00
O636   O     0.57505   0.75000   0.71868   0.00000  Uiso   1.00
O637   O     0.42495   0.75000   0.69988   0.00000  Uiso   1.00
O638   O     0.57505   0.75000   0.80012   0.00000  Uiso   1.00
Br639  Br    0.98710   0.70330   0.68116   0.00000  Uiso   1.00
Br640  Br    0.67961   0.79661   0.81891   0.00000  Uiso   1.00
Br641  Br    0.87400   0.84345   0.53288   0.00000  Uiso   1.00
Br642  Br    0.79285   0.65683   0.96787   0.00000  Uiso   1.00
Br643  Br    0.91399   0.81711   0.64460   0.00000  Uiso   1.00
Br644  Br    0.75433   0.68147   0.85542   0.00000  Uiso   1.00
C645   C     0.83298   0.66504   0.75021   0.00000  Uiso   1.00
C646   C     0.86980   0.77471   0.94888   0.00000  Uiso   1.00
C647   C     0.83121   0.75235   0.52720   0.00000  Uiso   1.00
C648   C     0.83518   0.74810   0.97277   0.00000  Uiso   1.00
C649   C     0.73487   0.74935   0.73814   0.00000  Uiso   1.00
C650   C     0.93179   0.75063   0.76187   0.00000  Uiso   1.00
C651   C     0.68047   0.74241   0.73308   0.00000  Uiso   1.00
C652   C     0.98621   0.75754   0.76694   0.00000  Uiso   1.00
C653   C     0.84872   0.54738   0.79243   0.00000  Uiso   1.00
C654   C     0.84354   0.95351   0.70925   0.00000  Uiso   1.00
C655   C     0.84890   0.59333   0.79268   0.00000  Uiso   1.00
C656   C     0.83296   0.83500   0.74973   0.00000  Uiso   1.00
C657   C     0.84360   0.90759   0.70889   0.00000  Uiso   1.00
C658   C     0.83191   0.61682   0.75048   0.00000  Uiso   1.00
C659   C     0.83182   0.88329   0.74939   0.00000  Uiso   1.00
C660   C     0.81393   0.59395   0.70829   0.00000  Uiso   1.00
C661   C     0.81895   0.90549   0.78989   0.00000  Uiso   1.00
C662   C     0.81294   0.54805   0.70824   0.00000  Uiso   1.00
C663   C     0.81805   0.95136   0.78996   0.00000  Uiso   1.00
C664   C     0.83070   0.52436   0.75020   0.00000  Uiso   1.00
C665   C     0.83071   0.97578   0.74978   0.00000  Uiso   1.00
C666   C     0.85923   0.78465   0.55678   0.00000  Uiso   1.00
C667   C     0.80766   0.71540   0.94334   0.00000  Uiso   1.00
C668   C     0.86390   0.77983   0.60752   0.00000  Uiso   1.00
C669   C     0.80324   0.71983   0.89255   0.00000  Uiso   1.00
C670   C     0.79837   0.72477   0.60149   0.00000  Uiso   1.00
C671   C     0.86776   0.77577   0.89841   0.00000  Uiso   1.00
C672   C     0.79623   0.72603   0.55099   0.00000  Uiso   1.00
Cu673  Cu    0.83333   0.74999   0.79821   0.00000  Uiso   1.00
Cu674  Cu    0.83333   0.75000   0.70178   0.00000  Uiso   1.00
H675   H     0.86341   0.52993   0.82506   0.00000  Uiso   1.00
H676   H     0.80699   0.96767   0.82127   0.00000  Uiso   1.00
H677   H     0.77135   0.70395   0.61836   0.00000  Uiso   1.00
H678   H     0.89448   0.79686   0.88147   0.00000  Uiso   1.00
H679   H     0.85420   0.97155   0.67806   0.00000  Uiso   1.00
H680   H     0.86320   0.61045   0.82555   0.00000  Uiso   1.00
H681   H     0.85351   0.89124   0.67719   0.00000  Uiso   1.00
H682   H     0.76476   0.70821   0.53136   0.00000  Uiso   1.00
H683   H     0.90101   0.79292   0.96838   0.00000  Uiso   1.00
H684   H     0.80003   0.61153   0.67547   0.00000  Uiso   1.00
H685   H     0.80906   0.88742   0.82139   0.00000  Uiso   1.00
H686   H     0.79786   0.53112   0.67549   0.00000  Uiso   1.00
N687   N     0.83333   0.75001   0.62934   0.00000  Uiso   1.00
N688   N     0.83333   0.74999   0.87066   0.00000  Uiso   1.00
O689   O     0.83334   0.68572   0.79072   0.00000  Uiso   1.00
O690   O     0.83333   0.81427   0.70928   0.00000  Uiso   1.00
O691   O     0.83334   0.68573   0.70928   0.00000  Uiso   1.00
O692   O     0.83333   0.81427   0.79072   0.00000  Uiso   1.00
O693   O     0.75828   0.74999   0.78132   0.00000  Uiso   1.00
O694   O     0.90839   0.75000   0.71868   0.00000  Uiso   1.00
O695   O     0.75828   0.75000   0.69988   0.00000  Uiso   1.00
O696   O     0.90839   0.75000   0.80012   0.00000  Uiso   1.00
loop_
_geom_bond_atom_site_label_1
_geom_bond_atom_site_label_2
_geom_bond_distance
_geom_bond_site_symmetry_2
_ccdc_geom_bond_type
Br1    C71     1.939   .     S
Br2    C130    1.939   1_455 S
Br3    C28     1.938   .     S
Br4    C29     1.938   .     S
Br5    C30     1.926   .     S
Br6    C31     1.927   .     S
C7     O51     1.299   .     A
C7     O53     1.297   .     A
C7     C20     1.459   .     S
C8     C33     1.404   .     A
C8     C10     1.418   .     A
C8     H45     1.073   .     S
C9     C34     1.418   .     A
C9     C28     1.422   .     A
C9     C358    1.543   1_554 S
C10    C29     1.422   .     A
C10    C357    1.543   .     S
C11    O55     1.287   .     A
C11    C13     1.430   .     S
C11    O57     1.294   .     A
C12    O58     1.294   .     A
C12    O56     1.287   .     A
C12    C14     1.430   .     S
C13    Br117   1.939   1_455 S
C13    C130    1.350   1_455 S
C14    Br60    1.939   .     S
C14    C71     1.350   .     S
C15    C17     1.391   .     A
C15    H37     1.083   .     S
C15    C26     1.405   .     A
C16    C19     1.390   .     A
C16    C27     1.404   .     A
C16    H41     1.083   .     S
C17    H42     1.083   .     S
C17    C20     1.401   .     A
C18    C21     1.463   .     S
C18    O52     1.301   .     A
C18    O54     1.297   .     A
C19    C21     1.401   .     A
C19    H43     1.082   .     S
C20    C22     1.402   .     A
C21    C23     1.403   .     A
C22    H46     1.083   .     S
C22    C24     1.389   .     A
C23    C25     1.389   .     A
C23    H47     1.083   .     S
C24    H48     1.083   .     S
C24    C26     1.403   .     A
C25    H38     1.083   .     S
C25    C27     1.403   .     A
C26    C201    1.471   1_545 S
C27    C200    1.471   .     S
C28    C30     1.413   .     A
C29    C31     1.414   .     A
C30    N49     1.376   .     A
C31    N50     1.376   .     A
C32    C34     1.405   .     A
C32    N49     1.358   .     A
C32    H39     1.082   .     S
C33    H40     1.082   .     S
C33    N50     1.357   .     A
C34    H44     1.074   .     S
Cu35   N50     2.023   .     S
Cu35   O54     1.954   .     S
Cu35   O58     1.966   .     S
Cu35   O51     1.960   .     S
Cu35   O55     1.972   .     S
Cu35   Cu36    2.693   .     S
Cu36   O56     1.972   .     S
Cu36   O52     1.960   .     S
Cu36   O57     1.966   .     S
Cu36   O53     1.954   .     S
Cu36   N49     2.023   .     S
Br59   C129    1.939   .     S
Br61   C86     1.938   .     S
Br62   C87     1.938   .     S
Br63   C88     1.926   .     S
Br64   C89     1.927   .     S
C65    O109    1.299   .     A
C65    O111    1.297   .     A
C65    C78     1.459   .     S
C66    C91     1.404   .     A
C66    C68     1.418   .     A
C66    H103    1.073   .     S
C67    C92     1.418   .     A
C67    C86     1.422   .     A
C67    C416    1.543   1_554 S
C68    C87     1.422   .     A
C68    C415    1.543   .     S
C69    O113    1.287   .     A
C69    C71     1.430   .     S
C69    O115    1.294   .     A
C70    O116    1.294   .     A
C70    O114    1.287   .     A
C70    C72     1.430   .     S
C72    Br118   1.939   .     S
C72    C129    1.350   .     S
C73    C75     1.391   .     A
C73    H95     1.083   .     S
C73    C84     1.405   .     A
C74    C77     1.390   .     A
C74    C85     1.404   .     A
C74    H99     1.083   .     S
C75    H100    1.083   .     S
C75    C78     1.401   .     A
C76    C79     1.463   .     S
C76    O110    1.301   .     A
C76    O112    1.297   .     A
C77    C79     1.401   .     A
C77    H101    1.082   .     S
C78    C80     1.402   .     A
C79    C81     1.403   .     A
C80    H104    1.083   .     S
C80    C82     1.389   .     A
C81    C83     1.389   .     A
C81    H105    1.083   .     S
C82    H106    1.083   .     S
C82    C84     1.403   .     A
C83    H96     1.083   .     S
C83    C85     1.403   .     A
C84    C259    1.471   1_545 S
C85    C258    1.471   .     S
C86    C88     1.413   .     A
C87    C89     1.414   .     A
C88    N107    1.376   .     A
C89    N108    1.376   .     A
C90    C92     1.405   .     A
C90    N107    1.358   .     A
C90    H97     1.082   .     S
C91    H98     1.082   .     S
C91    N108    1.357   .     A
C92    H102    1.074   .     S
Cu93   N108    2.023   .     S
Cu93   O112    1.954   .     S
Cu93   O116    1.966   .     S
Cu93   O109    1.960   .     S
Cu93   O113    1.972   .     S
Cu93   Cu94    2.693   .     S
Cu94   O114    1.972   .     S
Cu94   O110    1.960   .     S
Cu94   O115    1.966   .     S
Cu94   O111    1.954   .     S
Cu94   N107    2.023   .     S
Br117  C13     1.939   1_655 S
Br119  C144    1.938   .     S
Br120  C145    1.938   .     S
Br121  C146    1.926   .     S
Br122  C147    1.927   .     S
C123   O167    1.299   .     A
C123   O169    1.297   .     A
C123   C136    1.459   .     S
C124   C149    1.404   .     A
C124   C126    1.418   .     A
C124   H161    1.073   .     S
C125   C150    1.418   .     A
C125   C144    1.422   .     A
C125   C474    1.543   1_554 S
C126   C145    1.422   .     A
C126   C473    1.543   .     S
C127   O171    1.287   .     A
C127   C129    1.430   .     S
C127   O173    1.294   .     A
C128   O174    1.294   .     A
C128   O172    1.287   .     A
C128   C130    1.430   .     S
C130   Br2     1.939   1_655 S
C130   C13     1.350   1_655 S
C131   C133    1.391   .     A
C131   H153    1.083   .     S
C131   C142    1.405   .     A
C132   C135    1.390   .     A
C132   C143    1.404   .     A
C132   H157    1.083   .     S
C133   H158    1.083   .     S
C133   C136    1.401   .     A
C134   C137    1.463   .     S
C134   O168    1.301   .     A
C134   O170    1.297   .     A
C135   C137    1.401   .     A
C135   H159    1.082   .     S
C136   C138    1.402   .     A
C137   C139    1.403   .     A
C138   H162    1.083   .     S
C138   C140    1.389   .     A
C139   C141    1.389   .     A
C139   H163    1.083   .     S
C140   H164    1.083   .     S
C140   C142    1.403   .     A
C141   H154    1.083   .     S
C141   C143    1.403   .     A
C142   C317    1.471   1_545 S
C143   C316    1.471   .     S
C144   C146    1.413   .     A
C145   C147    1.414   .     A
C146   N165    1.376   .     A
C147   N166    1.376   .     A
C148   C150    1.405   .     A
C148   N165    1.358   .     A
C148   H155    1.082   .     S
C149   H156    1.082   .     S
C149   N166    1.357   .     A
C150   H160    1.074   .     S
Cu151  N166    2.023   .     S
Cu151  O170    1.954   .     S
Cu151  O174    1.966   .     S
Cu151  O167    1.960   .     S
Cu151  O171    1.972   .     S
Cu151  Cu152   2.693   .     S
Cu152  O172    1.972   .     S
Cu152  O168    1.960   .     S
Cu152  O173    1.966   .     S
Cu152  O169    1.954   .     S
Cu152  N165    2.023   .     S
Br175  C245    1.939   .     S
Br176  C304    1.939   1_455 S
Br177  C202    1.938   .     S
Br178  C203    1.938   .     S
Br179  C204    1.926   .     S
Br180  C205    1.927   .     S
C181   O225    1.299   .     A
C181   O227    1.297   .     A
C181   C194    1.459   .     S
C182   C207    1.404   .     A
C182   C184    1.418   .     A
C182   H219    1.073   .     S
C183   C208    1.418   .     A
C183   C202    1.422   .     A
C183   C532    1.543   1_554 S
C184   C203    1.422   .     A
C184   C531    1.543   .     S
C185   O229    1.287   .     A
C185   C187    1.430   .     S
C185   O231    1.294   .     A
C186   O232    1.294   .     A
C186   O230    1.287   .     A
C186   C188    1.430   .     S
C187   Br291   1.939   1_455 S
C187   C304    1.350   1_455 S
C188   Br234   1.939   .     S
C188   C245    1.350   .     S
C189   C191    1.391   .     A
C189   H211    1.083   .     S
C189   C200    1.405   .     A
C190   C193    1.390   .     A
C190   C201    1.404   .     A
C190   H215    1.083   .     S
C191   H216    1.083   .     S
C191   C194    1.401   .     A
C192   C195    1.463   .     S
C192   O226    1.301   .     A
C192   O228    1.297   .     A
C193   C195    1.401   .     A
C193   H217    1.082   .     S
C194   C196    1.402   .     A
C195   C197    1.403   .     A
C196   H220    1.083   .     S
C196   C198    1.389   .     A
C197   C199    1.389   .     A
C197   H221    1.083   .     S
C198   H222    1.083   .     S
C198   C200    1.403   .     A
C199   H212    1.083   .     S
C199   C201    1.403   .     A
C201   C26     1.471   1_565 S
C202   C204    1.413   .     A
C203   C205    1.414   .     A
C204   N223    1.376   .     A
C205   N224    1.376   .     A
C206   C208    1.405   .     A
C206   N223    1.358   .     A
C206   H213    1.082   .     S
C207   H214    1.082   .     S
C207   N224    1.357   .     A
C208   H218    1.074   .     S
Cu209  N224    2.023   .     S
Cu209  O228    1.954   .     S
Cu209  O232    1.966   .     S
Cu209  O225    1.960   .     S
Cu209  O229    1.972   .     S
Cu209  Cu210   2.693   .     S
Cu210  O230    1.972   .     S
Cu210  O226    1.960   .     S
Cu210  O231    1.966   .     S
Cu210  O227    1.954   .     S
Cu210  N223    2.023   .     S
Br233  C303    1.939   .     S
Br235  C260    1.938   .     S
Br236  C261    1.938   .     S
Br237  C262    1.926   .     S
Br238  C263    1.927   .     S
C239   O283    1.299   .     A
C239   O285    1.297   .     A
C239   C252    1.459   .     S
C240   C265    1.404   .     A
C240   C242    1.418   .     A
C240   H277    1.073   .     S
C241   C266    1.418   .     A
C241   C260    1.422   .     A
C241   C590    1.543   1_554 S
C242   C261    1.422   .     A
C242   C589    1.543   .     S
C243   O287    1.287   .     A
C243   C245    1.430   .     S
C243   O289    1.294   .     A
C244   O290    1.294   .     A
C244   O288    1.287   .     A
C244   C246    1.430   .     S
C246   Br292   1.939   .     S
C246   C303    1.350   .     S
C247   C249    1.391   .     A
C247   H269    1.083   .     S
C247   C258    1.405   .     A
C248   C251    1.390   .     A
C248   C259    1.404   .     A
C248   H273    1.083   .     S
C249   H274    1.083   .     S
C249   C252    1.401   .     A
C250   C253    1.463   .     S
C250   O284    1.301   .     A
C250   O286    1.297   .     A
C251   C253    1.401   .     A
C251   H275    1.082   .     S
C252   C254    1.402   .     A
C253   C255    1.403   .     A
C254   H278    1.083   .     S
C254   C256    1.389   .     A
C255   C257    1.389   .     A
C255   H279    1.083   .     S
C256   H280    1.083   .     S
C256   C258    1.403   .     A
C257   H270    1.083   .     S
C257   C259    1.403   .     A
C259   C84     1.471   1_565 S
C260   C262    1.413   .     A
C261   C263    1.414   .     A
C262   N281    1.376   .     A
C263   N282    1.376   .     A
C264   C266    1.405   .     A
C264   N281    1.358   .     A
C264   H271    1.082   .     S
C265   H272    1.082   .     S
C265   N282    1.357   .     A
C266   H276    1.074   .     S
Cu267  N282    2.023   .     S
Cu267  O286    1.954   .     S
Cu267  O290    1.966   .     S
Cu267  O283    1.960   .     S
Cu267  O287    1.972   .     S
Cu267  Cu268   2.693   .     S
Cu268  O288    1.972   .     S
Cu268  O284    1.960   .     S
Cu268  O289    1.966   .     S
Cu268  O285    1.954   .     S
Cu268  N281    2.023   .     S
Br291  C187    1.939   1_655 S
Br293  C318    1.938   .     S
Br294  C319    1.938   .     S
Br295  C320    1.926   .     S
Br296  C321    1.927   .     S
C297   O341    1.299   .     A
C297   O343    1.297   .     A
C297   C310    1.459   .     S
C298   C323    1.404   .     A
C298   C300    1.418   .     A
C298   H335    1.073   .     S
C299   C324    1.418   .     A
C299   C318    1.422   .     A
C299   C648    1.543   1_554 S
C300   C319    1.422   .     A
C300   C647    1.543   .     S
C301   O345    1.287   .     A
C301   C303    1.430   .     S
C301   O347    1.294   .     A
C302   O348    1.294   .     A
C302   O346    1.287   .     A
C302   C304    1.430   .     S
C304   Br176   1.939   1_655 S
C304   C187    1.350   1_655 S
C305   C307    1.391   .     A
C305   H327    1.083   .     S
C305   C316    1.405   .     A
C306   C309    1.390   .     A
C306   C317    1.404   .     A
C306   H331    1.083   .     S
C307   H332    1.083   .     S
C307   C310    1.401   .     A
C308   C311    1.463   .     S
C308   O342    1.301   .     A
C308   O344    1.297   .     A
C309   C311    1.401   .     A
C309   H333    1.082   .     S
C310   C312    1.402   .     A
C311   C313    1.403   .     A
C312   H336    1.083   .     S
C312   C314    1.389   .     A
C313   C315    1.389   .     A
C313   H337    1.083   .     S
C314   H338    1.083   .     S
C314   C316    1.403   .     A
C315   H328    1.083   .     S
C315   C317    1.403   .     A
C317   C142    1.471   1_565 S
C318   C320    1.413   .     A
C319   C321    1.414   .     A
C320   N339    1.376   .     A
C321   N340    1.376   .     A
C322   C324    1.405   .     A
C322   N339    1.358   .     A
C322   H329    1.082   .     S
C323   H330    1.082   .     S
C323   N340    1.357   .     A
C324   H334    1.074   .     S
Cu325  N340    2.023   .     S
Cu325  O344    1.954   .     S
Cu325  O348    1.966   .     S
Cu325  O341    1.960   .     S
Cu325  O345    1.972   .     S
Cu325  Cu326   2.693   .     S
Cu326  O346    1.972   .     S
Cu326  O342    1.960   .     S
Cu326  O347    1.966   .     S
Cu326  O343    1.954   .     S
Cu326  N339    2.023   .     S
Br349  C419    1.939   .     S
Br350  C478    1.939   1_455 S
Br351  C376    1.938   .     S
Br352  C377    1.938   .     S
Br353  C378    1.926   .     S
Br354  C379    1.927   .     S
C355   O399    1.299   .     A
C355   O401    1.297   .     A
C355   C368    1.459   .     S
C356   C381    1.404   .     A
C356   C358    1.418   .     A
C356   H393    1.073   .     S
C357   C382    1.418   .     A
C357   C376    1.422   .     A
C358   C377    1.422   .     A
C358   C9      1.543   1_556 S
C359   O403    1.287   .     A
C359   C361    1.430   .     S
C359   O405    1.294   .     A
C360   O406    1.294   .     A
C360   O404    1.287   .     A
C360   C362    1.430   .     S
C361   Br465   1.939   1_455 S
C361   C478    1.350   1_455 S
C362   Br408   1.939   .     S
C362   C419    1.350   .     S
C363   C365    1.391   .     A
C363   H385    1.083   .     S
C363   C374    1.405   .     A
C364   C367    1.390   .     A
C364   C375    1.404   .     A
C364   H389    1.083   .     S
C365   H390    1.083   .     S
C365   C368    1.401   .     A
C366   C369    1.463   .     S
C366   O400    1.301   .     A
C366   O402    1.297   .     A
C367   C369    1.401   .     A
C367   H391    1.082   .     S
C368   C370    1.402   .     A
C369   C371    1.403   .     A
C370   H394    1.083   .     S
C370   C372    1.389   .     A
C371   C373    1.389   .     A
C371   H395    1.083   .     S
C372   H396    1.083   .     S
C372   C374    1.403   .     A
C373   H386    1.083   .     S
C373   C375    1.403   .     A
C374   C549    1.471   1_545 S
C375   C548    1.471   .     S
C376   C378    1.413   .     A
C377   C379    1.414   .     A
C378   N397    1.376   .     A
C379   N398    1.376   .     A
C380   C382    1.405   .     A
C380   N397    1.358   .     A
C380   H387    1.082   .     S
C381   H388    1.082   .     S
C381   N398    1.357   .     A
C382   H392    1.074   .     S
Cu383  N398    2.023   .     S
Cu383  O402    1.954   .     S
Cu383  O406    1.966   .     S
Cu383  O399    1.960   .     S
Cu383  O403    1.972   .     S
Cu383  Cu384   2.693   .     S
Cu384  O404    1.972   .     S
Cu384  O400    1.960   .     S
Cu384  O405    1.966   .     S
Cu384  O401    1.954   .     S
Cu384  N397    2.023   .     S
Br407  C477    1.939   .     S
Br409  C434    1.938   .     S
Br410  C435    1.938   .     S
Br411  C436    1.926   .     S
Br412  C437    1.927   .     S
C413   O457    1.299   .     A
C413   O459    1.297   .     A
C413   C426    1.459   .     S
C414   C439    1.404   .     A
C414   C416    1.418   .     A
C414   H451    1.073   .     S
C415   C440    1.418   .     A
C415   C434    1.422   .     A
C416   C435    1.422   .     A
C416   C67     1.543   1_556 S
C417   O461    1.287   .     A
C417   C419    1.430   .     S
C417   O463    1.294   .     A
C418   O464    1.294   .     A
C418   O462    1.287   .     A
C418   C420    1.430   .     S
C420   Br466   1.939   .     S
C420   C477    1.350   .     S
C421   C423    1.391   .     A
C421   H443    1.083   .     S
C421   C432    1.405   .     A
C422   C425    1.390   .     A
C422   C433    1.404   .     A
C422   H447    1.083   .     S
C423   H448    1.083   .     S
C423   C426    1.401   .     A
C424   C427    1.463   .     S
C424   O458    1.301   .     A
C424   O460    1.297   .     A
C425   C427    1.401   .     A
C425   H449    1.082   .     S
C426   C428    1.402   .     A
C427   C429    1.403   .     A
C428   H452    1.083   .     S
C428   C430    1.389   .     A
C429   C431    1.389   .     A
C429   H453    1.083   .     S
C430   H454    1.083   .     S
C430   C432    1.403   .     A
C431   H444    1.083   .     S
C431   C433    1.403   .     A
C432   C607    1.471   1_545 S
C433   C606    1.471   .     S
C434   C436    1.413   .     A
C435   C437    1.414   .     A
C436   N455    1.376   .     A
C437   N456    1.376   .     A
C438   C440    1.405   .     A
C438   N455    1.358   .     A
C438   H445    1.082   .     S
C439   H446    1.082   .     S
C439   N456    1.357   .     A
C440   H450    1.074   .     S
Cu441  N456    2.023   .     S
Cu441  O460    1.954   .     S
Cu441  O464    1.966   .     S
Cu441  O457    1.960   .     S
Cu441  O461    1.972   .     S
Cu441  Cu442   2.693   .     S
Cu442  O462    1.972   .     S
Cu442  O458    1.960   .     S
Cu442  O463    1.966   .     S
Cu442  O459    1.954   .     S
Cu442  N455    2.023   .     S
Br465  C361    1.939   1_655 S
Br467  C492    1.938   .     S
Br468  C493    1.938   .     S
Br469  C494    1.926   .     S
Br470  C495    1.927   .     S
C471   O515    1.299   .     A
C471   O517    1.297   .     A
C471   C484    1.459   .     S
C472   C497    1.404   .     A
C472   C474    1.418   .     A
C472   H509    1.073   .     S
C473   C498    1.418   .     A
C473   C492    1.422   .     A
C474   C493    1.422   .     A
C474   C125    1.543   1_556 S
C475   O519    1.287   .     A
C475   C477    1.430   .     S
C475   O521    1.294   .     A
C476   O522    1.294   .     A
C476   O520    1.287   .     A
C476   C478    1.430   .     S
C478   Br350   1.939   1_655 S
C478   C361    1.350   1_655 S
C479   C481    1.391   .     A
C479   H501    1.083   .     S
C479   C490    1.405   .     A
C480   C483    1.390   .     A
C480   C491    1.404   .     A
C480   H505    1.083   .     S
C481   H506    1.083   .     S
C481   C484    1.401   .     A
C482   C485    1.463   .     S
C482   O516    1.301   .     A
C482   O518    1.297   .     A
C483   C485    1.401   .     A
C483   H507    1.082   .     S
C484   C486    1.402   .     A
C485   C487    1.403   .     A
C486   H510    1.083   .     S
C486   C488    1.389   .     A
C487   C489    1.389   .     A
C487   H511    1.083   .     S
C488   H512    1.083   .     S
C488   C490    1.403   .     A
C489   H502    1.083   .     S
C489   C491    1.403   .     A
C490   C665    1.471   1_545 S
C491   C664    1.471   .     S
C492   C494    1.413   .     A
C493   C495    1.414   .     A
C494   N513    1.376   .     A
C495   N514    1.376   .     A
C496   C498    1.405   .     A
C496   N513    1.358   .     A
C496   H503    1.082   .     S
C497   H504    1.082   .     S
C497   N514    1.357   .     A
C498   H508    1.074   .     S
Cu499  N514    2.023   .     S
Cu499  O518    1.954   .     S
Cu499  O522    1.966   .     S
Cu499  O515    1.960   .     S
Cu499  O519    1.972   .     S
Cu499  Cu500   2.693   .     S
Cu500  O520    1.972   .     S
Cu500  O516    1.960   .     S
Cu500  O521    1.966   .     S
Cu500  O517    1.954   .     S
Cu500  N513    2.023   .     S
Br523  C593    1.939   .     S
Br524  C652    1.939   1_455 S
Br525  C550    1.938   .     S
Br526  C551    1.938   .     S
Br527  C552    1.926   .     S
Br528  C553    1.927   .     S
C529   O573    1.299   .     A
C529   O575    1.297   .     A
C529   C542    1.459   .     S
C530   C555    1.404   .     A
C530   C532    1.418   .     A
C530   H567    1.073   .     S
C531   C556    1.418   .     A
C531   C550    1.422   .     A
C532   C551    1.422   .     A
C532   C183    1.543   1_556 S
C533   O577    1.287   .     A
C533   C535    1.430   .     S
C533   O579    1.294   .     A
C534   O580    1.294   .     A
C534   O578    1.287   .     A
C534   C536    1.430   .     S
C535   Br639   1.939   1_455 S
C535   C652    1.350   1_455 S
C536   Br582   1.939   .     S
C536   C593    1.350   .     S
C537   C539    1.391   .     A
C537   H559    1.083   .     S
C537   C548    1.405   .     A
C538   C541    1.390   .     A
C538   C549    1.404   .     A
C538   H563    1.083   .     S
C539   H564    1.083   .     S
C539   C542    1.401   .     A
C540   C543    1.463   .     S
C540   O574    1.301   .     A
C540   O576    1.297   .     A
C541   C543    1.401   .     A
C541   H565    1.082   .     S
C542   C544    1.402   .     A
C543   C545    1.403   .     A
C544   H568    1.083   .     S
C544   C546    1.389   .     A
C545   C547    1.389   .     A
C545   H569    1.083   .     S
C546   H570    1.083   .     S
C546   C548    1.403   .     A
C547   H560    1.083   .     S
C547   C549    1.403   .     A
C549   C374    1.471   1_565 S
C550   C552    1.413   .     A
C551   C553    1.414   .     A
C552   N571    1.376   .     A
C553   N572    1.376   .     A
C554   C556    1.405   .     A
C554   N571    1.358   .     A
C554   H561    1.082   .     S
C555   H562    1.082   .     S
C555   N572    1.357   .     A
C556   H566    1.074   .     S
Cu557  N572    2.023   .     S
Cu557  O576    1.954   .     S
Cu557  O580    1.966   .     S
Cu557  O573    1.960   .     S
Cu557  O577    1.972   .     S
Cu557  Cu558   2.693   .     S
Cu558  O578    1.972   .     S
Cu558  O574    1.960   .     S
Cu558  O579    1.966   .     S
Cu558  O575    1.954   .     S
Cu558  N571    2.023   .     S
Br581  C651    1.939   .     S
Br583  C608    1.938   .     S
Br584  C609    1.938   .     S
Br585  C610    1.926   .     S
Br586  C611    1.927   .     S
C587   O631    1.299   .     A
C587   O633    1.297   .     A
C587   C600    1.459   .     S
C588   C613    1.404   .     A
C588   C590    1.418   .     A
C588   H625    1.073   .     S
C589   C614    1.418   .     A
C589   C608    1.422   .     A
C590   C609    1.422   .     A
C590   C241    1.543   1_556 S
C591   O635    1.287   .     A
C591   C593    1.430   .     S
C591   O637    1.294   .     A
C592   O638    1.294   .     A
C592   O636    1.287   .     A
C592   C594    1.430   .     S
C594   Br640   1.939   .     S
C594   C651    1.350   .     S
C595   C597    1.391   .     A
C595   H617    1.083   .     S
C595   C606    1.405   .     A
C596   C599    1.390   .     A
C596   C607    1.404   .     A
C596   H621    1.083   .     S
C597   H622    1.083   .     S
C597   C600    1.401   .     A
C598   C601    1.463   .     S
C598   O632    1.301   .     A
C598   O634    1.297   .     A
C599   C601    1.401   .     A
C599   H623    1.082   .     S
C600   C602    1.402   .     A
C601   C603    1.403   .     A
C602   H626    1.083   .     S
C602   C604    1.389   .     A
C603   C605    1.389   .     A
C603   H627    1.083   .     S
C604   H628    1.083   .     S
C604   C606    1.403   .     A
C605   H618    1.083   .     S
C605   C607    1.403   .     A
C607   C432    1.471   1_565 S
C608   C610    1.413   .     A
C609   C611    1.414   .     A
C610   N629    1.376   .     A
C611   N630    1.376   .     A
C612   C614    1.405   .     A
C612   N629    1.358   .     A
C612   H619    1.082   .     S
C613   H620    1.082   .     S
C613   N630    1.357   .     A
C614   H624    1.074   .     S
Cu615  N630    2.023   .     S
Cu615  O634    1.954   .     S
Cu615  O638    1.966   .     S
Cu615  O631    1.960   .     S
Cu615  O635    1.972   .     S
Cu615  Cu616   2.693   .     S
Cu616  O636    1.972   .     S
Cu616  O632    1.960   .     S
Cu616  O637    1.966   .     S
Cu616  O633    1.954   .     S
Cu616  N629    2.023   .     S
Br639  C535    1.939   1_655 S
Br641  C666    1.938   .     S
Br642  C667    1.938   .     S
Br643  C668    1.926   .     S
Br644  C669    1.927   .     S
C645   O689    1.299   .     A
C645   O691    1.297   .     A
C645   C658    1.459   .     S
C646   C671    1.404   .     A
C646   C648    1.418   .     A
C646   H683    1.073   .     S
C647   C672    1.418   .     A
C647   C666    1.422   .     A
C648   C667    1.422   .     A
C648   C299    1.543   1_556 S
C649   O693    1.287   .     A
C649   C651    1.430   .     S
C649   O695    1.294   .     A
C650   O696    1.294   .     A
C650   O694    1.287   .     A
C650   C652    1.430   .     S
C652   Br524   1.939   1_655 S
C652   C535    1.350   1_655 S
C653   C655    1.391   .     A
C653   H675    1.083   .     S
C653   C664    1.405   .     A
C654   C657    1.390   .     A
C654   C665    1.404   .     A
C654   H679    1.083   .     S
C655   H680    1.083   .     S
C655   C658    1.401   .     A
C656   C659    1.463   .     S
C656   O690    1.301   .     A
C656   O692    1.297   .     A
C657   C659    1.401   .     A
C657   H681    1.082   .     S
C658   C660    1.402   .     A
C659   C661    1.403   .     A
C660   H684    1.083   .     S
C660   C662    1.389   .     A
C661   C663    1.389   .     A
C661   H685    1.083   .     S
C662   H686    1.083   .     S
C662   C664    1.403   .     A
C663   H676    1.083   .     S
C663   C665    1.403   .     A
C665   C490    1.471   1_565 S
C666   C668    1.413   .     A
C667   C669    1.414   .     A
C668   N687    1.376   .     A
C669   N688    1.376   .     A
C670   C672    1.405   .     A
C670   N687    1.358   .     A
C670   H677    1.082   .     S
C671   H678    1.082   .     S
C671   N688    1.357   .     A
C672   H682    1.074   .     S
Cu673  N688    2.023   .     S
Cu673  O692    1.954   .     S
Cu673  O696    1.966   .     S
Cu673  O689    1.960   .     S
Cu673  O693    1.972   .     S
Cu673  Cu674   2.693   .     S
Cu674  O694    1.972   .     S
Cu674  O690    1.960   .     S
Cu674  O695    1.966   .     S
Cu674  O691    1.954   .     S
Cu674  N687    2.023   .     S
