data_str_m2_o10_o17_pcu_sym.40
_audit_creation_date              2020-01-03
_audit_creation_method            'Materials Studio'
_symmetry_space_group_name_H-M    'P1'
_symmetry_Int_Tables_number       1
_symmetry_cell_setting            triclinic
loop_
_symmetry_equiv_pos_as_xyz
  x,y,z
_cell_length_a                    29.8552
_cell_length_b                    26.0182
_cell_length_c                    22.4166
_cell_angle_alpha                 103.4775
_cell_angle_beta                  94.1567
_cell_angle_gamma                 92.0459
loop_
_atom_site_label
_atom_site_type_symbol
_atom_site_fract_x
_atom_site_fract_y
_atom_site_fract_z
_atom_site_U_iso_or_equiv
_atom_site_adp_type
_atom_site_occupancy
C1     C     0.24864   0.06654   0.15097   0.00000  Uiso   1.00
C2     C     0.09040   0.12123   0.13727   0.00000  Uiso   1.00
C3     C     0.38361   0.16731   0.16403   0.00000  Uiso   1.00
C4     C     0.11639   0.16601   0.16930   0.00000  Uiso   1.00
C5     C     0.40350   0.12275   0.13212   0.00000  Uiso   1.00
C6     C     0.09650   0.21057   0.20120   0.00000  Uiso   1.00
C7     C     0.45014   0.12116   0.13645   0.00000  Uiso   1.00
C8     C     0.04986   0.21216   0.19685   0.00000  Uiso   1.00
C9     C     0.47662   0.16747   0.16526   0.00000  Uiso   1.00
C10    C     0.02338   0.16586   0.16804   0.00000  Uiso   1.00
C11    C     0.45613   0.21514   0.19151   0.00000  Uiso   1.00
C12    C     0.25136   0.26680   0.18237   0.00000  Uiso   1.00
C13    C     0.04386   0.11819   0.14179   0.00000  Uiso   1.00
C14    C     0.47016   0.07322   0.11523   0.00000  Uiso   1.00
C15    C     0.02983   0.26011   0.21806   0.00000  Uiso   1.00
C16    C     0.03669   0.01616   0.10328   0.00000  Uiso   1.00
C17    C     0.07690   0.00552   0.13429   0.00000  Uiso   1.00
C18    C     0.09775   0.29139   0.11411   0.00000  Uiso   1.00
C19    C     0.07666   0.25141   0.06685   0.00000  Uiso   1.00
C20    C     0.03459   0.25886   0.03998   0.00000  Uiso   1.00
C21    C     0.01471   0.30731   0.05793   0.00000  Uiso   1.00
C22    C     0.46331   0.31717   0.23001   0.00000  Uiso   1.00
C23    C     0.01713   0.06999   0.11946   0.00000  Uiso   1.00
C24    C     0.48532   0.02604   0.27531   0.00000  Uiso   1.00
C25    C     0.46544   0.07449   0.29328   0.00000  Uiso   1.00
C26    C     0.42335   0.08192   0.26647   0.00000  Uiso   1.00
C27    C     0.40223   0.04193   0.21925   0.00000  Uiso   1.00
C28    C     0.42307   0.32781   0.19904   0.00000  Uiso   1.00
C29    C     0.48287   0.26334   0.21383   0.00000  Uiso   1.00
C30    C     0.24792   0.01043   0.14226   0.00000  Uiso   1.00
C31    C     0.25208   0.32291   0.19107   0.00000  Uiso   1.00
C32    C     0.16454   0.16670   0.16752   0.00000  Uiso   1.00
C33    C     0.33546   0.16662   0.16582   0.00000  Uiso   1.00
C34    C     0.40960   0.21209   0.19605   0.00000  Uiso   1.00
Cu35   Cu    0.25501   0.17246   0.22813   0.00000  Uiso   1.00
Cu36   Cu    0.24500   0.16087   0.10521   0.00000  Uiso   1.00
H37    H     0.39291   0.24427   0.22385   0.00000  Uiso   1.00
H38    H     0.28511   0.20743   0.01717   0.00000  Uiso   1.00
H39    H     0.09276   0.03399   0.17393   0.00000  Uiso   1.00
H40    H     0.12990   0.28520   0.13615   0.00000  Uiso   1.00
H41    H     0.09240   0.21424   0.05214   0.00000  Uiso   1.00
H42    H     0.01757   0.22730   0.00450   0.00000  Uiso   1.00
H43    H     0.48251   0.31146   0.03494   0.00000  Uiso   1.00
H44    H     0.01754   0.02190   0.29827   0.00000  Uiso   1.00
H45    H     0.48248   0.10606   0.32872   0.00000  Uiso   1.00
H46    H     0.40760   0.11909   0.28121   0.00000  Uiso   1.00
H47    H     0.37005   0.04811   0.19725   0.00000  Uiso   1.00
H48    H     0.10710   0.08905   0.10949   0.00000  Uiso   1.00
H49    H     0.40720   0.29933   0.15942   0.00000  Uiso   1.00
H50    H     0.38262   0.08803   0.10824   0.00000  Uiso   1.00
H51    H     0.11738   0.24529   0.22510   0.00000  Uiso   1.00
H52    H     0.44844   0.03793   0.09799   0.00000  Uiso   1.00
H53    H     0.05156   0.29539   0.23530   0.00000  Uiso   1.00
H54    H     0.24395   0.31954   0.09540   0.00000  Uiso   1.00
H55    H     0.25604   0.01380   0.23793   0.00000  Uiso   1.00
H56    H     0.21490   0.12590   0.31617   0.00000  Uiso   1.00
N57    N     0.23745   0.15214   0.01284   0.00000  Uiso   1.00
N58    N     0.26256   0.18119   0.32049   0.00000  Uiso   1.00
O59    O     0.25326   0.09538   0.20659   0.00000  Uiso   1.00
O60    O     0.24675   0.23796   0.12674   0.00000  Uiso   1.00
O61    O     0.24480   0.08559   0.10279   0.00000  Uiso   1.00
O62    O     0.25520   0.24774   0.23055   0.00000  Uiso   1.00
O63    O     0.18936   0.17155   0.21857   0.00000  Uiso   1.00
O64    O     0.31065   0.16179   0.11476   0.00000  Uiso   1.00
O65    O     0.18090   0.16176   0.11477   0.00000  Uiso   1.00
O66    O     0.31910   0.17157   0.21857   0.00000  Uiso   1.00
C67    C     0.74864   0.06654   0.15097   0.00000  Uiso   1.00
C68    C     0.59040   0.12123   0.13727   0.00000  Uiso   1.00
C69    C     0.88361   0.16731   0.16403   0.00000  Uiso   1.00
C70    C     0.61639   0.16601   0.16930   0.00000  Uiso   1.00
C71    C     0.90350   0.12275   0.13212   0.00000  Uiso   1.00
C72    C     0.59650   0.21057   0.20120   0.00000  Uiso   1.00
C73    C     0.95014   0.12116   0.13645   0.00000  Uiso   1.00
C74    C     0.54986   0.21216   0.19685   0.00000  Uiso   1.00
C75    C     0.97662   0.16747   0.16526   0.00000  Uiso   1.00
C76    C     0.52338   0.16586   0.16804   0.00000  Uiso   1.00
C77    C     0.95613   0.21514   0.19151   0.00000  Uiso   1.00
C78    C     0.75136   0.26680   0.18237   0.00000  Uiso   1.00
C79    C     0.54386   0.11819   0.14179   0.00000  Uiso   1.00
C80    C     0.97016   0.07322   0.11523   0.00000  Uiso   1.00
C81    C     0.52983   0.26011   0.21806   0.00000  Uiso   1.00
C82    C     0.53669   0.01616   0.10328   0.00000  Uiso   1.00
C83    C     0.57690   0.00552   0.13429   0.00000  Uiso   1.00
C84    C     0.59775   0.29139   0.11411   0.00000  Uiso   1.00
C85    C     0.57666   0.25141   0.06685   0.00000  Uiso   1.00
C86    C     0.53459   0.25886   0.03998   0.00000  Uiso   1.00
C87    C     0.51471   0.30731   0.05793   0.00000  Uiso   1.00
C88    C     0.96331   0.31717   0.23001   0.00000  Uiso   1.00
C89    C     0.51713   0.06999   0.11946   0.00000  Uiso   1.00
C90    C     0.98532   0.02604   0.27531   0.00000  Uiso   1.00
C91    C     0.96544   0.07449   0.29328   0.00000  Uiso   1.00
C92    C     0.92335   0.08192   0.26647   0.00000  Uiso   1.00
C93    C     0.90223   0.04193   0.21925   0.00000  Uiso   1.00
C94    C     0.92307   0.32781   0.19904   0.00000  Uiso   1.00
C95    C     0.98287   0.26334   0.21383   0.00000  Uiso   1.00
C96    C     0.74792   0.01043   0.14226   0.00000  Uiso   1.00
C97    C     0.75208   0.32291   0.19107   0.00000  Uiso   1.00
C98    C     0.66454   0.16670   0.16752   0.00000  Uiso   1.00
C99    C     0.83546   0.16662   0.16582   0.00000  Uiso   1.00
C100   C     0.90960   0.21209   0.19605   0.00000  Uiso   1.00
Cu101  Cu    0.75501   0.17246   0.22813   0.00000  Uiso   1.00
Cu102  Cu    0.74500   0.16087   0.10521   0.00000  Uiso   1.00
H103   H     0.89291   0.24427   0.22385   0.00000  Uiso   1.00
H104   H     0.78511   0.20743   0.01717   0.00000  Uiso   1.00
H105   H     0.59276   0.03399   0.17393   0.00000  Uiso   1.00
H106   H     0.62990   0.28520   0.13615   0.00000  Uiso   1.00
H107   H     0.59240   0.21424   0.05214   0.00000  Uiso   1.00
H108   H     0.51757   0.22730   0.00450   0.00000  Uiso   1.00
H109   H     0.98251   0.31146   0.03494   0.00000  Uiso   1.00
H110   H     0.51754   0.02190   0.29827   0.00000  Uiso   1.00
H111   H     0.98248   0.10606   0.32872   0.00000  Uiso   1.00
H112   H     0.90760   0.11909   0.28121   0.00000  Uiso   1.00
H113   H     0.87005   0.04811   0.19725   0.00000  Uiso   1.00
H114   H     0.60710   0.08905   0.10949   0.00000  Uiso   1.00
H115   H     0.90720   0.29933   0.15942   0.00000  Uiso   1.00
H116   H     0.88262   0.08803   0.10824   0.00000  Uiso   1.00
H117   H     0.61738   0.24529   0.22510   0.00000  Uiso   1.00
H118   H     0.94844   0.03793   0.09799   0.00000  Uiso   1.00
H119   H     0.55156   0.29539   0.23530   0.00000  Uiso   1.00
H120   H     0.74395   0.31954   0.09540   0.00000  Uiso   1.00
H121   H     0.75604   0.01380   0.23793   0.00000  Uiso   1.00
H122   H     0.71490   0.12590   0.31617   0.00000  Uiso   1.00
N123   N     0.73745   0.15214   0.01284   0.00000  Uiso   1.00
N124   N     0.76256   0.18119   0.32049   0.00000  Uiso   1.00
O125   O     0.75326   0.09538   0.20659   0.00000  Uiso   1.00
O126   O     0.74675   0.23796   0.12674   0.00000  Uiso   1.00
O127   O     0.74480   0.08559   0.10279   0.00000  Uiso   1.00
O128   O     0.75520   0.24774   0.23055   0.00000  Uiso   1.00
O129   O     0.68936   0.17155   0.21857   0.00000  Uiso   1.00
O130   O     0.81065   0.16179   0.11476   0.00000  Uiso   1.00
O131   O     0.68090   0.16176   0.11477   0.00000  Uiso   1.00
O132   O     0.81910   0.17157   0.21857   0.00000  Uiso   1.00
C133   C     0.24864   0.39987   0.15097   0.00000  Uiso   1.00
C134   C     0.09040   0.45456   0.13727   0.00000  Uiso   1.00
C135   C     0.38361   0.50064   0.16403   0.00000  Uiso   1.00
C136   C     0.11639   0.49934   0.16930   0.00000  Uiso   1.00
C137   C     0.40350   0.45608   0.13212   0.00000  Uiso   1.00
C138   C     0.09650   0.54390   0.20120   0.00000  Uiso   1.00
C139   C     0.45014   0.45449   0.13645   0.00000  Uiso   1.00
C140   C     0.04986   0.54550   0.19685   0.00000  Uiso   1.00
C141   C     0.47662   0.50080   0.16526   0.00000  Uiso   1.00
C142   C     0.02338   0.49919   0.16804   0.00000  Uiso   1.00
C143   C     0.45613   0.54847   0.19151   0.00000  Uiso   1.00
C144   C     0.25136   0.60013   0.18237   0.00000  Uiso   1.00
C145   C     0.04386   0.45152   0.14179   0.00000  Uiso   1.00
C146   C     0.47016   0.40655   0.11523   0.00000  Uiso   1.00
C147   C     0.02983   0.59344   0.21806   0.00000  Uiso   1.00
C148   C     0.03669   0.34950   0.10328   0.00000  Uiso   1.00
C149   C     0.07690   0.33885   0.13429   0.00000  Uiso   1.00
C150   C     0.09775   0.62472   0.11411   0.00000  Uiso   1.00
C151   C     0.07666   0.58475   0.06685   0.00000  Uiso   1.00
C152   C     0.03459   0.59219   0.03998   0.00000  Uiso   1.00
C153   C     0.01471   0.64065   0.05793   0.00000  Uiso   1.00
C154   C     0.46331   0.65050   0.23001   0.00000  Uiso   1.00
C155   C     0.01713   0.40332   0.11946   0.00000  Uiso   1.00
C156   C     0.48532   0.35937   0.27531   0.00000  Uiso   1.00
C157   C     0.46544   0.40782   0.29328   0.00000  Uiso   1.00
C158   C     0.42335   0.41525   0.26647   0.00000  Uiso   1.00
C159   C     0.40223   0.37527   0.21925   0.00000  Uiso   1.00
C160   C     0.42307   0.66114   0.19904   0.00000  Uiso   1.00
C161   C     0.48287   0.59667   0.21383   0.00000  Uiso   1.00
C162   C     0.24792   0.34376   0.14226   0.00000  Uiso   1.00
C163   C     0.25208   0.65624   0.19107   0.00000  Uiso   1.00
C164   C     0.16454   0.50004   0.16752   0.00000  Uiso   1.00
C165   C     0.33546   0.49996   0.16582   0.00000  Uiso   1.00
C166   C     0.40960   0.54542   0.19605   0.00000  Uiso   1.00
Cu167  Cu    0.25501   0.50579   0.22813   0.00000  Uiso   1.00
Cu168  Cu    0.24500   0.49421   0.10521   0.00000  Uiso   1.00
H169   H     0.39291   0.57760   0.22385   0.00000  Uiso   1.00
H170   H     0.28511   0.54076   0.01717   0.00000  Uiso   1.00
H171   H     0.09276   0.36732   0.17393   0.00000  Uiso   1.00
H172   H     0.12990   0.61853   0.13615   0.00000  Uiso   1.00
H173   H     0.09240   0.54757   0.05214   0.00000  Uiso   1.00
H174   H     0.01757   0.56063   0.00450   0.00000  Uiso   1.00
H175   H     0.48251   0.64480   0.03494   0.00000  Uiso   1.00
H176   H     0.01754   0.35524   0.29827   0.00000  Uiso   1.00
H177   H     0.48248   0.43940   0.32872   0.00000  Uiso   1.00
H178   H     0.40760   0.45242   0.28121   0.00000  Uiso   1.00
H179   H     0.37005   0.38145   0.19725   0.00000  Uiso   1.00
H180   H     0.10710   0.42238   0.10949   0.00000  Uiso   1.00
H181   H     0.40720   0.63267   0.15942   0.00000  Uiso   1.00
H182   H     0.38262   0.42136   0.10824   0.00000  Uiso   1.00
H183   H     0.11738   0.57862   0.22510   0.00000  Uiso   1.00
H184   H     0.44844   0.37126   0.09799   0.00000  Uiso   1.00
H185   H     0.05156   0.62873   0.23530   0.00000  Uiso   1.00
H186   H     0.24395   0.65287   0.09540   0.00000  Uiso   1.00
H187   H     0.25604   0.34713   0.23793   0.00000  Uiso   1.00
H188   H     0.21490   0.45924   0.31617   0.00000  Uiso   1.00
N189   N     0.23745   0.48547   0.01284   0.00000  Uiso   1.00
N190   N     0.26256   0.51453   0.32049   0.00000  Uiso   1.00
O191   O     0.25326   0.42871   0.20659   0.00000  Uiso   1.00
O192   O     0.24675   0.57129   0.12674   0.00000  Uiso   1.00
O193   O     0.24480   0.41892   0.10279   0.00000  Uiso   1.00
O194   O     0.25520   0.58108   0.23055   0.00000  Uiso   1.00
O195   O     0.18936   0.50488   0.21857   0.00000  Uiso   1.00
O196   O     0.31065   0.49512   0.11476   0.00000  Uiso   1.00
O197   O     0.18090   0.49510   0.11477   0.00000  Uiso   1.00
O198   O     0.31910   0.50490   0.21857   0.00000  Uiso   1.00
C199   C     0.74864   0.39987   0.15097   0.00000  Uiso   1.00
C200   C     0.59040   0.45456   0.13727   0.00000  Uiso   1.00
C201   C     0.88361   0.50064   0.16403   0.00000  Uiso   1.00
C202   C     0.61639   0.49934   0.16930   0.00000  Uiso   1.00
C203   C     0.90350   0.45608   0.13212   0.00000  Uiso   1.00
C204   C     0.59650   0.54390   0.20120   0.00000  Uiso   1.00
C205   C     0.95014   0.45449   0.13645   0.00000  Uiso   1.00
C206   C     0.54986   0.54550   0.19685   0.00000  Uiso   1.00
C207   C     0.97662   0.50080   0.16526   0.00000  Uiso   1.00
C208   C     0.52338   0.49919   0.16804   0.00000  Uiso   1.00
C209   C     0.95613   0.54847   0.19151   0.00000  Uiso   1.00
C210   C     0.75136   0.60013   0.18237   0.00000  Uiso   1.00
C211   C     0.54386   0.45152   0.14179   0.00000  Uiso   1.00
C212   C     0.97016   0.40655   0.11523   0.00000  Uiso   1.00
C213   C     0.52983   0.59344   0.21806   0.00000  Uiso   1.00
C214   C     0.53669   0.34950   0.10328   0.00000  Uiso   1.00
C215   C     0.57690   0.33885   0.13429   0.00000  Uiso   1.00
C216   C     0.59775   0.62472   0.11411   0.00000  Uiso   1.00
C217   C     0.57666   0.58475   0.06685   0.00000  Uiso   1.00
C218   C     0.53459   0.59219   0.03998   0.00000  Uiso   1.00
C219   C     0.51471   0.64065   0.05793   0.00000  Uiso   1.00
C220   C     0.96331   0.65050   0.23001   0.00000  Uiso   1.00
C221   C     0.51713   0.40332   0.11946   0.00000  Uiso   1.00
C222   C     0.98532   0.35937   0.27531   0.00000  Uiso   1.00
C223   C     0.96544   0.40782   0.29328   0.00000  Uiso   1.00
C224   C     0.92335   0.41525   0.26647   0.00000  Uiso   1.00
C225   C     0.90223   0.37527   0.21925   0.00000  Uiso   1.00
C226   C     0.92307   0.66114   0.19904   0.00000  Uiso   1.00
C227   C     0.98287   0.59667   0.21383   0.00000  Uiso   1.00
C228   C     0.74792   0.34376   0.14226   0.00000  Uiso   1.00
C229   C     0.75208   0.65624   0.19107   0.00000  Uiso   1.00
C230   C     0.66454   0.50004   0.16752   0.00000  Uiso   1.00
C231   C     0.83546   0.49996   0.16582   0.00000  Uiso   1.00
C232   C     0.90960   0.54542   0.19605   0.00000  Uiso   1.00
Cu233  Cu    0.75501   0.50579   0.22813   0.00000  Uiso   1.00
Cu234  Cu    0.74500   0.49421   0.10521   0.00000  Uiso   1.00
H235   H     0.89291   0.57760   0.22385   0.00000  Uiso   1.00
H236   H     0.78511   0.54076   0.01717   0.00000  Uiso   1.00
H237   H     0.59276   0.36732   0.17393   0.00000  Uiso   1.00
H238   H     0.62990   0.61853   0.13615   0.00000  Uiso   1.00
H239   H     0.59240   0.54757   0.05214   0.00000  Uiso   1.00
H240   H     0.51757   0.56063   0.00450   0.00000  Uiso   1.00
H241   H     0.98251   0.64480   0.03494   0.00000  Uiso   1.00
H242   H     0.51754   0.35524   0.29827   0.00000  Uiso   1.00
H243   H     0.98248   0.43940   0.32872   0.00000  Uiso   1.00
H244   H     0.90760   0.45242   0.28121   0.00000  Uiso   1.00
H245   H     0.87005   0.38145   0.19725   0.00000  Uiso   1.00
H246   H     0.60710   0.42238   0.10949   0.00000  Uiso   1.00
H247   H     0.90720   0.63267   0.15942   0.00000  Uiso   1.00
H248   H     0.88262   0.42136   0.10824   0.00000  Uiso   1.00
H249   H     0.61738   0.57862   0.22510   0.00000  Uiso   1.00
H250   H     0.94844   0.37126   0.09799   0.00000  Uiso   1.00
H251   H     0.55156   0.62873   0.23530   0.00000  Uiso   1.00
H252   H     0.74395   0.65287   0.09540   0.00000  Uiso   1.00
H253   H     0.75604   0.34713   0.23793   0.00000  Uiso   1.00
H254   H     0.71490   0.45924   0.31617   0.00000  Uiso   1.00
N255   N     0.73745   0.48547   0.01284   0.00000  Uiso   1.00
N256   N     0.76256   0.51453   0.32049   0.00000  Uiso   1.00
O257   O     0.75326   0.42871   0.20659   0.00000  Uiso   1.00
O258   O     0.74675   0.57129   0.12674   0.00000  Uiso   1.00
O259   O     0.74480   0.41892   0.10279   0.00000  Uiso   1.00
O260   O     0.75520   0.58108   0.23055   0.00000  Uiso   1.00
O261   O     0.68936   0.50488   0.21857   0.00000  Uiso   1.00
O262   O     0.81065   0.49512   0.11476   0.00000  Uiso   1.00
O263   O     0.68090   0.49510   0.11477   0.00000  Uiso   1.00
O264   O     0.81910   0.50490   0.21857   0.00000  Uiso   1.00
C265   C     0.24864   0.73320   0.15097   0.00000  Uiso   1.00
C266   C     0.09040   0.78790   0.13727   0.00000  Uiso   1.00
C267   C     0.38361   0.83397   0.16403   0.00000  Uiso   1.00
C268   C     0.11639   0.83268   0.16930   0.00000  Uiso   1.00
C269   C     0.40350   0.78942   0.13212   0.00000  Uiso   1.00
C270   C     0.09650   0.87724   0.20120   0.00000  Uiso   1.00
C271   C     0.45014   0.78783   0.13645   0.00000  Uiso   1.00
C272   C     0.04986   0.87883   0.19685   0.00000  Uiso   1.00
C273   C     0.47662   0.83414   0.16526   0.00000  Uiso   1.00
C274   C     0.02338   0.83252   0.16804   0.00000  Uiso   1.00
C275   C     0.45613   0.88180   0.19151   0.00000  Uiso   1.00
C276   C     0.25136   0.93346   0.18237   0.00000  Uiso   1.00
C277   C     0.04386   0.78486   0.14179   0.00000  Uiso   1.00
C278   C     0.47016   0.73988   0.11523   0.00000  Uiso   1.00
C279   C     0.02983   0.92677   0.21806   0.00000  Uiso   1.00
C280   C     0.03669   0.68283   0.10328   0.00000  Uiso   1.00
C281   C     0.07690   0.67218   0.13429   0.00000  Uiso   1.00
C282   C     0.09775   0.95806   0.11411   0.00000  Uiso   1.00
C283   C     0.07666   0.91808   0.06685   0.00000  Uiso   1.00
C284   C     0.03459   0.92553   0.03998   0.00000  Uiso   1.00
C285   C     0.01471   0.97398   0.05793   0.00000  Uiso   1.00
C286   C     0.46331   0.98384   0.23001   0.00000  Uiso   1.00
C287   C     0.01713   0.73666   0.11946   0.00000  Uiso   1.00
C288   C     0.48532   0.69271   0.27531   0.00000  Uiso   1.00
C289   C     0.46544   0.74116   0.29328   0.00000  Uiso   1.00
C290   C     0.42335   0.74858   0.26647   0.00000  Uiso   1.00
C291   C     0.40223   0.70860   0.21925   0.00000  Uiso   1.00
C292   C     0.42307   0.99448   0.19904   0.00000  Uiso   1.00
C293   C     0.48287   0.93001   0.21383   0.00000  Uiso   1.00
C294   C     0.24792   0.67709   0.14226   0.00000  Uiso   1.00
C295   C     0.25208   0.98957   0.19107   0.00000  Uiso   1.00
C296   C     0.16454   0.83337   0.16752   0.00000  Uiso   1.00
C297   C     0.33546   0.83329   0.16582   0.00000  Uiso   1.00
C298   C     0.40960   0.87876   0.19605   0.00000  Uiso   1.00
Cu299  Cu    0.25501   0.83913   0.22813   0.00000  Uiso   1.00
Cu300  Cu    0.24500   0.82754   0.10521   0.00000  Uiso   1.00
H301   H     0.39291   0.91093   0.22385   0.00000  Uiso   1.00
H302   H     0.28511   0.87410   0.01717   0.00000  Uiso   1.00
H303   H     0.09276   0.70066   0.17393   0.00000  Uiso   1.00
H304   H     0.12990   0.95186   0.13615   0.00000  Uiso   1.00
H305   H     0.09240   0.88091   0.05214   0.00000  Uiso   1.00
H306   H     0.01757   0.89396   0.00450   0.00000  Uiso   1.00
H307   H     0.48251   0.97813   0.03494   0.00000  Uiso   1.00
H308   H     0.01754   0.68857   0.29827   0.00000  Uiso   1.00
H309   H     0.48248   0.77273   0.32872   0.00000  Uiso   1.00
H310   H     0.40760   0.78575   0.28121   0.00000  Uiso   1.00
H311   H     0.37005   0.71478   0.19725   0.00000  Uiso   1.00
H312   H     0.10710   0.75571   0.10949   0.00000  Uiso   1.00
H313   H     0.40720   0.96600   0.15942   0.00000  Uiso   1.00
H314   H     0.38262   0.75469   0.10824   0.00000  Uiso   1.00
H315   H     0.11738   0.91196   0.22510   0.00000  Uiso   1.00
H316   H     0.44844   0.70459   0.09799   0.00000  Uiso   1.00
H317   H     0.05156   0.96206   0.23530   0.00000  Uiso   1.00
H318   H     0.24395   0.98620   0.09540   0.00000  Uiso   1.00
H319   H     0.25604   0.68046   0.23793   0.00000  Uiso   1.00
H320   H     0.21490   0.79257   0.31617   0.00000  Uiso   1.00
N321   N     0.23745   0.81881   0.01284   0.00000  Uiso   1.00
N322   N     0.26256   0.84786   0.32049   0.00000  Uiso   1.00
O323   O     0.25326   0.76204   0.20659   0.00000  Uiso   1.00
O324   O     0.24675   0.90462   0.12674   0.00000  Uiso   1.00
O325   O     0.24480   0.75226   0.10279   0.00000  Uiso   1.00
O326   O     0.25520   0.91441   0.23055   0.00000  Uiso   1.00
O327   O     0.18936   0.83821   0.21857   0.00000  Uiso   1.00
O328   O     0.31065   0.82845   0.11476   0.00000  Uiso   1.00
O329   O     0.18090   0.82843   0.11477   0.00000  Uiso   1.00
O330   O     0.31910   0.83824   0.21857   0.00000  Uiso   1.00
C331   C     0.74864   0.73320   0.15097   0.00000  Uiso   1.00
C332   C     0.59040   0.78790   0.13727   0.00000  Uiso   1.00
C333   C     0.88361   0.83397   0.16403   0.00000  Uiso   1.00
C334   C     0.61639   0.83268   0.16930   0.00000  Uiso   1.00
C335   C     0.90350   0.78942   0.13212   0.00000  Uiso   1.00
C336   C     0.59650   0.87724   0.20120   0.00000  Uiso   1.00
C337   C     0.95014   0.78783   0.13645   0.00000  Uiso   1.00
C338   C     0.54986   0.87883   0.19685   0.00000  Uiso   1.00
C339   C     0.97662   0.83414   0.16526   0.00000  Uiso   1.00
C340   C     0.52338   0.83252   0.16804   0.00000  Uiso   1.00
C341   C     0.95613   0.88180   0.19151   0.00000  Uiso   1.00
C342   C     0.75136   0.93346   0.18237   0.00000  Uiso   1.00
C343   C     0.54386   0.78486   0.14179   0.00000  Uiso   1.00
C344   C     0.97016   0.73988   0.11523   0.00000  Uiso   1.00
C345   C     0.52983   0.92677   0.21806   0.00000  Uiso   1.00
C346   C     0.53669   0.68283   0.10328   0.00000  Uiso   1.00
C347   C     0.57690   0.67218   0.13429   0.00000  Uiso   1.00
C348   C     0.59775   0.95806   0.11411   0.00000  Uiso   1.00
C349   C     0.57666   0.91808   0.06685   0.00000  Uiso   1.00
C350   C     0.53459   0.92553   0.03998   0.00000  Uiso   1.00
C351   C     0.51471   0.97398   0.05793   0.00000  Uiso   1.00
C352   C     0.96331   0.98384   0.23001   0.00000  Uiso   1.00
C353   C     0.51713   0.73666   0.11946   0.00000  Uiso   1.00
C354   C     0.98532   0.69271   0.27531   0.00000  Uiso   1.00
C355   C     0.96544   0.74116   0.29328   0.00000  Uiso   1.00
C356   C     0.92335   0.74858   0.26647   0.00000  Uiso   1.00
C357   C     0.90223   0.70860   0.21925   0.00000  Uiso   1.00
C358   C     0.92307   0.99448   0.19904   0.00000  Uiso   1.00
C359   C     0.98287   0.93001   0.21383   0.00000  Uiso   1.00
C360   C     0.74792   0.67709   0.14226   0.00000  Uiso   1.00
C361   C     0.75208   0.98957   0.19107   0.00000  Uiso   1.00
C362   C     0.66454   0.83337   0.16752   0.00000  Uiso   1.00
C363   C     0.83546   0.83329   0.16582   0.00000  Uiso   1.00
C364   C     0.90960   0.87876   0.19605   0.00000  Uiso   1.00
Cu365  Cu    0.75501   0.83913   0.22813   0.00000  Uiso   1.00
Cu366  Cu    0.74500   0.82754   0.10521   0.00000  Uiso   1.00
H367   H     0.89291   0.91093   0.22385   0.00000  Uiso   1.00
H368   H     0.78511   0.87410   0.01717   0.00000  Uiso   1.00
H369   H     0.59276   0.70066   0.17393   0.00000  Uiso   1.00
H370   H     0.62990   0.95186   0.13615   0.00000  Uiso   1.00
H371   H     0.59240   0.88091   0.05214   0.00000  Uiso   1.00
H372   H     0.51757   0.89396   0.00450   0.00000  Uiso   1.00
H373   H     0.98251   0.97813   0.03494   0.00000  Uiso   1.00
H374   H     0.51754   0.68857   0.29827   0.00000  Uiso   1.00
H375   H     0.98248   0.77273   0.32872   0.00000  Uiso   1.00
H376   H     0.90760   0.78575   0.28121   0.00000  Uiso   1.00
H377   H     0.87005   0.71478   0.19725   0.00000  Uiso   1.00
H378   H     0.60710   0.75571   0.10949   0.00000  Uiso   1.00
H379   H     0.90720   0.96600   0.15942   0.00000  Uiso   1.00
H380   H     0.88262   0.75469   0.10824   0.00000  Uiso   1.00
H381   H     0.61738   0.91196   0.22510   0.00000  Uiso   1.00
H382   H     0.94844   0.70459   0.09799   0.00000  Uiso   1.00
H383   H     0.55156   0.96206   0.23530   0.00000  Uiso   1.00
H384   H     0.74395   0.98620   0.09540   0.00000  Uiso   1.00
H385   H     0.75604   0.68046   0.23793   0.00000  Uiso   1.00
H386   H     0.71490   0.79257   0.31617   0.00000  Uiso   1.00
N387   N     0.73745   0.81881   0.01284   0.00000  Uiso   1.00
N388   N     0.76256   0.84786   0.32049   0.00000  Uiso   1.00
O389   O     0.75326   0.76204   0.20659   0.00000  Uiso   1.00
O390   O     0.74675   0.90462   0.12674   0.00000  Uiso   1.00
O391   O     0.74480   0.75226   0.10279   0.00000  Uiso   1.00
O392   O     0.75520   0.91441   0.23055   0.00000  Uiso   1.00
O393   O     0.68936   0.83821   0.21857   0.00000  Uiso   1.00
O394   O     0.81065   0.82845   0.11476   0.00000  Uiso   1.00
O395   O     0.68090   0.82843   0.11477   0.00000  Uiso   1.00
O396   O     0.81910   0.83824   0.21857   0.00000  Uiso   1.00
C397   C     0.24864   0.06654   0.48430   0.00000  Uiso   1.00
C398   C     0.09040   0.12123   0.47061   0.00000  Uiso   1.00
C399   C     0.38361   0.16731   0.49736   0.00000  Uiso   1.00
C400   C     0.11639   0.16601   0.50263   0.00000  Uiso   1.00
C401   C     0.40350   0.12275   0.46546   0.00000  Uiso   1.00
C402   C     0.09650   0.21057   0.53454   0.00000  Uiso   1.00
C403   C     0.45014   0.12116   0.46979   0.00000  Uiso   1.00
C404   C     0.04986   0.21216   0.53018   0.00000  Uiso   1.00
C405   C     0.47662   0.16747   0.49859   0.00000  Uiso   1.00
C406   C     0.02338   0.16586   0.50137   0.00000  Uiso   1.00
C407   C     0.45613   0.21514   0.52484   0.00000  Uiso   1.00
C408   C     0.25136   0.26680   0.51570   0.00000  Uiso   1.00
C409   C     0.04386   0.11819   0.47512   0.00000  Uiso   1.00
C410   C     0.47016   0.07322   0.44856   0.00000  Uiso   1.00
C411   C     0.02983   0.26011   0.55139   0.00000  Uiso   1.00
C412   C     0.03669   0.01616   0.43661   0.00000  Uiso   1.00
C413   C     0.07690   0.00552   0.46763   0.00000  Uiso   1.00
C414   C     0.09775   0.29139   0.44744   0.00000  Uiso   1.00
C415   C     0.07666   0.25141   0.40018   0.00000  Uiso   1.00
C416   C     0.03459   0.25886   0.37331   0.00000  Uiso   1.00
C417   C     0.01471   0.30731   0.39126   0.00000  Uiso   1.00
C418   C     0.46331   0.31717   0.56334   0.00000  Uiso   1.00
C419   C     0.01713   0.06999   0.45279   0.00000  Uiso   1.00
C420   C     0.48532   0.02604   0.60865   0.00000  Uiso   1.00
C421   C     0.46544   0.07449   0.62661   0.00000  Uiso   1.00
C422   C     0.42335   0.08192   0.59980   0.00000  Uiso   1.00
C423   C     0.40223   0.04193   0.55258   0.00000  Uiso   1.00
C424   C     0.42307   0.32781   0.53237   0.00000  Uiso   1.00
C425   C     0.48287   0.26334   0.54716   0.00000  Uiso   1.00
C426   C     0.24792   0.01043   0.47560   0.00000  Uiso   1.00
C427   C     0.25208   0.32291   0.52440   0.00000  Uiso   1.00
C428   C     0.16454   0.16670   0.50085   0.00000  Uiso   1.00
C429   C     0.33546   0.16662   0.49915   0.00000  Uiso   1.00
C430   C     0.40960   0.21209   0.52938   0.00000  Uiso   1.00
Cu431  Cu    0.25501   0.17246   0.56146   0.00000  Uiso   1.00
Cu432  Cu    0.24500   0.16087   0.43854   0.00000  Uiso   1.00
H433   H     0.39291   0.24427   0.55718   0.00000  Uiso   1.00
H434   H     0.28511   0.20743   0.35050   0.00000  Uiso   1.00
H435   H     0.09276   0.03399   0.50727   0.00000  Uiso   1.00
H436   H     0.12990   0.28520   0.46949   0.00000  Uiso   1.00
H437   H     0.09240   0.21424   0.38547   0.00000  Uiso   1.00
H438   H     0.01757   0.22730   0.33784   0.00000  Uiso   1.00
H439   H     0.48251   0.31146   0.36827   0.00000  Uiso   1.00
H440   H     0.01754   0.02190   0.63160   0.00000  Uiso   1.00
H441   H     0.48248   0.10606   0.66206   0.00000  Uiso   1.00
H442   H     0.40760   0.11909   0.61454   0.00000  Uiso   1.00
H443   H     0.37005   0.04811   0.53058   0.00000  Uiso   1.00
H444   H     0.10710   0.08905   0.44282   0.00000  Uiso   1.00
H445   H     0.40720   0.29933   0.49275   0.00000  Uiso   1.00
H446   H     0.38262   0.08803   0.44157   0.00000  Uiso   1.00
H447   H     0.11738   0.24529   0.55843   0.00000  Uiso   1.00
H448   H     0.44844   0.03793   0.43132   0.00000  Uiso   1.00
H449   H     0.05156   0.29539   0.56864   0.00000  Uiso   1.00
H450   H     0.24395   0.31954   0.42873   0.00000  Uiso   1.00
H451   H     0.25604   0.01380   0.57127   0.00000  Uiso   1.00
H452   H     0.21490   0.12590   0.64950   0.00000  Uiso   1.00
N453   N     0.23745   0.15214   0.34617   0.00000  Uiso   1.00
N454   N     0.26256   0.18119   0.65383   0.00000  Uiso   1.00
O455   O     0.25326   0.09538   0.53992   0.00000  Uiso   1.00
O456   O     0.24675   0.23796   0.46008   0.00000  Uiso   1.00
O457   O     0.24480   0.08559   0.43612   0.00000  Uiso   1.00
O458   O     0.25520   0.24774   0.56388   0.00000  Uiso   1.00
O459   O     0.18936   0.17155   0.55191   0.00000  Uiso   1.00
O460   O     0.31065   0.16179   0.44809   0.00000  Uiso   1.00
O461   O     0.18090   0.16176   0.44810   0.00000  Uiso   1.00
O462   O     0.31910   0.17157   0.55190   0.00000  Uiso   1.00
C463   C     0.74864   0.06654   0.48430   0.00000  Uiso   1.00
C464   C     0.59040   0.12123   0.47061   0.00000  Uiso   1.00
C465   C     0.88361   0.16731   0.49736   0.00000  Uiso   1.00
C466   C     0.61639   0.16601   0.50263   0.00000  Uiso   1.00
C467   C     0.90350   0.12275   0.46546   0.00000  Uiso   1.00
C468   C     0.59650   0.21057   0.53454   0.00000  Uiso   1.00
C469   C     0.95014   0.12116   0.46979   0.00000  Uiso   1.00
C470   C     0.54986   0.21216   0.53018   0.00000  Uiso   1.00
C471   C     0.97662   0.16747   0.49859   0.00000  Uiso   1.00
C472   C     0.52338   0.16586   0.50137   0.00000  Uiso   1.00
C473   C     0.95613   0.21514   0.52484   0.00000  Uiso   1.00
C474   C     0.75136   0.26680   0.51570   0.00000  Uiso   1.00
C475   C     0.54386   0.11819   0.47512   0.00000  Uiso   1.00
C476   C     0.97016   0.07322   0.44856   0.00000  Uiso   1.00
C477   C     0.52983   0.26011   0.55139   0.00000  Uiso   1.00
C478   C     0.53669   0.01616   0.43661   0.00000  Uiso   1.00
C479   C     0.57690   0.00552   0.46763   0.00000  Uiso   1.00
C480   C     0.59775   0.29139   0.44744   0.00000  Uiso   1.00
C481   C     0.57666   0.25141   0.40018   0.00000  Uiso   1.00
C482   C     0.53459   0.25886   0.37331   0.00000  Uiso   1.00
C483   C     0.51471   0.30731   0.39126   0.00000  Uiso   1.00
C484   C     0.96331   0.31717   0.56334   0.00000  Uiso   1.00
C485   C     0.51713   0.06999   0.45279   0.00000  Uiso   1.00
C486   C     0.98532   0.02604   0.60865   0.00000  Uiso   1.00
C487   C     0.96544   0.07449   0.62661   0.00000  Uiso   1.00
C488   C     0.92335   0.08192   0.59980   0.00000  Uiso   1.00
C489   C     0.90223   0.04193   0.55258   0.00000  Uiso   1.00
C490   C     0.92307   0.32781   0.53237   0.00000  Uiso   1.00
C491   C     0.98287   0.26334   0.54716   0.00000  Uiso   1.00
C492   C     0.74792   0.01043   0.47560   0.00000  Uiso   1.00
C493   C     0.75208   0.32291   0.52440   0.00000  Uiso   1.00
C494   C     0.66454   0.16670   0.50085   0.00000  Uiso   1.00
C495   C     0.83546   0.16662   0.49915   0.00000  Uiso   1.00
C496   C     0.90960   0.21209   0.52938   0.00000  Uiso   1.00
Cu497  Cu    0.75501   0.17246   0.56146   0.00000  Uiso   1.00
Cu498  Cu    0.74500   0.16087   0.43854   0.00000  Uiso   1.00
H499   H     0.89291   0.24427   0.55718   0.00000  Uiso   1.00
H500   H     0.78511   0.20743   0.35050   0.00000  Uiso   1.00
H501   H     0.59276   0.03399   0.50727   0.00000  Uiso   1.00
H502   H     0.62990   0.28520   0.46949   0.00000  Uiso   1.00
H503   H     0.59240   0.21424   0.38547   0.00000  Uiso   1.00
H504   H     0.51757   0.22730   0.33784   0.00000  Uiso   1.00
H505   H     0.98251   0.31146   0.36827   0.00000  Uiso   1.00
H506   H     0.51754   0.02190   0.63160   0.00000  Uiso   1.00
H507   H     0.98248   0.10606   0.66206   0.00000  Uiso   1.00
H508   H     0.90760   0.11909   0.61454   0.00000  Uiso   1.00
H509   H     0.87005   0.04811   0.53058   0.00000  Uiso   1.00
H510   H     0.60710   0.08905   0.44282   0.00000  Uiso   1.00
H511   H     0.90720   0.29933   0.49275   0.00000  Uiso   1.00
H512   H     0.88262   0.08803   0.44157   0.00000  Uiso   1.00
H513   H     0.61738   0.24529   0.55843   0.00000  Uiso   1.00
H514   H     0.94844   0.03793   0.43132   0.00000  Uiso   1.00
H515   H     0.55156   0.29539   0.56864   0.00000  Uiso   1.00
H516   H     0.74395   0.31954   0.42873   0.00000  Uiso   1.00
H517   H     0.75604   0.01380   0.57127   0.00000  Uiso   1.00
H518   H     0.71490   0.12590   0.64950   0.00000  Uiso   1.00
N519   N     0.73745   0.15214   0.34617   0.00000  Uiso   1.00
N520   N     0.76256   0.18119   0.65383   0.00000  Uiso   1.00
O521   O     0.75326   0.09538   0.53992   0.00000  Uiso   1.00
O522   O     0.74675   0.23796   0.46008   0.00000  Uiso   1.00
O523   O     0.74480   0.08559   0.43612   0.00000  Uiso   1.00
O524   O     0.75520   0.24774   0.56388   0.00000  Uiso   1.00
O525   O     0.68936   0.17155   0.55191   0.00000  Uiso   1.00
O526   O     0.81065   0.16179   0.44809   0.00000  Uiso   1.00
O527   O     0.68090   0.16176   0.44810   0.00000  Uiso   1.00
O528   O     0.81910   0.17157   0.55190   0.00000  Uiso   1.00
C529   C     0.24864   0.39987   0.48430   0.00000  Uiso   1.00
C530   C     0.09040   0.45456   0.47061   0.00000  Uiso   1.00
C531   C     0.38361   0.50064   0.49736   0.00000  Uiso   1.00
C532   C     0.11639   0.49934   0.50263   0.00000  Uiso   1.00
C533   C     0.40350   0.45608   0.46546   0.00000  Uiso   1.00
C534   C     0.09650   0.54390   0.53454   0.00000  Uiso   1.00
C535   C     0.45014   0.45449   0.46979   0.00000  Uiso   1.00
C536   C     0.04986   0.54550   0.53018   0.00000  Uiso   1.00
C537   C     0.47662   0.50080   0.49859   0.00000  Uiso   1.00
C538   C     0.02338   0.49919   0.50137   0.00000  Uiso   1.00
C539   C     0.45613   0.54847   0.52484   0.00000  Uiso   1.00
C540   C     0.25136   0.60013   0.51570   0.00000  Uiso   1.00
C541   C     0.04386   0.45152   0.47512   0.00000  Uiso   1.00
C542   C     0.47016   0.40655   0.44856   0.00000  Uiso   1.00
C543   C     0.02983   0.59344   0.55139   0.00000  Uiso   1.00
C544   C     0.03669   0.34950   0.43661   0.00000  Uiso   1.00
C545   C     0.07690   0.33885   0.46763   0.00000  Uiso   1.00
C546   C     0.09775   0.62472   0.44744   0.00000  Uiso   1.00
C547   C     0.07666   0.58475   0.40018   0.00000  Uiso   1.00
C548   C     0.03459   0.59219   0.37331   0.00000  Uiso   1.00
C549   C     0.01471   0.64065   0.39126   0.00000  Uiso   1.00
C550   C     0.46331   0.65050   0.56334   0.00000  Uiso   1.00
C551   C     0.01713   0.40332   0.45279   0.00000  Uiso   1.00
C552   C     0.48532   0.35937   0.60865   0.00000  Uiso   1.00
C553   C     0.46544   0.40782   0.62661   0.00000  Uiso   1.00
C554   C     0.42335   0.41525   0.59980   0.00000  Uiso   1.00
C555   C     0.40223   0.37527   0.55258   0.00000  Uiso   1.00
C556   C     0.42307   0.66114   0.53237   0.00000  Uiso   1.00
C557   C     0.48287   0.59667   0.54716   0.00000  Uiso   1.00
C558   C     0.24792   0.34376   0.47560   0.00000  Uiso   1.00
C559   C     0.25208   0.65624   0.52440   0.00000  Uiso   1.00
C560   C     0.16454   0.50004   0.50085   0.00000  Uiso   1.00
C561   C     0.33546   0.49996   0.49915   0.00000  Uiso   1.00
C562   C     0.40960   0.54542   0.52938   0.00000  Uiso   1.00
Cu563  Cu    0.25501   0.50579   0.56146   0.00000  Uiso   1.00
Cu564  Cu    0.24500   0.49421   0.43854   0.00000  Uiso   1.00
H565   H     0.39291   0.57760   0.55718   0.00000  Uiso   1.00
H566   H     0.28511   0.54076   0.35050   0.00000  Uiso   1.00
H567   H     0.09276   0.36732   0.50727   0.00000  Uiso   1.00
H568   H     0.12990   0.61853   0.46949   0.00000  Uiso   1.00
H569   H     0.09240   0.54757   0.38547   0.00000  Uiso   1.00
H570   H     0.01757   0.56063   0.33784   0.00000  Uiso   1.00
H571   H     0.48251   0.64480   0.36827   0.00000  Uiso   1.00
H572   H     0.01754   0.35524   0.63160   0.00000  Uiso   1.00
H573   H     0.48248   0.43940   0.66206   0.00000  Uiso   1.00
H574   H     0.40760   0.45242   0.61454   0.00000  Uiso   1.00
H575   H     0.37005   0.38145   0.53058   0.00000  Uiso   1.00
H576   H     0.10710   0.42238   0.44282   0.00000  Uiso   1.00
H577   H     0.40720   0.63267   0.49275   0.00000  Uiso   1.00
H578   H     0.38262   0.42136   0.44157   0.00000  Uiso   1.00
H579   H     0.11738   0.57862   0.55843   0.00000  Uiso   1.00
H580   H     0.44844   0.37126   0.43132   0.00000  Uiso   1.00
H581   H     0.05156   0.62873   0.56864   0.00000  Uiso   1.00
H582   H     0.24395   0.65287   0.42873   0.00000  Uiso   1.00
H583   H     0.25604   0.34713   0.57127   0.00000  Uiso   1.00
H584   H     0.21490   0.45924   0.64950   0.00000  Uiso   1.00
N585   N     0.23745   0.48547   0.34617   0.00000  Uiso   1.00
N586   N     0.26256   0.51453   0.65383   0.00000  Uiso   1.00
O587   O     0.25326   0.42871   0.53992   0.00000  Uiso   1.00
O588   O     0.24675   0.57129   0.46008   0.00000  Uiso   1.00
O589   O     0.24480   0.41892   0.43612   0.00000  Uiso   1.00
O590   O     0.25520   0.58108   0.56388   0.00000  Uiso   1.00
O591   O     0.18936   0.50488   0.55191   0.00000  Uiso   1.00
O592   O     0.31065   0.49512   0.44809   0.00000  Uiso   1.00
O593   O     0.18090   0.49510   0.44810   0.00000  Uiso   1.00
O594   O     0.31910   0.50490   0.55190   0.00000  Uiso   1.00
C595   C     0.74864   0.39987   0.48430   0.00000  Uiso   1.00
C596   C     0.59040   0.45456   0.47061   0.00000  Uiso   1.00
C597   C     0.88361   0.50064   0.49736   0.00000  Uiso   1.00
C598   C     0.61639   0.49934   0.50263   0.00000  Uiso   1.00
C599   C     0.90350   0.45608   0.46546   0.00000  Uiso   1.00
C600   C     0.59650   0.54390   0.53454   0.00000  Uiso   1.00
C601   C     0.95014   0.45449   0.46979   0.00000  Uiso   1.00
C602   C     0.54986   0.54550   0.53018   0.00000  Uiso   1.00
C603   C     0.97662   0.50080   0.49859   0.00000  Uiso   1.00
C604   C     0.52338   0.49919   0.50137   0.00000  Uiso   1.00
C605   C     0.95613   0.54847   0.52484   0.00000  Uiso   1.00
C606   C     0.75136   0.60013   0.51570   0.00000  Uiso   1.00
C607   C     0.54386   0.45152   0.47512   0.00000  Uiso   1.00
C608   C     0.97016   0.40655   0.44856   0.00000  Uiso   1.00
C609   C     0.52983   0.59344   0.55139   0.00000  Uiso   1.00
C610   C     0.53669   0.34950   0.43661   0.00000  Uiso   1.00
C611   C     0.57690   0.33885   0.46763   0.00000  Uiso   1.00
C612   C     0.59775   0.62472   0.44744   0.00000  Uiso   1.00
C613   C     0.57666   0.58475   0.40018   0.00000  Uiso   1.00
C614   C     0.53459   0.59219   0.37331   0.00000  Uiso   1.00
C615   C     0.51471   0.64065   0.39126   0.00000  Uiso   1.00
C616   C     0.96331   0.65050   0.56334   0.00000  Uiso   1.00
C617   C     0.51713   0.40332   0.45279   0.00000  Uiso   1.00
C618   C     0.98532   0.35937   0.60865   0.00000  Uiso   1.00
C619   C     0.96544   0.40782   0.62661   0.00000  Uiso   1.00
C620   C     0.92335   0.41525   0.59980   0.00000  Uiso   1.00
C621   C     0.90223   0.37527   0.55258   0.00000  Uiso   1.00
C622   C     0.92307   0.66114   0.53237   0.00000  Uiso   1.00
C623   C     0.98287   0.59667   0.54716   0.00000  Uiso   1.00
C624   C     0.74792   0.34376   0.47560   0.00000  Uiso   1.00
C625   C     0.75208   0.65624   0.52440   0.00000  Uiso   1.00
C626   C     0.66454   0.50004   0.50085   0.00000  Uiso   1.00
C627   C     0.83546   0.49996   0.49915   0.00000  Uiso   1.00
C628   C     0.90960   0.54542   0.52938   0.00000  Uiso   1.00
Cu629  Cu    0.75501   0.50579   0.56146   0.00000  Uiso   1.00
Cu630  Cu    0.74500   0.49421   0.43854   0.00000  Uiso   1.00
H631   H     0.89291   0.57760   0.55718   0.00000  Uiso   1.00
H632   H     0.78511   0.54076   0.35050   0.00000  Uiso   1.00
H633   H     0.59276   0.36732   0.50727   0.00000  Uiso   1.00
H634   H     0.62990   0.61853   0.46949   0.00000  Uiso   1.00
H635   H     0.59240   0.54757   0.38547   0.00000  Uiso   1.00
H636   H     0.51757   0.56063   0.33784   0.00000  Uiso   1.00
H637   H     0.98251   0.64480   0.36827   0.00000  Uiso   1.00
H638   H     0.51754   0.35524   0.63160   0.00000  Uiso   1.00
H639   H     0.98248   0.43940   0.66206   0.00000  Uiso   1.00
H640   H     0.90760   0.45242   0.61454   0.00000  Uiso   1.00
H641   H     0.87005   0.38145   0.53058   0.00000  Uiso   1.00
H642   H     0.60710   0.42238   0.44282   0.00000  Uiso   1.00
H643   H     0.90720   0.63267   0.49275   0.00000  Uiso   1.00
H644   H     0.88262   0.42136   0.44157   0.00000  Uiso   1.00
H645   H     0.61738   0.57862   0.55843   0.00000  Uiso   1.00
H646   H     0.94844   0.37126   0.43132   0.00000  Uiso   1.00
H647   H     0.55156   0.62873   0.56864   0.00000  Uiso   1.00
H648   H     0.74395   0.65287   0.42873   0.00000  Uiso   1.00
H649   H     0.75604   0.34713   0.57127   0.00000  Uiso   1.00
H650   H     0.71490   0.45924   0.64950   0.00000  Uiso   1.00
N651   N     0.73745   0.48547   0.34617   0.00000  Uiso   1.00
N652   N     0.76256   0.51453   0.65383   0.00000  Uiso   1.00
O653   O     0.75326   0.42871   0.53992   0.00000  Uiso   1.00
O654   O     0.74675   0.57129   0.46008   0.00000  Uiso   1.00
O655   O     0.74480   0.41892   0.43612   0.00000  Uiso   1.00
O656   O     0.75520   0.58108   0.56388   0.00000  Uiso   1.00
O657   O     0.68936   0.50488   0.55191   0.00000  Uiso   1.00
O658   O     0.81065   0.49512   0.44809   0.00000  Uiso   1.00
O659   O     0.68090   0.49510   0.44810   0.00000  Uiso   1.00
O660   O     0.81910   0.50490   0.55190   0.00000  Uiso   1.00
C661   C     0.24864   0.73320   0.48430   0.00000  Uiso   1.00
C662   C     0.09040   0.78790   0.47061   0.00000  Uiso   1.00
C663   C     0.38361   0.83397   0.49736   0.00000  Uiso   1.00
C664   C     0.11639   0.83268   0.50263   0.00000  Uiso   1.00
C665   C     0.40350   0.78942   0.46546   0.00000  Uiso   1.00
C666   C     0.09650   0.87724   0.53454   0.00000  Uiso   1.00
C667   C     0.45014   0.78783   0.46979   0.00000  Uiso   1.00
C668   C     0.04986   0.87883   0.53018   0.00000  Uiso   1.00
C669   C     0.47662   0.83414   0.49859   0.00000  Uiso   1.00
C670   C     0.02338   0.83252   0.50137   0.00000  Uiso   1.00
C671   C     0.45613   0.88180   0.52484   0.00000  Uiso   1.00
C672   C     0.25136   0.93346   0.51570   0.00000  Uiso   1.00
C673   C     0.04386   0.78486   0.47512   0.00000  Uiso   1.00
C674   C     0.47016   0.73988   0.44856   0.00000  Uiso   1.00
C675   C     0.02983   0.92677   0.55139   0.00000  Uiso   1.00
C676   C     0.03669   0.68283   0.43661   0.00000  Uiso   1.00
C677   C     0.07690   0.67218   0.46763   0.00000  Uiso   1.00
C678   C     0.09775   0.95806   0.44744   0.00000  Uiso   1.00
C679   C     0.07666   0.91808   0.40018   0.00000  Uiso   1.00
C680   C     0.03459   0.92553   0.37331   0.00000  Uiso   1.00
C681   C     0.01471   0.97398   0.39126   0.00000  Uiso   1.00
C682   C     0.46331   0.98384   0.56334   0.00000  Uiso   1.00
C683   C     0.01713   0.73666   0.45279   0.00000  Uiso   1.00
C684   C     0.48532   0.69271   0.60865   0.00000  Uiso   1.00
C685   C     0.46544   0.74116   0.62661   0.00000  Uiso   1.00
C686   C     0.42335   0.74858   0.59980   0.00000  Uiso   1.00
C687   C     0.40223   0.70860   0.55258   0.00000  Uiso   1.00
C688   C     0.42307   0.99448   0.53237   0.00000  Uiso   1.00
C689   C     0.48287   0.93001   0.54716   0.00000  Uiso   1.00
C690   C     0.24792   0.67709   0.47560   0.00000  Uiso   1.00
C691   C     0.25208   0.98957   0.52440   0.00000  Uiso   1.00
C692   C     0.16454   0.83337   0.50085   0.00000  Uiso   1.00
C693   C     0.33546   0.83329   0.49915   0.00000  Uiso   1.00
C694   C     0.40960   0.87876   0.52938   0.00000  Uiso   1.00
Cu695  Cu    0.25501   0.83913   0.56146   0.00000  Uiso   1.00
Cu696  Cu    0.24500   0.82754   0.43854   0.00000  Uiso   1.00
H697   H     0.39291   0.91093   0.55718   0.00000  Uiso   1.00
H698   H     0.28511   0.87410   0.35050   0.00000  Uiso   1.00
H699   H     0.09276   0.70066   0.50727   0.00000  Uiso   1.00
H700   H     0.12990   0.95186   0.46949   0.00000  Uiso   1.00
H701   H     0.09240   0.88091   0.38547   0.00000  Uiso   1.00
H702   H     0.01757   0.89396   0.33784   0.00000  Uiso   1.00
H703   H     0.48251   0.97813   0.36827   0.00000  Uiso   1.00
H704   H     0.01754   0.68857   0.63160   0.00000  Uiso   1.00
H705   H     0.48248   0.77273   0.66206   0.00000  Uiso   1.00
H706   H     0.40760   0.78575   0.61454   0.00000  Uiso   1.00
H707   H     0.37005   0.71478   0.53058   0.00000  Uiso   1.00
H708   H     0.10710   0.75571   0.44282   0.00000  Uiso   1.00
H709   H     0.40720   0.96600   0.49275   0.00000  Uiso   1.00
H710   H     0.38262   0.75469   0.44157   0.00000  Uiso   1.00
H711   H     0.11738   0.91196   0.55843   0.00000  Uiso   1.00
H712   H     0.44844   0.70459   0.43132   0.00000  Uiso   1.00
H713   H     0.05156   0.96206   0.56864   0.00000  Uiso   1.00
H714   H     0.24395   0.98620   0.42873   0.00000  Uiso   1.00
H715   H     0.25604   0.68046   0.57127   0.00000  Uiso   1.00
H716   H     0.21490   0.79257   0.64950   0.00000  Uiso   1.00
N717   N     0.23745   0.81881   0.34617   0.00000  Uiso   1.00
N718   N     0.26256   0.84786   0.65383   0.00000  Uiso   1.00
O719   O     0.25326   0.76204   0.53992   0.00000  Uiso   1.00
O720   O     0.24675   0.90462   0.46008   0.00000  Uiso   1.00
O721   O     0.24480   0.75226   0.43612   0.00000  Uiso   1.00
O722   O     0.25520   0.91441   0.56388   0.00000  Uiso   1.00
O723   O     0.18936   0.83821   0.55191   0.00000  Uiso   1.00
O724   O     0.31065   0.82845   0.44809   0.00000  Uiso   1.00
O725   O     0.18090   0.82843   0.44810   0.00000  Uiso   1.00
O726   O     0.31910   0.83824   0.55190   0.00000  Uiso   1.00
C727   C     0.74864   0.73320   0.48430   0.00000  Uiso   1.00
C728   C     0.59040   0.78790   0.47061   0.00000  Uiso   1.00
C729   C     0.88361   0.83397   0.49736   0.00000  Uiso   1.00
C730   C     0.61639   0.83268   0.50263   0.00000  Uiso   1.00
C731   C     0.90350   0.78942   0.46546   0.00000  Uiso   1.00
C732   C     0.59650   0.87724   0.53454   0.00000  Uiso   1.00
C733   C     0.95014   0.78783   0.46979   0.00000  Uiso   1.00
C734   C     0.54986   0.87883   0.53018   0.00000  Uiso   1.00
C735   C     0.97662   0.83414   0.49859   0.00000  Uiso   1.00
C736   C     0.52338   0.83252   0.50137   0.00000  Uiso   1.00
C737   C     0.95613   0.88180   0.52484   0.00000  Uiso   1.00
C738   C     0.75136   0.93346   0.51570   0.00000  Uiso   1.00
C739   C     0.54386   0.78486   0.47512   0.00000  Uiso   1.00
C740   C     0.97016   0.73988   0.44856   0.00000  Uiso   1.00
C741   C     0.52983   0.92677   0.55139   0.00000  Uiso   1.00
C742   C     0.53669   0.68283   0.43661   0.00000  Uiso   1.00
C743   C     0.57690   0.67218   0.46763   0.00000  Uiso   1.00
C744   C     0.59775   0.95806   0.44744   0.00000  Uiso   1.00
C745   C     0.57666   0.91808   0.40018   0.00000  Uiso   1.00
C746   C     0.53459   0.92553   0.37331   0.00000  Uiso   1.00
C747   C     0.51471   0.97398   0.39126   0.00000  Uiso   1.00
C748   C     0.96331   0.98384   0.56334   0.00000  Uiso   1.00
C749   C     0.51713   0.73666   0.45279   0.00000  Uiso   1.00
C750   C     0.98532   0.69271   0.60865   0.00000  Uiso   1.00
C751   C     0.96544   0.74116   0.62661   0.00000  Uiso   1.00
C752   C     0.92335   0.74858   0.59980   0.00000  Uiso   1.00
C753   C     0.90223   0.70860   0.55258   0.00000  Uiso   1.00
C754   C     0.92307   0.99448   0.53237   0.00000  Uiso   1.00
C755   C     0.98287   0.93001   0.54716   0.00000  Uiso   1.00
C756   C     0.74792   0.67709   0.47560   0.00000  Uiso   1.00
C757   C     0.75208   0.98957   0.52440   0.00000  Uiso   1.00
C758   C     0.66454   0.83337   0.50085   0.00000  Uiso   1.00
C759   C     0.83546   0.83329   0.49915   0.00000  Uiso   1.00
C760   C     0.90960   0.87876   0.52938   0.00000  Uiso   1.00
Cu761  Cu    0.75501   0.83913   0.56146   0.00000  Uiso   1.00
Cu762  Cu    0.74500   0.82754   0.43854   0.00000  Uiso   1.00
H763   H     0.89291   0.91093   0.55718   0.00000  Uiso   1.00
H764   H     0.78511   0.87410   0.35050   0.00000  Uiso   1.00
H765   H     0.59276   0.70066   0.50727   0.00000  Uiso   1.00
H766   H     0.62990   0.95186   0.46949   0.00000  Uiso   1.00
H767   H     0.59240   0.88091   0.38547   0.00000  Uiso   1.00
H768   H     0.51757   0.89396   0.33784   0.00000  Uiso   1.00
H769   H     0.98251   0.97813   0.36827   0.00000  Uiso   1.00
H770   H     0.51754   0.68857   0.63160   0.00000  Uiso   1.00
H771   H     0.98248   0.77273   0.66206   0.00000  Uiso   1.00
H772   H     0.90760   0.78575   0.61454   0.00000  Uiso   1.00
H773   H     0.87005   0.71478   0.53058   0.00000  Uiso   1.00
H774   H     0.60710   0.75571   0.44282   0.00000  Uiso   1.00
H775   H     0.90720   0.96600   0.49275   0.00000  Uiso   1.00
H776   H     0.88262   0.75469   0.44157   0.00000  Uiso   1.00
H777   H     0.61738   0.91196   0.55843   0.00000  Uiso   1.00
H778   H     0.94844   0.70459   0.43132   0.00000  Uiso   1.00
H779   H     0.55156   0.96206   0.56864   0.00000  Uiso   1.00
H780   H     0.74395   0.98620   0.42873   0.00000  Uiso   1.00
H781   H     0.75604   0.68046   0.57127   0.00000  Uiso   1.00
H782   H     0.71490   0.79257   0.64950   0.00000  Uiso   1.00
N783   N     0.73745   0.81881   0.34617   0.00000  Uiso   1.00
N784   N     0.76256   0.84786   0.65383   0.00000  Uiso   1.00
O785   O     0.75326   0.76204   0.53992   0.00000  Uiso   1.00
O786   O     0.74675   0.90462   0.46008   0.00000  Uiso   1.00
O787   O     0.74480   0.75226   0.43612   0.00000  Uiso   1.00
O788   O     0.75520   0.91441   0.56388   0.00000  Uiso   1.00
O789   O     0.68936   0.83821   0.55191   0.00000  Uiso   1.00
O790   O     0.81065   0.82845   0.44809   0.00000  Uiso   1.00
O791   O     0.68090   0.82843   0.44810   0.00000  Uiso   1.00
O792   O     0.81910   0.83824   0.55190   0.00000  Uiso   1.00
C793   C     0.24864   0.06654   0.81763   0.00000  Uiso   1.00
C794   C     0.09040   0.12123   0.80394   0.00000  Uiso   1.00
C795   C     0.38361   0.16731   0.83070   0.00000  Uiso   1.00
C796   C     0.11639   0.16601   0.83597   0.00000  Uiso   1.00
C797   C     0.40350   0.12275   0.79879   0.00000  Uiso   1.00
C798   C     0.09650   0.21057   0.86787   0.00000  Uiso   1.00
C799   C     0.45014   0.12116   0.80312   0.00000  Uiso   1.00
C800   C     0.04986   0.21216   0.86352   0.00000  Uiso   1.00
C801   C     0.47662   0.16747   0.83193   0.00000  Uiso   1.00
C802   C     0.02338   0.16586   0.83470   0.00000  Uiso   1.00
C803   C     0.45613   0.21514   0.85818   0.00000  Uiso   1.00
C804   C     0.25136   0.26680   0.84903   0.00000  Uiso   1.00
C805   C     0.04386   0.11819   0.80845   0.00000  Uiso   1.00
C806   C     0.47016   0.07322   0.78189   0.00000  Uiso   1.00
C807   C     0.02983   0.26011   0.88473   0.00000  Uiso   1.00
C808   C     0.03669   0.01616   0.76994   0.00000  Uiso   1.00
C809   C     0.07690   0.00552   0.80096   0.00000  Uiso   1.00
C810   C     0.09775   0.29139   0.78077   0.00000  Uiso   1.00
C811   C     0.07666   0.25141   0.73352   0.00000  Uiso   1.00
C812   C     0.03459   0.25886   0.70664   0.00000  Uiso   1.00
C813   C     0.01471   0.30731   0.72459   0.00000  Uiso   1.00
C814   C     0.46331   0.31717   0.89668   0.00000  Uiso   1.00
C815   C     0.01713   0.06999   0.78613   0.00000  Uiso   1.00
C816   C     0.48532   0.02604   0.94198   0.00000  Uiso   1.00
C817   C     0.46544   0.07449   0.95995   0.00000  Uiso   1.00
C818   C     0.42335   0.08192   0.93314   0.00000  Uiso   1.00
C819   C     0.40223   0.04193   0.88591   0.00000  Uiso   1.00
C820   C     0.42307   0.32781   0.86571   0.00000  Uiso   1.00
C821   C     0.48287   0.26334   0.88049   0.00000  Uiso   1.00
C822   C     0.24792   0.01043   0.80893   0.00000  Uiso   1.00
C823   C     0.25208   0.32291   0.85773   0.00000  Uiso   1.00
C824   C     0.16454   0.16670   0.83418   0.00000  Uiso   1.00
C825   C     0.33546   0.16662   0.83248   0.00000  Uiso   1.00
C826   C     0.40960   0.21209   0.86271   0.00000  Uiso   1.00
Cu827  Cu    0.25501   0.17246   0.89479   0.00000  Uiso   1.00
Cu828  Cu    0.24500   0.16087   0.77187   0.00000  Uiso   1.00
H829   H     0.39291   0.24427   0.89052   0.00000  Uiso   1.00
H830   H     0.28511   0.20743   0.68383   0.00000  Uiso   1.00
H831   H     0.09276   0.03399   0.84060   0.00000  Uiso   1.00
H832   H     0.12990   0.28520   0.80282   0.00000  Uiso   1.00
H833   H     0.09240   0.21424   0.71880   0.00000  Uiso   1.00
H834   H     0.01757   0.22730   0.67117   0.00000  Uiso   1.00
H835   H     0.48251   0.31146   0.70160   0.00000  Uiso   1.00
H836   H     0.01754   0.02190   0.96494   0.00000  Uiso   1.00
H837   H     0.48248   0.10606   0.99539   0.00000  Uiso   1.00
H838   H     0.40760   0.11909   0.94787   0.00000  Uiso   1.00
H839   H     0.37005   0.04811   0.86391   0.00000  Uiso   1.00
H840   H     0.10710   0.08905   0.77615   0.00000  Uiso   1.00
H841   H     0.40720   0.29933   0.82609   0.00000  Uiso   1.00
H842   H     0.38262   0.08803   0.77490   0.00000  Uiso   1.00
H843   H     0.11738   0.24529   0.89176   0.00000  Uiso   1.00
H844   H     0.44844   0.03793   0.76465   0.00000  Uiso   1.00
H845   H     0.05156   0.29539   0.90197   0.00000  Uiso   1.00
H846   H     0.24395   0.31954   0.76207   0.00000  Uiso   1.00
H847   H     0.25604   0.01380   0.90460   0.00000  Uiso   1.00
H848   H     0.21490   0.12590   0.98283   0.00000  Uiso   1.00
N849   N     0.23745   0.15214   0.67951   0.00000  Uiso   1.00
N850   N     0.26256   0.18119   0.98716   0.00000  Uiso   1.00
O851   O     0.25326   0.09538   0.87326   0.00000  Uiso   1.00
O852   O     0.24675   0.23796   0.79341   0.00000  Uiso   1.00
O853   O     0.24480   0.08559   0.76945   0.00000  Uiso   1.00
O854   O     0.25520   0.24774   0.89721   0.00000  Uiso   1.00
O855   O     0.18936   0.17155   0.88524   0.00000  Uiso   1.00
O856   O     0.31065   0.16179   0.78143   0.00000  Uiso   1.00
O857   O     0.18090   0.16176   0.78143   0.00000  Uiso   1.00
O858   O     0.31910   0.17157   0.88523   0.00000  Uiso   1.00
C859   C     0.74864   0.06654   0.81763   0.00000  Uiso   1.00
C860   C     0.59040   0.12123   0.80394   0.00000  Uiso   1.00
C861   C     0.88361   0.16731   0.83070   0.00000  Uiso   1.00
C862   C     0.61639   0.16601   0.83597   0.00000  Uiso   1.00
C863   C     0.90350   0.12275   0.79879   0.00000  Uiso   1.00
C864   C     0.59650   0.21057   0.86787   0.00000  Uiso   1.00
C865   C     0.95014   0.12116   0.80312   0.00000  Uiso   1.00
C866   C     0.54986   0.21216   0.86352   0.00000  Uiso   1.00
C867   C     0.97662   0.16747   0.83193   0.00000  Uiso   1.00
C868   C     0.52338   0.16586   0.83470   0.00000  Uiso   1.00
C869   C     0.95613   0.21514   0.85818   0.00000  Uiso   1.00
C870   C     0.75136   0.26680   0.84903   0.00000  Uiso   1.00
C871   C     0.54386   0.11819   0.80845   0.00000  Uiso   1.00
C872   C     0.97016   0.07322   0.78189   0.00000  Uiso   1.00
C873   C     0.52983   0.26011   0.88473   0.00000  Uiso   1.00
C874   C     0.53669   0.01616   0.76994   0.00000  Uiso   1.00
C875   C     0.57690   0.00552   0.80096   0.00000  Uiso   1.00
C876   C     0.59775   0.29139   0.78077   0.00000  Uiso   1.00
C877   C     0.57666   0.25141   0.73352   0.00000  Uiso   1.00
C878   C     0.53459   0.25886   0.70664   0.00000  Uiso   1.00
C879   C     0.51471   0.30731   0.72459   0.00000  Uiso   1.00
C880   C     0.96331   0.31717   0.89668   0.00000  Uiso   1.00
C881   C     0.51713   0.06999   0.78613   0.00000  Uiso   1.00
C882   C     0.98532   0.02604   0.94198   0.00000  Uiso   1.00
C883   C     0.96544   0.07449   0.95995   0.00000  Uiso   1.00
C884   C     0.92335   0.08192   0.93314   0.00000  Uiso   1.00
C885   C     0.90223   0.04193   0.88591   0.00000  Uiso   1.00
C886   C     0.92307   0.32781   0.86571   0.00000  Uiso   1.00
C887   C     0.98287   0.26334   0.88049   0.00000  Uiso   1.00
C888   C     0.74792   0.01043   0.80893   0.00000  Uiso   1.00
C889   C     0.75208   0.32291   0.85773   0.00000  Uiso   1.00
C890   C     0.66454   0.16670   0.83418   0.00000  Uiso   1.00
C891   C     0.83546   0.16662   0.83248   0.00000  Uiso   1.00
C892   C     0.90960   0.21209   0.86271   0.00000  Uiso   1.00
Cu893  Cu    0.75501   0.17246   0.89479   0.00000  Uiso   1.00
Cu894  Cu    0.74500   0.16087   0.77187   0.00000  Uiso   1.00
H895   H     0.89291   0.24427   0.89052   0.00000  Uiso   1.00
H896   H     0.78511   0.20743   0.68383   0.00000  Uiso   1.00
H897   H     0.59276   0.03399   0.84060   0.00000  Uiso   1.00
H898   H     0.62990   0.28520   0.80282   0.00000  Uiso   1.00
H899   H     0.59240   0.21424   0.71880   0.00000  Uiso   1.00
H900   H     0.51757   0.22730   0.67117   0.00000  Uiso   1.00
H901   H     0.98251   0.31146   0.70160   0.00000  Uiso   1.00
H902   H     0.51754   0.02190   0.96494   0.00000  Uiso   1.00
H903   H     0.98248   0.10606   0.99539   0.00000  Uiso   1.00
H904   H     0.90760   0.11909   0.94787   0.00000  Uiso   1.00
H905   H     0.87005   0.04811   0.86391   0.00000  Uiso   1.00
H906   H     0.60710   0.08905   0.77615   0.00000  Uiso   1.00
H907   H     0.90720   0.29933   0.82609   0.00000  Uiso   1.00
H908   H     0.88262   0.08803   0.77490   0.00000  Uiso   1.00
H909   H     0.61738   0.24529   0.89176   0.00000  Uiso   1.00
H910   H     0.94844   0.03793   0.76465   0.00000  Uiso   1.00
H911   H     0.55156   0.29539   0.90197   0.00000  Uiso   1.00
H912   H     0.74395   0.31954   0.76207   0.00000  Uiso   1.00
H913   H     0.75604   0.01380   0.90460   0.00000  Uiso   1.00
H914   H     0.71490   0.12590   0.98283   0.00000  Uiso   1.00
N915   N     0.73745   0.15214   0.67951   0.00000  Uiso   1.00
N916   N     0.76256   0.18119   0.98716   0.00000  Uiso   1.00
O917   O     0.75326   0.09538   0.87326   0.00000  Uiso   1.00
O918   O     0.74675   0.23796   0.79341   0.00000  Uiso   1.00
O919   O     0.74480   0.08559   0.76945   0.00000  Uiso   1.00
O920   O     0.75520   0.24774   0.89721   0.00000  Uiso   1.00
O921   O     0.68936   0.17155   0.88524   0.00000  Uiso   1.00
O922   O     0.81065   0.16179   0.78143   0.00000  Uiso   1.00
O923   O     0.68090   0.16176   0.78143   0.00000  Uiso   1.00
O924   O     0.81910   0.17157   0.88523   0.00000  Uiso   1.00
C925   C     0.24864   0.39987   0.81763   0.00000  Uiso   1.00
C926   C     0.09040   0.45456   0.80394   0.00000  Uiso   1.00
C927   C     0.38361   0.50064   0.83070   0.00000  Uiso   1.00
C928   C     0.11639   0.49934   0.83597   0.00000  Uiso   1.00
C929   C     0.40350   0.45608   0.79879   0.00000  Uiso   1.00
C930   C     0.09650   0.54390   0.86787   0.00000  Uiso   1.00
C931   C     0.45014   0.45449   0.80312   0.00000  Uiso   1.00
C932   C     0.04986   0.54550   0.86352   0.00000  Uiso   1.00
C933   C     0.47662   0.50080   0.83193   0.00000  Uiso   1.00
C934   C     0.02338   0.49919   0.83470   0.00000  Uiso   1.00
C935   C     0.45613   0.54847   0.85818   0.00000  Uiso   1.00
C936   C     0.25136   0.60013   0.84903   0.00000  Uiso   1.00
C937   C     0.04386   0.45152   0.80845   0.00000  Uiso   1.00
C938   C     0.47016   0.40655   0.78189   0.00000  Uiso   1.00
C939   C     0.02983   0.59344   0.88473   0.00000  Uiso   1.00
C940   C     0.03669   0.34950   0.76994   0.00000  Uiso   1.00
C941   C     0.07690   0.33885   0.80096   0.00000  Uiso   1.00
C942   C     0.09775   0.62472   0.78077   0.00000  Uiso   1.00
C943   C     0.07666   0.58475   0.73352   0.00000  Uiso   1.00
C944   C     0.03459   0.59219   0.70664   0.00000  Uiso   1.00
C945   C     0.01471   0.64065   0.72459   0.00000  Uiso   1.00
C946   C     0.46331   0.65050   0.89668   0.00000  Uiso   1.00
C947   C     0.01713   0.40332   0.78613   0.00000  Uiso   1.00
C948   C     0.48532   0.35937   0.94198   0.00000  Uiso   1.00
C949   C     0.46544   0.40782   0.95995   0.00000  Uiso   1.00
C950   C     0.42335   0.41525   0.93314   0.00000  Uiso   1.00
C951   C     0.40223   0.37527   0.88591   0.00000  Uiso   1.00
C952   C     0.42307   0.66114   0.86571   0.00000  Uiso   1.00
C953   C     0.48287   0.59667   0.88049   0.00000  Uiso   1.00
C954   C     0.24792   0.34376   0.80893   0.00000  Uiso   1.00
C955   C     0.25208   0.65624   0.85773   0.00000  Uiso   1.00
C956   C     0.16454   0.50004   0.83418   0.00000  Uiso   1.00
C957   C     0.33546   0.49996   0.83248   0.00000  Uiso   1.00
C958   C     0.40960   0.54542   0.86271   0.00000  Uiso   1.00
Cu959  Cu    0.25501   0.50579   0.89479   0.00000  Uiso   1.00
Cu960  Cu    0.24500   0.49421   0.77187   0.00000  Uiso   1.00
H961   H     0.39291   0.57760   0.89052   0.00000  Uiso   1.00
H962   H     0.28511   0.54076   0.68383   0.00000  Uiso   1.00
H963   H     0.09276   0.36732   0.84060   0.00000  Uiso   1.00
H964   H     0.12990   0.61853   0.80282   0.00000  Uiso   1.00
H965   H     0.09240   0.54757   0.71880   0.00000  Uiso   1.00
H966   H     0.01757   0.56063   0.67117   0.00000  Uiso   1.00
H967   H     0.48251   0.64480   0.70160   0.00000  Uiso   1.00
H968   H     0.01754   0.35524   0.96494   0.00000  Uiso   1.00
H969   H     0.48248   0.43940   0.99539   0.00000  Uiso   1.00
H970   H     0.40760   0.45242   0.94787   0.00000  Uiso   1.00
H971   H     0.37005   0.38145   0.86391   0.00000  Uiso   1.00
H972   H     0.10710   0.42238   0.77615   0.00000  Uiso   1.00
H973   H     0.40720   0.63267   0.82609   0.00000  Uiso   1.00
H974   H     0.38262   0.42136   0.77490   0.00000  Uiso   1.00
H975   H     0.11738   0.57862   0.89176   0.00000  Uiso   1.00
H976   H     0.44844   0.37126   0.76465   0.00000  Uiso   1.00
H977   H     0.05156   0.62873   0.90197   0.00000  Uiso   1.00
H978   H     0.24395   0.65287   0.76207   0.00000  Uiso   1.00
H979   H     0.25604   0.34713   0.90460   0.00000  Uiso   1.00
H980   H     0.21490   0.45924   0.98283   0.00000  Uiso   1.00
N981   N     0.23745   0.48547   0.67951   0.00000  Uiso   1.00
N982   N     0.26256   0.51453   0.98716   0.00000  Uiso   1.00
O983   O     0.25326   0.42871   0.87326   0.00000  Uiso   1.00
O984   O     0.24675   0.57129   0.79341   0.00000  Uiso   1.00
O985   O     0.24480   0.41892   0.76945   0.00000  Uiso   1.00
O986   O     0.25520   0.58108   0.89721   0.00000  Uiso   1.00
O987   O     0.18936   0.50488   0.88524   0.00000  Uiso   1.00
O988   O     0.31065   0.49512   0.78143   0.00000  Uiso   1.00
O989   O     0.18090   0.49510   0.78143   0.00000  Uiso   1.00
O990   O     0.31910   0.50490   0.88523   0.00000  Uiso   1.00
C991   C     0.74864   0.39987   0.81763   0.00000  Uiso   1.00
C992   C     0.59040   0.45456   0.80394   0.00000  Uiso   1.00
C993   C     0.88361   0.50064   0.83070   0.00000  Uiso   1.00
C994   C     0.61639   0.49934   0.83597   0.00000  Uiso   1.00
C995   C     0.90350   0.45608   0.79879   0.00000  Uiso   1.00
C996   C     0.59650   0.54390   0.86787   0.00000  Uiso   1.00
C997   C     0.95014   0.45449   0.80312   0.00000  Uiso   1.00
C998   C     0.54986   0.54550   0.86352   0.00000  Uiso   1.00
C999   C     0.97662   0.50080   0.83193   0.00000  Uiso   1.00
C1000  C     0.52338   0.49919   0.83470   0.00000  Uiso   1.00
C1001  C     0.95613   0.54847   0.85818   0.00000  Uiso   1.00
C1002  C     0.75136   0.60013   0.84903   0.00000  Uiso   1.00
C1003  C     0.54386   0.45152   0.80845   0.00000  Uiso   1.00
C1004  C     0.97016   0.40655   0.78189   0.00000  Uiso   1.00
C1005  C     0.52983   0.59344   0.88473   0.00000  Uiso   1.00
C1006  C     0.53669   0.34950   0.76994   0.00000  Uiso   1.00
C1007  C     0.57690   0.33885   0.80096   0.00000  Uiso   1.00
C1008  C     0.59775   0.62472   0.78077   0.00000  Uiso   1.00
C1009  C     0.57666   0.58475   0.73352   0.00000  Uiso   1.00
C1010  C     0.53459   0.59219   0.70664   0.00000  Uiso   1.00
C1011  C     0.51471   0.64065   0.72459   0.00000  Uiso   1.00
C1012  C     0.96331   0.65050   0.89668   0.00000  Uiso   1.00
C1013  C     0.51713   0.40332   0.78613   0.00000  Uiso   1.00
C1014  C     0.98532   0.35937   0.94198   0.00000  Uiso   1.00
C1015  C     0.96544   0.40782   0.95995   0.00000  Uiso   1.00
C1016  C     0.92335   0.41525   0.93314   0.00000  Uiso   1.00
C1017  C     0.90223   0.37527   0.88591   0.00000  Uiso   1.00
C1018  C     0.92307   0.66114   0.86571   0.00000  Uiso   1.00
C1019  C     0.98287   0.59667   0.88049   0.00000  Uiso   1.00
C1020  C     0.74792   0.34376   0.80893   0.00000  Uiso   1.00
C1021  C     0.75208   0.65624   0.85773   0.00000  Uiso   1.00
C1022  C     0.66454   0.50004   0.83418   0.00000  Uiso   1.00
C1023  C     0.83546   0.49996   0.83248   0.00000  Uiso   1.00
C1024  C     0.90960   0.54542   0.86271   0.00000  Uiso   1.00
Cu1025 Cu    0.75501   0.50579   0.89479   0.00000  Uiso   1.00
Cu1026 Cu    0.74500   0.49421   0.77187   0.00000  Uiso   1.00
H1027  H     0.89291   0.57760   0.89052   0.00000  Uiso   1.00
H1028  H     0.78511   0.54076   0.68383   0.00000  Uiso   1.00
H1029  H     0.59276   0.36732   0.84060   0.00000  Uiso   1.00
H1030  H     0.62990   0.61853   0.80282   0.00000  Uiso   1.00
H1031  H     0.59240   0.54757   0.71880   0.00000  Uiso   1.00
H1032  H     0.51757   0.56063   0.67117   0.00000  Uiso   1.00
H1033  H     0.98251   0.64480   0.70160   0.00000  Uiso   1.00
H1034  H     0.51754   0.35524   0.96494   0.00000  Uiso   1.00
H1035  H     0.98248   0.43940   0.99539   0.00000  Uiso   1.00
H1036  H     0.90760   0.45242   0.94787   0.00000  Uiso   1.00
H1037  H     0.87005   0.38145   0.86391   0.00000  Uiso   1.00
H1038  H     0.60710   0.42238   0.77615   0.00000  Uiso   1.00
H1039  H     0.90720   0.63267   0.82609   0.00000  Uiso   1.00
H1040  H     0.88262   0.42136   0.77490   0.00000  Uiso   1.00
H1041  H     0.61738   0.57862   0.89176   0.00000  Uiso   1.00
H1042  H     0.94844   0.37126   0.76465   0.00000  Uiso   1.00
H1043  H     0.55156   0.62873   0.90197   0.00000  Uiso   1.00
H1044  H     0.74395   0.65287   0.76207   0.00000  Uiso   1.00
H1045  H     0.75604   0.34713   0.90460   0.00000  Uiso   1.00
H1046  H     0.71490   0.45924   0.98283   0.00000  Uiso   1.00
N1047  N     0.73745   0.48547   0.67951   0.00000  Uiso   1.00
N1048  N     0.76256   0.51453   0.98716   0.00000  Uiso   1.00
O1049  O     0.75326   0.42871   0.87326   0.00000  Uiso   1.00
O1050  O     0.74675   0.57129   0.79341   0.00000  Uiso   1.00
O1051  O     0.74480   0.41892   0.76945   0.00000  Uiso   1.00
O1052  O     0.75520   0.58108   0.89721   0.00000  Uiso   1.00
O1053  O     0.68936   0.50488   0.88524   0.00000  Uiso   1.00
O1054  O     0.81065   0.49512   0.78143   0.00000  Uiso   1.00
O1055  O     0.68090   0.49510   0.78143   0.00000  Uiso   1.00
O1056  O     0.81910   0.50490   0.88523   0.00000  Uiso   1.00
C1057  C     0.24864   0.73320   0.81763   0.00000  Uiso   1.00
C1058  C     0.09040   0.78790   0.80394   0.00000  Uiso   1.00
C1059  C     0.38361   0.83397   0.83070   0.00000  Uiso   1.00
C1060  C     0.11639   0.83268   0.83597   0.00000  Uiso   1.00
C1061  C     0.40350   0.78942   0.79879   0.00000  Uiso   1.00
C1062  C     0.09650   0.87724   0.86787   0.00000  Uiso   1.00
C1063  C     0.45014   0.78783   0.80312   0.00000  Uiso   1.00
C1064  C     0.04986   0.87883   0.86352   0.00000  Uiso   1.00
C1065  C     0.47662   0.83414   0.83193   0.00000  Uiso   1.00
C1066  C     0.02338   0.83252   0.83470   0.00000  Uiso   1.00
C1067  C     0.45613   0.88180   0.85818   0.00000  Uiso   1.00
C1068  C     0.25136   0.93346   0.84903   0.00000  Uiso   1.00
C1069  C     0.04386   0.78486   0.80845   0.00000  Uiso   1.00
C1070  C     0.47016   0.73988   0.78189   0.00000  Uiso   1.00
C1071  C     0.02983   0.92677   0.88473   0.00000  Uiso   1.00
C1072  C     0.03669   0.68283   0.76994   0.00000  Uiso   1.00
C1073  C     0.07690   0.67218   0.80096   0.00000  Uiso   1.00
C1074  C     0.09775   0.95806   0.78077   0.00000  Uiso   1.00
C1075  C     0.07666   0.91808   0.73352   0.00000  Uiso   1.00
C1076  C     0.03459   0.92553   0.70664   0.00000  Uiso   1.00
C1077  C     0.01471   0.97398   0.72459   0.00000  Uiso   1.00
C1078  C     0.46331   0.98384   0.89668   0.00000  Uiso   1.00
C1079  C     0.01713   0.73666   0.78613   0.00000  Uiso   1.00
C1080  C     0.48532   0.69271   0.94198   0.00000  Uiso   1.00
C1081  C     0.46544   0.74116   0.95995   0.00000  Uiso   1.00
C1082  C     0.42335   0.74858   0.93314   0.00000  Uiso   1.00
C1083  C     0.40223   0.70860   0.88591   0.00000  Uiso   1.00
C1084  C     0.42307   0.99448   0.86571   0.00000  Uiso   1.00
C1085  C     0.48287   0.93001   0.88049   0.00000  Uiso   1.00
C1086  C     0.24792   0.67709   0.80893   0.00000  Uiso   1.00
C1087  C     0.25208   0.98957   0.85773   0.00000  Uiso   1.00
C1088  C     0.16454   0.83337   0.83418   0.00000  Uiso   1.00
C1089  C     0.33546   0.83329   0.83248   0.00000  Uiso   1.00
C1090  C     0.40960   0.87876   0.86271   0.00000  Uiso   1.00
Cu1091 Cu    0.25501   0.83913   0.89479   0.00000  Uiso   1.00
Cu1092 Cu    0.24500   0.82754   0.77187   0.00000  Uiso   1.00
H1093  H     0.39291   0.91093   0.89052   0.00000  Uiso   1.00
H1094  H     0.28511   0.87410   0.68383   0.00000  Uiso   1.00
H1095  H     0.09276   0.70066   0.84060   0.00000  Uiso   1.00
H1096  H     0.12990   0.95186   0.80282   0.00000  Uiso   1.00
H1097  H     0.09240   0.88091   0.71880   0.00000  Uiso   1.00
H1098  H     0.01757   0.89396   0.67117   0.00000  Uiso   1.00
H1099  H     0.48251   0.97813   0.70160   0.00000  Uiso   1.00
H1100  H     0.01754   0.68857   0.96494   0.00000  Uiso   1.00
H1101  H     0.48248   0.77273   0.99539   0.00000  Uiso   1.00
H1102  H     0.40760   0.78575   0.94787   0.00000  Uiso   1.00
H1103  H     0.37005   0.71478   0.86391   0.00000  Uiso   1.00
H1104  H     0.10710   0.75571   0.77615   0.00000  Uiso   1.00
H1105  H     0.40720   0.96600   0.82609   0.00000  Uiso   1.00
H1106  H     0.38262   0.75469   0.77490   0.00000  Uiso   1.00
H1107  H     0.11738   0.91196   0.89176   0.00000  Uiso   1.00
H1108  H     0.44844   0.70459   0.76465   0.00000  Uiso   1.00
H1109  H     0.05156   0.96206   0.90197   0.00000  Uiso   1.00
H1110  H     0.24395   0.98620   0.76207   0.00000  Uiso   1.00
H1111  H     0.25604   0.68046   0.90460   0.00000  Uiso   1.00
H1112  H     0.21490   0.79257   0.98283   0.00000  Uiso   1.00
N1113  N     0.23745   0.81881   0.67951   0.00000  Uiso   1.00
N1114  N     0.26256   0.84786   0.98716   0.00000  Uiso   1.00
O1115  O     0.25326   0.76204   0.87326   0.00000  Uiso   1.00
O1116  O     0.24675   0.90462   0.79341   0.00000  Uiso   1.00
O1117  O     0.24480   0.75226   0.76945   0.00000  Uiso   1.00
O1118  O     0.25520   0.91441   0.89721   0.00000  Uiso   1.00
O1119  O     0.18936   0.83821   0.88524   0.00000  Uiso   1.00
O1120  O     0.31065   0.82845   0.78143   0.00000  Uiso   1.00
O1121  O     0.18090   0.82843   0.78143   0.00000  Uiso   1.00
O1122  O     0.31910   0.83824   0.88523   0.00000  Uiso   1.00
C1123  C     0.74864   0.73320   0.81763   0.00000  Uiso   1.00
C1124  C     0.59040   0.78790   0.80394   0.00000  Uiso   1.00
C1125  C     0.88361   0.83397   0.83070   0.00000  Uiso   1.00
C1126  C     0.61639   0.83268   0.83597   0.00000  Uiso   1.00
C1127  C     0.90350   0.78942   0.79879   0.00000  Uiso   1.00
C1128  C     0.59650   0.87724   0.86787   0.00000  Uiso   1.00
C1129  C     0.95014   0.78783   0.80312   0.00000  Uiso   1.00
C1130  C     0.54986   0.87883   0.86352   0.00000  Uiso   1.00
C1131  C     0.97662   0.83414   0.83193   0.00000  Uiso   1.00
C1132  C     0.52338   0.83252   0.83470   0.00000  Uiso   1.00
C1133  C     0.95613   0.88180   0.85818   0.00000  Uiso   1.00
C1134  C     0.75136   0.93346   0.84903   0.00000  Uiso   1.00
C1135  C     0.54386   0.78486   0.80845   0.00000  Uiso   1.00
C1136  C     0.97016   0.73988   0.78189   0.00000  Uiso   1.00
C1137  C     0.52983   0.92677   0.88473   0.00000  Uiso   1.00
C1138  C     0.53669   0.68283   0.76994   0.00000  Uiso   1.00
C1139  C     0.57690   0.67218   0.80096   0.00000  Uiso   1.00
C1140  C     0.59775   0.95806   0.78077   0.00000  Uiso   1.00
C1141  C     0.57666   0.91808   0.73352   0.00000  Uiso   1.00
C1142  C     0.53459   0.92553   0.70664   0.00000  Uiso   1.00
C1143  C     0.51471   0.97398   0.72459   0.00000  Uiso   1.00
C1144  C     0.96331   0.98384   0.89668   0.00000  Uiso   1.00
C1145  C     0.51713   0.73666   0.78613   0.00000  Uiso   1.00
C1146  C     0.98532   0.69271   0.94198   0.00000  Uiso   1.00
C1147  C     0.96544   0.74116   0.95995   0.00000  Uiso   1.00
C1148  C     0.92335   0.74858   0.93314   0.00000  Uiso   1.00
C1149  C     0.90223   0.70860   0.88591   0.00000  Uiso   1.00
C1150  C     0.92307   0.99448   0.86571   0.00000  Uiso   1.00
C1151  C     0.98287   0.93001   0.88049   0.00000  Uiso   1.00
C1152  C     0.74792   0.67709   0.80893   0.00000  Uiso   1.00
C1153  C     0.75208   0.98957   0.85773   0.00000  Uiso   1.00
C1154  C     0.66454   0.83337   0.83418   0.00000  Uiso   1.00
C1155  C     0.83546   0.83329   0.83248   0.00000  Uiso   1.00
C1156  C     0.90960   0.87876   0.86271   0.00000  Uiso   1.00
Cu1157 Cu    0.75501   0.83913   0.89479   0.00000  Uiso   1.00
Cu1158 Cu    0.74500   0.82754   0.77187   0.00000  Uiso   1.00
H1159  H     0.89291   0.91093   0.89052   0.00000  Uiso   1.00
H1160  H     0.78511   0.87410   0.68383   0.00000  Uiso   1.00
H1161  H     0.59276   0.70066   0.84060   0.00000  Uiso   1.00
H1162  H     0.62990   0.95186   0.80282   0.00000  Uiso   1.00
H1163  H     0.59240   0.88091   0.71880   0.00000  Uiso   1.00
H1164  H     0.51757   0.89396   0.67117   0.00000  Uiso   1.00
H1165  H     0.98251   0.97813   0.70160   0.00000  Uiso   1.00
H1166  H     0.51754   0.68857   0.96494   0.00000  Uiso   1.00
H1167  H     0.98248   0.77273   0.99539   0.00000  Uiso   1.00
H1168  H     0.90760   0.78575   0.94787   0.00000  Uiso   1.00
H1169  H     0.87005   0.71478   0.86391   0.00000  Uiso   1.00
H1170  H     0.60710   0.75571   0.77615   0.00000  Uiso   1.00
H1171  H     0.90720   0.96600   0.82609   0.00000  Uiso   1.00
H1172  H     0.88262   0.75469   0.77490   0.00000  Uiso   1.00
H1173  H     0.61738   0.91196   0.89176   0.00000  Uiso   1.00
H1174  H     0.94844   0.70459   0.76465   0.00000  Uiso   1.00
H1175  H     0.55156   0.96206   0.90197   0.00000  Uiso   1.00
H1176  H     0.74395   0.98620   0.76207   0.00000  Uiso   1.00
H1177  H     0.75604   0.68046   0.90460   0.00000  Uiso   1.00
H1178  H     0.71490   0.79257   0.98283   0.00000  Uiso   1.00
N1179  N     0.73745   0.81881   0.67951   0.00000  Uiso   1.00
N1180  N     0.76256   0.84786   0.98716   0.00000  Uiso   1.00
O1181  O     0.75326   0.76204   0.87326   0.00000  Uiso   1.00
O1182  O     0.74675   0.90462   0.79341   0.00000  Uiso   1.00
O1183  O     0.74480   0.75226   0.76945   0.00000  Uiso   1.00
O1184  O     0.75520   0.91441   0.89721   0.00000  Uiso   1.00
O1185  O     0.68936   0.83821   0.88524   0.00000  Uiso   1.00
O1186  O     0.81065   0.82845   0.78143   0.00000  Uiso   1.00
O1187  O     0.68090   0.82843   0.78143   0.00000  Uiso   1.00
O1188  O     0.81910   0.83824   0.88523   0.00000  Uiso   1.00
loop_
_geom_bond_atom_site_label_1
_geom_bond_atom_site_label_2
_geom_bond_distance
_geom_bond_site_symmetry_2
_ccdc_geom_bond_type
C1     C30     1.426   .     S
C1     O59     1.292   .     A
C1     O61     1.289   .     A
C2     C4      1.393   .     A
C2     H48     1.081   .     S
C2     C13     1.401   .     A
C3     C5      1.390   .     A
C3     C33     1.441   .     S
C3     C34     1.393   .     A
C4     C32     1.441   .     S
C4     C6      1.390   .     A
C5     C7      1.391   .     A
C5     H50     1.085   .     S
C6     H51     1.085   .     S
C6     C8      1.391   .     A
C7     C9      1.410   .     A
C7     C14     1.399   .     A
C8     C10     1.410   .     A
C8     C15     1.399   .     A
C9     C11     1.423   .     A
C9     C76     1.395   .     S
C10    C13     1.423   .     A
C10    C75     1.395   1_455 S
C11    C34     1.401   .     A
C11    C29     1.428   .     A
C12    O62     1.289   .     A
C12    C31     1.426   .     S
C12    O60     1.292   .     A
C13    C23     1.428   .     A
C14    H52     1.081   .     S
C14    C89     1.405   .     S
C15    H53     1.081   .     S
C15    C95     1.405   1_455 S
C16    C23     1.512   .     S
C16    C17     1.412   .     A
C16    C285    1.414   1_545 S
C17    H39     1.081   .     S
C17    C282    1.397   1_545 S
C18    C19     1.394   .     A
C18    H40     1.082   .     S
C18    C149    1.397   .     S
C19    C20     1.393   .     A
C19    H41     1.082   .     S
C20    H42     1.083   .     S
C20    C21     1.398   .     A
C21    C148    1.414   .     S
C21    H109    1.078   1_455 S
C22    C29     1.512   .     S
C22    C28     1.412   .     A
C22    C156    1.414   .     S
C23    C80     1.405   1_455 S
C24    C25     1.398   .     A
C24    C286    1.414   1_545 S
C24    H110    1.078   .     S
C25    H45     1.083   .     S
C25    C26     1.393   .     A
C26    C27     1.394   .     A
C26    H46     1.082   .     S
C27    H47     1.082   .     S
C27    C292    1.397   1_545 S
C28    H49     1.081   .     S
C28    C159    1.397   .     S
C29    C81     1.405   .     S
C30    C295    1.330   1_545 S
C30    H318    1.088   1_545 S
C31    C162    1.330   .     S
C31    H187    1.088   .     S
C32    O65     1.292   .     A
C32    O63     1.295   .     A
C33    O64     1.295   .     A
C33    O66     1.292   .     A
C34    H37     1.081   .     S
Cu35   O66     1.941   .     S
Cu35   O63     1.955   .     S
Cu35   O62     1.947   .     S
Cu35   N58     2.025   .     S
Cu35   O59     1.948   .     S
Cu35   Cu36    2.694   .     S
Cu36   O61     1.947   .     S
Cu36   N57     2.025   .     S
Cu36   O65     1.941   .     S
Cu36   O64     1.955   .     S
Cu36   O60     1.948   .     S
H38    N850    1.029   1_554 S
H43    C87     1.078   .     S
H44    C90     1.078   1_455 S
H54    C162    1.088   .     S
H55    C295    1.088   1_545 S
H56    N453    1.029   .     S
N57    H848    1.029   1_554 S
N57    N850    1.300   1_554 S
N58    N453    1.300   .     S
N58    H434    1.029   .     S
C67    C96     1.426   .     S
C67    O125    1.292   .     A
C67    O127    1.289   .     A
C68    C70     1.393   .     A
C68    H114    1.081   .     S
C68    C79     1.401   .     A
C69    C71     1.390   .     A
C69    C99     1.441   .     S
C69    C100    1.393   .     A
C70    C98     1.441   .     S
C70    C72     1.390   .     A
C71    C73     1.391   .     A
C71    H116    1.085   .     S
C72    H117    1.085   .     S
C72    C74     1.391   .     A
C73    C75     1.410   .     A
C73    C80     1.399   .     A
C74    C76     1.410   .     A
C74    C81     1.399   .     A
C75    C77     1.423   .     A
C75    C10     1.395   1_655 S
C76    C79     1.423   .     A
C77    C100    1.401   .     A
C77    C95     1.428   .     A
C78    O128    1.289   .     A
C78    C97     1.426   .     S
C78    O126    1.292   .     A
C79    C89     1.428   .     A
C80    H118    1.081   .     S
C80    C23     1.405   1_655 S
C81    H119    1.081   .     S
C82    C89     1.512   .     S
C82    C83     1.412   .     A
C82    C351    1.414   1_545 S
C83    H105    1.081   .     S
C83    C348    1.397   1_545 S
C84    C85     1.394   .     A
C84    H106    1.082   .     S
C84    C215    1.397   .     S
C85    C86     1.393   .     A
C85    H107    1.082   .     S
C86    H108    1.083   .     S
C86    C87     1.398   .     A
C87    C214    1.414   .     S
C88    C95     1.512   .     S
C88    C94     1.412   .     A
C88    C222    1.414   .     S
C90    C91     1.398   .     A
C90    C352    1.414   1_545 S
C90    H44     1.078   1_655 S
C91    H111    1.083   .     S
C91    C92     1.393   .     A
C92    C93     1.394   .     A
C92    H112    1.082   .     S
C93    H113    1.082   .     S
C93    C358    1.397   1_545 S
C94    H115    1.081   .     S
C94    C225    1.397   .     S
C95    C15     1.405   1_655 S
C96    C361    1.330   1_545 S
C96    H384    1.088   1_545 S
C97    C228    1.330   .     S
C97    H253    1.088   .     S
C98    O131    1.292   .     A
C98    O129    1.295   .     A
C99    O130    1.295   .     A
C99    O132    1.292   .     A
C100   H103    1.081   .     S
Cu101  O132    1.941   .     S
Cu101  O129    1.955   .     S
Cu101  O128    1.947   .     S
Cu101  N124    2.025   .     S
Cu101  O125    1.948   .     S
Cu101  Cu102   2.694   .     S
Cu102  O127    1.947   .     S
Cu102  N123    2.025   .     S
Cu102  O131    1.941   .     S
Cu102  O130    1.955   .     S
Cu102  O126    1.948   .     S
H104   N916    1.029   1_554 S
H109   C21     1.078   1_655 S
H120   C228    1.088   .     S
H121   C361    1.088   1_545 S
H122   N519    1.029   .     S
N123   H914    1.029   1_554 S
N123   N916    1.300   1_554 S
N124   N519    1.300   .     S
N124   H500    1.029   .     S
C133   C162    1.426   .     S
C133   O191    1.292   .     A
C133   O193    1.289   .     A
C134   C136    1.393   .     A
C134   H180    1.081   .     S
C134   C145    1.401   .     A
C135   C137    1.390   .     A
C135   C165    1.441   .     S
C135   C166    1.393   .     A
C136   C164    1.441   .     S
C136   C138    1.390   .     A
C137   C139    1.391   .     A
C137   H182    1.085   .     S
C138   H183    1.085   .     S
C138   C140    1.391   .     A
C139   C141    1.410   .     A
C139   C146    1.399   .     A
C140   C142    1.410   .     A
C140   C147    1.399   .     A
C141   C143    1.423   .     A
C141   C208    1.395   .     S
C142   C145    1.423   .     A
C142   C207    1.395   1_455 S
C143   C166    1.401   .     A
C143   C161    1.428   .     A
C144   O194    1.289   .     A
C144   C163    1.426   .     S
C144   O192    1.292   .     A
C145   C155    1.428   .     A
C146   H184    1.081   .     S
C146   C221    1.405   .     S
C147   H185    1.081   .     S
C147   C227    1.405   1_455 S
C148   C155    1.512   .     S
C148   C149    1.412   .     A
C149   H171    1.081   .     S
C150   C151    1.394   .     A
C150   H172    1.082   .     S
C150   C281    1.397   .     S
C151   C152    1.393   .     A
C151   H173    1.082   .     S
C152   H174    1.083   .     S
C152   C153    1.398   .     A
C153   C280    1.414   .     S
C153   H241    1.078   1_455 S
C154   C161    1.512   .     S
C154   C160    1.412   .     A
C154   C288    1.414   .     S
C155   C212    1.405   1_455 S
C156   C157    1.398   .     A
C156   H242    1.078   .     S
C157   H177    1.083   .     S
C157   C158    1.393   .     A
C158   C159    1.394   .     A
C158   H178    1.082   .     S
C159   H179    1.082   .     S
C160   H181    1.081   .     S
C160   C291    1.397   .     S
C161   C213    1.405   .     S
C163   C294    1.330   .     S
C163   H319    1.088   .     S
C164   O197    1.292   .     A
C164   O195    1.295   .     A
C165   O196    1.295   .     A
C165   O198    1.292   .     A
C166   H169    1.081   .     S
Cu167  O198    1.941   .     S
Cu167  O195    1.955   .     S
Cu167  O194    1.947   .     S
Cu167  N190    2.025   .     S
Cu167  O191    1.948   .     S
Cu167  Cu168   2.694   .     S
Cu168  O193    1.947   .     S
Cu168  N189    2.025   .     S
Cu168  O197    1.941   .     S
Cu168  O196    1.955   .     S
Cu168  O192    1.948   .     S
H170   N982    1.029   1_554 S
H175   C219    1.078   .     S
H176   C222    1.078   1_455 S
H186   C294    1.088   .     S
H188   N585    1.029   .     S
N189   H980    1.029   1_554 S
N189   N982    1.300   1_554 S
N190   N585    1.300   .     S
N190   H566    1.029   .     S
C199   C228    1.426   .     S
C199   O257    1.292   .     A
C199   O259    1.289   .     A
C200   C202    1.393   .     A
C200   H246    1.081   .     S
C200   C211    1.401   .     A
C201   C203    1.390   .     A
C201   C231    1.441   .     S
C201   C232    1.393   .     A
C202   C230    1.441   .     S
C202   C204    1.390   .     A
C203   C205    1.391   .     A
C203   H248    1.085   .     S
C204   H249    1.085   .     S
C204   C206    1.391   .     A
C205   C207    1.410   .     A
C205   C212    1.399   .     A
C206   C208    1.410   .     A
C206   C213    1.399   .     A
C207   C209    1.423   .     A
C207   C142    1.395   1_655 S
C208   C211    1.423   .     A
C209   C232    1.401   .     A
C209   C227    1.428   .     A
C210   O260    1.289   .     A
C210   C229    1.426   .     S
C210   O258    1.292   .     A
C211   C221    1.428   .     A
C212   H250    1.081   .     S
C212   C155    1.405   1_655 S
C213   H251    1.081   .     S
C214   C221    1.512   .     S
C214   C215    1.412   .     A
C215   H237    1.081   .     S
C216   C217    1.394   .     A
C216   H238    1.082   .     S
C216   C347    1.397   .     S
C217   C218    1.393   .     A
C217   H239    1.082   .     S
C218   H240    1.083   .     S
C218   C219    1.398   .     A
C219   C346    1.414   .     S
C220   C227    1.512   .     S
C220   C226    1.412   .     A
C220   C354    1.414   .     S
C222   C223    1.398   .     A
C222   H176    1.078   1_655 S
C223   H243    1.083   .     S
C223   C224    1.393   .     A
C224   C225    1.394   .     A
C224   H244    1.082   .     S
C225   H245    1.082   .     S
C226   H247    1.081   .     S
C226   C357    1.397   .     S
C227   C147    1.405   1_655 S
C229   C360    1.330   .     S
C229   H385    1.088   .     S
C230   O263    1.292   .     A
C230   O261    1.295   .     A
C231   O262    1.295   .     A
C231   O264    1.292   .     A
C232   H235    1.081   .     S
Cu233  O264    1.941   .     S
Cu233  O261    1.955   .     S
Cu233  O260    1.947   .     S
Cu233  N256    2.025   .     S
Cu233  O257    1.948   .     S
Cu233  Cu234   2.694   .     S
Cu234  O259    1.947   .     S
Cu234  N255    2.025   .     S
Cu234  O263    1.941   .     S
Cu234  O262    1.955   .     S
Cu234  O258    1.948   .     S
H236   N1048   1.029   1_554 S
H241   C153    1.078   1_655 S
H252   C360    1.088   .     S
H254   N651    1.029   .     S
N255   H1046   1.029   1_554 S
N255   N1048   1.300   1_554 S
N256   N651    1.300   .     S
N256   H632    1.029   .     S
C265   C294    1.426   .     S
C265   O323    1.292   .     A
C265   O325    1.289   .     A
C266   C268    1.393   .     A
C266   H312    1.081   .     S
C266   C277    1.401   .     A
C267   C269    1.390   .     A
C267   C297    1.441   .     S
C267   C298    1.393   .     A
C268   C296    1.441   .     S
C268   C270    1.390   .     A
C269   C271    1.391   .     A
C269   H314    1.085   .     S
C270   H315    1.085   .     S
C270   C272    1.391   .     A
C271   C273    1.410   .     A
C271   C278    1.399   .     A
C272   C274    1.410   .     A
C272   C279    1.399   .     A
C273   C275    1.423   .     A
C273   C340    1.395   .     S
C274   C277    1.423   .     A
C274   C339    1.395   1_455 S
C275   C298    1.401   .     A
C275   C293    1.428   .     A
C276   O326    1.289   .     A
C276   C295    1.426   .     S
C276   O324    1.292   .     A
C277   C287    1.428   .     A
C278   H316    1.081   .     S
C278   C353    1.405   .     S
C279   H317    1.081   .     S
C279   C359    1.405   1_455 S
C280   C287    1.512   .     S
C280   C281    1.412   .     A
C281   H303    1.081   .     S
C282   C283    1.394   .     A
C282   H304    1.082   .     S
C282   C17     1.397   1_565 S
C283   C284    1.393   .     A
C283   H305    1.082   .     S
C284   H306    1.083   .     S
C284   C285    1.398   .     A
C285   C16     1.414   1_565 S
C285   H373    1.078   1_455 S
C286   C293    1.512   .     S
C286   C292    1.412   .     A
C286   C24     1.414   1_565 S
C287   C344    1.405   1_455 S
C288   C289    1.398   .     A
C288   H374    1.078   .     S
C289   H309    1.083   .     S
C289   C290    1.393   .     A
C290   C291    1.394   .     A
C290   H310    1.082   .     S
C291   H311    1.082   .     S
C292   H313    1.081   .     S
C292   C27     1.397   1_565 S
C293   C345    1.405   .     S
C295   C30     1.330   1_565 S
C295   H55     1.088   1_565 S
C296   O329    1.292   .     A
C296   O327    1.295   .     A
C297   O328    1.295   .     A
C297   O330    1.292   .     A
C298   H301    1.081   .     S
Cu299  O330    1.941   .     S
Cu299  O327    1.955   .     S
Cu299  O326    1.947   .     S
Cu299  N322    2.025   .     S
Cu299  O323    1.948   .     S
Cu299  Cu300   2.694   .     S
Cu300  O325    1.947   .     S
Cu300  N321    2.025   .     S
Cu300  O329    1.941   .     S
Cu300  O328    1.955   .     S
Cu300  O324    1.948   .     S
H302   N1114   1.029   1_554 S
H307   C351    1.078   .     S
H308   C354    1.078   1_455 S
H318   C30     1.088   1_565 S
H320   N717    1.029   .     S
N321   H1112   1.029   1_554 S
N321   N1114   1.300   1_554 S
N322   N717    1.300   .     S
N322   H698    1.029   .     S
C331   C360    1.426   .     S
C331   O389    1.292   .     A
C331   O391    1.289   .     A
C332   C334    1.393   .     A
C332   H378    1.081   .     S
C332   C343    1.401   .     A
C333   C335    1.390   .     A
C333   C363    1.441   .     S
C333   C364    1.393   .     A
C334   C362    1.441   .     S
C334   C336    1.390   .     A
C335   C337    1.391   .     A
C335   H380    1.085   .     S
C336   H381    1.085   .     S
C336   C338    1.391   .     A
C337   C339    1.410   .     A
C337   C344    1.399   .     A
C338   C340    1.410   .     A
C338   C345    1.399   .     A
C339   C341    1.423   .     A
C339   C274    1.395   1_655 S
C340   C343    1.423   .     A
C341   C364    1.401   .     A
C341   C359    1.428   .     A
C342   O392    1.289   .     A
C342   C361    1.426   .     S
C342   O390    1.292   .     A
C343   C353    1.428   .     A
C344   H382    1.081   .     S
C344   C287    1.405   1_655 S
C345   H383    1.081   .     S
C346   C353    1.512   .     S
C346   C347    1.412   .     A
C347   H369    1.081   .     S
C348   C349    1.394   .     A
C348   H370    1.082   .     S
C348   C83     1.397   1_565 S
C349   C350    1.393   .     A
C349   H371    1.082   .     S
C350   H372    1.083   .     S
C350   C351    1.398   .     A
C351   C82     1.414   1_565 S
C352   C359    1.512   .     S
C352   C358    1.412   .     A
C352   C90     1.414   1_565 S
C354   C355    1.398   .     A
C354   H308    1.078   1_655 S
C355   H375    1.083   .     S
C355   C356    1.393   .     A
C356   C357    1.394   .     A
C356   H376    1.082   .     S
C357   H377    1.082   .     S
C358   H379    1.081   .     S
C358   C93     1.397   1_565 S
C359   C279    1.405   1_655 S
C361   C96     1.330   1_565 S
C361   H121    1.088   1_565 S
C362   O395    1.292   .     A
C362   O393    1.295   .     A
C363   O394    1.295   .     A
C363   O396    1.292   .     A
C364   H367    1.081   .     S
Cu365  O396    1.941   .     S
Cu365  O393    1.955   .     S
Cu365  O392    1.947   .     S
Cu365  N388    2.025   .     S
Cu365  O389    1.948   .     S
Cu365  Cu366   2.694   .     S
Cu366  O391    1.947   .     S
Cu366  N387    2.025   .     S
Cu366  O395    1.941   .     S
Cu366  O394    1.955   .     S
Cu366  O390    1.948   .     S
H368   N1180   1.029   1_554 S
H373   C285    1.078   1_655 S
H384   C96     1.088   1_565 S
H386   N783    1.029   .     S
N387   H1178   1.029   1_554 S
N387   N1180   1.300   1_554 S
N388   N783    1.300   .     S
N388   H764    1.029   .     S
C397   C426    1.426   .     S
C397   O455    1.292   .     A
C397   O457    1.289   .     A
C398   C400    1.393   .     A
C398   H444    1.081   .     S
C398   C409    1.401   .     A
C399   C401    1.390   .     A
C399   C429    1.441   .     S
C399   C430    1.393   .     A
C400   C428    1.441   .     S
C400   C402    1.390   .     A
C401   C403    1.391   .     A
C401   H446    1.085   .     S
C402   H447    1.085   .     S
C402   C404    1.391   .     A
C403   C405    1.410   .     A
C403   C410    1.399   .     A
C404   C406    1.410   .     A
C404   C411    1.399   .     A
C405   C407    1.423   .     A
C405   C472    1.395   .     S
C406   C409    1.423   .     A
C406   C471    1.395   1_455 S
C407   C430    1.401   .     A
C407   C425    1.428   .     A
C408   O458    1.289   .     A
C408   C427    1.426   .     S
C408   O456    1.292   .     A
C409   C419    1.428   .     A
C410   H448    1.081   .     S
C410   C485    1.405   .     S
C411   H449    1.081   .     S
C411   C491    1.405   1_455 S
C412   C419    1.512   .     S
C412   C413    1.412   .     A
C412   C681    1.414   1_545 S
C413   H435    1.081   .     S
C413   C678    1.397   1_545 S
C414   C415    1.394   .     A
C414   H436    1.082   .     S
C414   C545    1.397   .     S
C415   C416    1.393   .     A
C415   H437    1.082   .     S
C416   H438    1.083   .     S
C416   C417    1.398   .     A
C417   C544    1.414   .     S
C417   H505    1.078   1_455 S
C418   C425    1.512   .     S
C418   C424    1.412   .     A
C418   C552    1.414   .     S
C419   C476    1.405   1_455 S
C420   C421    1.398   .     A
C420   C682    1.414   1_545 S
C420   H506    1.078   .     S
C421   H441    1.083   .     S
C421   C422    1.393   .     A
C422   C423    1.394   .     A
C422   H442    1.082   .     S
C423   H443    1.082   .     S
C423   C688    1.397   1_545 S
C424   H445    1.081   .     S
C424   C555    1.397   .     S
C425   C477    1.405   .     S
C426   C691    1.330   1_545 S
C426   H714    1.088   1_545 S
C427   C558    1.330   .     S
C427   H583    1.088   .     S
C428   O461    1.292   .     A
C428   O459    1.295   .     A
C429   O460    1.295   .     A
C429   O462    1.292   .     A
C430   H433    1.081   .     S
Cu431  O462    1.941   .     S
Cu431  O459    1.955   .     S
Cu431  O458    1.947   .     S
Cu431  N454    2.025   .     S
Cu431  O455    1.948   .     S
Cu431  Cu432   2.694   .     S
Cu432  O457    1.947   .     S
Cu432  N453    2.025   .     S
Cu432  O461    1.941   .     S
Cu432  O460    1.955   .     S
Cu432  O456    1.948   .     S
H439   C483    1.078   .     S
H440   C486    1.078   1_455 S
H450   C558    1.088   .     S
H451   C691    1.088   1_545 S
H452   N849    1.029   .     S
N454   N849    1.300   .     S
N454   H830    1.029   .     S
C463   C492    1.426   .     S
C463   O521    1.292   .     A
C463   O523    1.289   .     A
C464   C466    1.393   .     A
C464   H510    1.081   .     S
C464   C475    1.401   .     A
C465   C467    1.390   .     A
C465   C495    1.441   .     S
C465   C496    1.393   .     A
C466   C494    1.441   .     S
C466   C468    1.390   .     A
C467   C469    1.391   .     A
C467   H512    1.085   .     S
C468   H513    1.085   .     S
C468   C470    1.391   .     A
C469   C471    1.410   .     A
C469   C476    1.399   .     A
C470   C472    1.410   .     A
C470   C477    1.399   .     A
C471   C473    1.423   .     A
C471   C406    1.395   1_655 S
C472   C475    1.423   .     A
C473   C496    1.401   .     A
C473   C491    1.428   .     A
C474   O524    1.289   .     A
C474   C493    1.426   .     S
C474   O522    1.292   .     A
C475   C485    1.428   .     A
C476   H514    1.081   .     S
C476   C419    1.405   1_655 S
C477   H515    1.081   .     S
C478   C485    1.512   .     S
C478   C479    1.412   .     A
C478   C747    1.414   1_545 S
C479   H501    1.081   .     S
C479   C744    1.397   1_545 S
C480   C481    1.394   .     A
C480   H502    1.082   .     S
C480   C611    1.397   .     S
C481   C482    1.393   .     A
C481   H503    1.082   .     S
C482   H504    1.083   .     S
C482   C483    1.398   .     A
C483   C610    1.414   .     S
C484   C491    1.512   .     S
C484   C490    1.412   .     A
C484   C618    1.414   .     S
C486   C487    1.398   .     A
C486   C748    1.414   1_545 S
C486   H440    1.078   1_655 S
C487   H507    1.083   .     S
C487   C488    1.393   .     A
C488   C489    1.394   .     A
C488   H508    1.082   .     S
C489   H509    1.082   .     S
C489   C754    1.397   1_545 S
C490   H511    1.081   .     S
C490   C621    1.397   .     S
C491   C411    1.405   1_655 S
C492   C757    1.330   1_545 S
C492   H780    1.088   1_545 S
C493   C624    1.330   .     S
C493   H649    1.088   .     S
C494   O527    1.292   .     A
C494   O525    1.295   .     A
C495   O526    1.295   .     A
C495   O528    1.292   .     A
C496   H499    1.081   .     S
Cu497  O528    1.941   .     S
Cu497  O525    1.955   .     S
Cu497  O524    1.947   .     S
Cu497  N520    2.025   .     S
Cu497  O521    1.948   .     S
Cu497  Cu498   2.694   .     S
Cu498  O523    1.947   .     S
Cu498  N519    2.025   .     S
Cu498  O527    1.941   .     S
Cu498  O526    1.955   .     S
Cu498  O522    1.948   .     S
H505   C417    1.078   1_655 S
H516   C624    1.088   .     S
H517   C757    1.088   1_545 S
H518   N915    1.029   .     S
N520   N915    1.300   .     S
N520   H896    1.029   .     S
C529   C558    1.426   .     S
C529   O587    1.292   .     A
C529   O589    1.289   .     A
C530   C532    1.393   .     A
C530   H576    1.081   .     S
C530   C541    1.401   .     A
C531   C533    1.390   .     A
C531   C561    1.441   .     S
C531   C562    1.393   .     A
C532   C560    1.441   .     S
C532   C534    1.390   .     A
C533   C535    1.391   .     A
C533   H578    1.085   .     S
C534   H579    1.085   .     S
C534   C536    1.391   .     A
C535   C537    1.410   .     A
C535   C542    1.399   .     A
C536   C538    1.410   .     A
C536   C543    1.399   .     A
C537   C539    1.423   .     A
C537   C604    1.395   .     S
C538   C541    1.423   .     A
C538   C603    1.395   1_455 S
C539   C562    1.401   .     A
C539   C557    1.428   .     A
C540   O590    1.289   .     A
C540   C559    1.426   .     S
C540   O588    1.292   .     A
C541   C551    1.428   .     A
C542   H580    1.081   .     S
C542   C617    1.405   .     S
C543   H581    1.081   .     S
C543   C623    1.405   1_455 S
C544   C551    1.512   .     S
C544   C545    1.412   .     A
C545   H567    1.081   .     S
C546   C547    1.394   .     A
C546   H568    1.082   .     S
C546   C677    1.397   .     S
C547   C548    1.393   .     A
C547   H569    1.082   .     S
C548   H570    1.083   .     S
C548   C549    1.398   .     A
C549   C676    1.414   .     S
C549   H637    1.078   1_455 S
C550   C557    1.512   .     S
C550   C556    1.412   .     A
C550   C684    1.414   .     S
C551   C608    1.405   1_455 S
C552   C553    1.398   .     A
C552   H638    1.078   .     S
C553   H573    1.083   .     S
C553   C554    1.393   .     A
C554   C555    1.394   .     A
C554   H574    1.082   .     S
C555   H575    1.082   .     S
C556   H577    1.081   .     S
C556   C687    1.397   .     S
C557   C609    1.405   .     S
C559   C690    1.330   .     S
C559   H715    1.088   .     S
C560   O593    1.292   .     A
C560   O591    1.295   .     A
C561   O592    1.295   .     A
C561   O594    1.292   .     A
C562   H565    1.081   .     S
Cu563  O594    1.941   .     S
Cu563  O591    1.955   .     S
Cu563  O590    1.947   .     S
Cu563  N586    2.025   .     S
Cu563  O587    1.948   .     S
Cu563  Cu564   2.694   .     S
Cu564  O589    1.947   .     S
Cu564  N585    2.025   .     S
Cu564  O593    1.941   .     S
Cu564  O592    1.955   .     S
Cu564  O588    1.948   .     S
H571   C615    1.078   .     S
H572   C618    1.078   1_455 S
H582   C690    1.088   .     S
H584   N981    1.029   .     S
N586   N981    1.300   .     S
N586   H962    1.029   .     S
C595   C624    1.426   .     S
C595   O653    1.292   .     A
C595   O655    1.289   .     A
C596   C598    1.393   .     A
C596   H642    1.081   .     S
C596   C607    1.401   .     A
C597   C599    1.390   .     A
C597   C627    1.441   .     S
C597   C628    1.393   .     A
C598   C626    1.441   .     S
C598   C600    1.390   .     A
C599   C601    1.391   .     A
C599   H644    1.085   .     S
C600   H645    1.085   .     S
C600   C602    1.391   .     A
C601   C603    1.410   .     A
C601   C608    1.399   .     A
C602   C604    1.410   .     A
C602   C609    1.399   .     A
C603   C605    1.423   .     A
C603   C538    1.395   1_655 S
C604   C607    1.423   .     A
C605   C628    1.401   .     A
C605   C623    1.428   .     A
C606   O656    1.289   .     A
C606   C625    1.426   .     S
C606   O654    1.292   .     A
C607   C617    1.428   .     A
C608   H646    1.081   .     S
C608   C551    1.405   1_655 S
C609   H647    1.081   .     S
C610   C617    1.512   .     S
C610   C611    1.412   .     A
C611   H633    1.081   .     S
C612   C613    1.394   .     A
C612   H634    1.082   .     S
C612   C743    1.397   .     S
C613   C614    1.393   .     A
C613   H635    1.082   .     S
C614   H636    1.083   .     S
C614   C615    1.398   .     A
C615   C742    1.414   .     S
C616   C623    1.512   .     S
C616   C622    1.412   .     A
C616   C750    1.414   .     S
C618   C619    1.398   .     A
C618   H572    1.078   1_655 S
C619   H639    1.083   .     S
C619   C620    1.393   .     A
C620   C621    1.394   .     A
C620   H640    1.082   .     S
C621   H641    1.082   .     S
C622   H643    1.081   .     S
C622   C753    1.397   .     S
C623   C543    1.405   1_655 S
C625   C756    1.330   .     S
C625   H781    1.088   .     S
C626   O659    1.292   .     A
C626   O657    1.295   .     A
C627   O658    1.295   .     A
C627   O660    1.292   .     A
C628   H631    1.081   .     S
Cu629  O660    1.941   .     S
Cu629  O657    1.955   .     S
Cu629  O656    1.947   .     S
Cu629  N652    2.025   .     S
Cu629  O653    1.948   .     S
Cu629  Cu630   2.694   .     S
Cu630  O655    1.947   .     S
Cu630  N651    2.025   .     S
Cu630  O659    1.941   .     S
Cu630  O658    1.955   .     S
Cu630  O654    1.948   .     S
H637   C549    1.078   1_655 S
H648   C756    1.088   .     S
H650   N1047   1.029   .     S
N652   N1047   1.300   .     S
N652   H1028   1.029   .     S
C661   C690    1.426   .     S
C661   O719    1.292   .     A
C661   O721    1.289   .     A
C662   C664    1.393   .     A
C662   H708    1.081   .     S
C662   C673    1.401   .     A
C663   C665    1.390   .     A
C663   C693    1.441   .     S
C663   C694    1.393   .     A
C664   C692    1.441   .     S
C664   C666    1.390   .     A
C665   C667    1.391   .     A
C665   H710    1.085   .     S
C666   H711    1.085   .     S
C666   C668    1.391   .     A
C667   C669    1.410   .     A
C667   C674    1.399   .     A
C668   C670    1.410   .     A
C668   C675    1.399   .     A
C669   C671    1.423   .     A
C669   C736    1.395   .     S
C670   C673    1.423   .     A
C670   C735    1.395   1_455 S
C671   C694    1.401   .     A
C671   C689    1.428   .     A
C672   O722    1.289   .     A
C672   C691    1.426   .     S
C672   O720    1.292   .     A
C673   C683    1.428   .     A
C674   H712    1.081   .     S
C674   C749    1.405   .     S
C675   H713    1.081   .     S
C675   C755    1.405   1_455 S
C676   C683    1.512   .     S
C676   C677    1.412   .     A
C677   H699    1.081   .     S
C678   C679    1.394   .     A
C678   H700    1.082   .     S
C678   C413    1.397   1_565 S
C679   C680    1.393   .     A
C679   H701    1.082   .     S
C680   H702    1.083   .     S
C680   C681    1.398   .     A
C681   C412    1.414   1_565 S
C681   H769    1.078   1_455 S
C682   C689    1.512   .     S
C682   C688    1.412   .     A
C682   C420    1.414   1_565 S
C683   C740    1.405   1_455 S
C684   C685    1.398   .     A
C684   H770    1.078   .     S
C685   H705    1.083   .     S
C685   C686    1.393   .     A
C686   C687    1.394   .     A
C686   H706    1.082   .     S
C687   H707    1.082   .     S
C688   H709    1.081   .     S
C688   C423    1.397   1_565 S
C689   C741    1.405   .     S
C691   C426    1.330   1_565 S
C691   H451    1.088   1_565 S
C692   O725    1.292   .     A
C692   O723    1.295   .     A
C693   O724    1.295   .     A
C693   O726    1.292   .     A
C694   H697    1.081   .     S
Cu695  O726    1.941   .     S
Cu695  O723    1.955   .     S
Cu695  O722    1.947   .     S
Cu695  N718    2.025   .     S
Cu695  O719    1.948   .     S
Cu695  Cu696   2.694   .     S
Cu696  O721    1.947   .     S
Cu696  N717    2.025   .     S
Cu696  O725    1.941   .     S
Cu696  O724    1.955   .     S
Cu696  O720    1.948   .     S
H703   C747    1.078   .     S
H704   C750    1.078   1_455 S
H714   C426    1.088   1_565 S
H716   N1113   1.029   .     S
N718   N1113   1.300   .     S
N718   H1094   1.029   .     S
C727   C756    1.426   .     S
C727   O785    1.292   .     A
C727   O787    1.289   .     A
C728   C730    1.393   .     A
C728   H774    1.081   .     S
C728   C739    1.401   .     A
C729   C731    1.390   .     A
C729   C759    1.441   .     S
C729   C760    1.393   .     A
C730   C758    1.441   .     S
C730   C732    1.390   .     A
C731   C733    1.391   .     A
C731   H776    1.085   .     S
C732   H777    1.085   .     S
C732   C734    1.391   .     A
C733   C735    1.410   .     A
C733   C740    1.399   .     A
C734   C736    1.410   .     A
C734   C741    1.399   .     A
C735   C737    1.423   .     A
C735   C670    1.395   1_655 S
C736   C739    1.423   .     A
C737   C760    1.401   .     A
C737   C755    1.428   .     A
C738   O788    1.289   .     A
C738   C757    1.426   .     S
C738   O786    1.292   .     A
C739   C749    1.428   .     A
C740   H778    1.081   .     S
C740   C683    1.405   1_655 S
C741   H779    1.081   .     S
C742   C749    1.512   .     S
C742   C743    1.412   .     A
C743   H765    1.081   .     S
C744   C745    1.394   .     A
C744   H766    1.082   .     S
C744   C479    1.397   1_565 S
C745   C746    1.393   .     A
C745   H767    1.082   .     S
C746   H768    1.083   .     S
C746   C747    1.398   .     A
C747   C478    1.414   1_565 S
C748   C755    1.512   .     S
C748   C754    1.412   .     A
C748   C486    1.414   1_565 S
C750   C751    1.398   .     A
C750   H704    1.078   1_655 S
C751   H771    1.083   .     S
C751   C752    1.393   .     A
C752   C753    1.394   .     A
C752   H772    1.082   .     S
C753   H773    1.082   .     S
C754   H775    1.081   .     S
C754   C489    1.397   1_565 S
C755   C675    1.405   1_655 S
C757   C492    1.330   1_565 S
C757   H517    1.088   1_565 S
C758   O791    1.292   .     A
C758   O789    1.295   .     A
C759   O790    1.295   .     A
C759   O792    1.292   .     A
C760   H763    1.081   .     S
Cu761  O792    1.941   .     S
Cu761  O789    1.955   .     S
Cu761  O788    1.947   .     S
Cu761  N784    2.025   .     S
Cu761  O785    1.948   .     S
Cu761  Cu762   2.694   .     S
Cu762  O787    1.947   .     S
Cu762  N783    2.025   .     S
Cu762  O791    1.941   .     S
Cu762  O790    1.955   .     S
Cu762  O786    1.948   .     S
H769   C681    1.078   1_655 S
H780   C492    1.088   1_565 S
H782   N1179   1.029   .     S
N784   N1179   1.300   .     S
N784   H1160   1.029   .     S
C793   C822    1.426   .     S
C793   O851    1.292   .     A
C793   O853    1.289   .     A
C794   C796    1.393   .     A
C794   H840    1.081   .     S
C794   C805    1.401   .     A
C795   C797    1.390   .     A
C795   C825    1.441   .     S
C795   C826    1.393   .     A
C796   C824    1.441   .     S
C796   C798    1.390   .     A
C797   C799    1.391   .     A
C797   H842    1.085   .     S
C798   H843    1.085   .     S
C798   C800    1.391   .     A
C799   C801    1.410   .     A
C799   C806    1.399   .     A
C800   C802    1.410   .     A
C800   C807    1.399   .     A
C801   C803    1.423   .     A
C801   C868    1.395   .     S
C802   C805    1.423   .     A
C802   C867    1.395   1_455 S
C803   C826    1.401   .     A
C803   C821    1.428   .     A
C804   O854    1.289   .     A
C804   C823    1.426   .     S
C804   O852    1.292   .     A
C805   C815    1.428   .     A
C806   H844    1.081   .     S
C806   C881    1.405   .     S
C807   H845    1.081   .     S
C807   C887    1.405   1_455 S
C808   C815    1.512   .     S
C808   C809    1.412   .     A
C808   C1077   1.414   1_545 S
C809   H831    1.081   .     S
C809   C1074   1.397   1_545 S
C810   C811    1.394   .     A
C810   H832    1.082   .     S
C810   C941    1.397   .     S
C811   C812    1.393   .     A
C811   H833    1.082   .     S
C812   H834    1.083   .     S
C812   C813    1.398   .     A
C813   C940    1.414   .     S
C813   H901    1.078   1_455 S
C814   C821    1.512   .     S
C814   C820    1.412   .     A
C814   C948    1.414   .     S
C815   C872    1.405   1_455 S
C816   C817    1.398   .     A
C816   C1078   1.414   1_545 S
C816   H902    1.078   .     S
C817   H837    1.083   .     S
C817   C818    1.393   .     A
C818   C819    1.394   .     A
C818   H838    1.082   .     S
C819   H839    1.082   .     S
C819   C1084   1.397   1_545 S
C820   H841    1.081   .     S
C820   C951    1.397   .     S
C821   C873    1.405   .     S
C822   C1087   1.330   1_545 S
C822   H1110   1.088   1_545 S
C823   C954    1.330   .     S
C823   H979    1.088   .     S
C824   O857    1.292   .     A
C824   O855    1.295   .     A
C825   O856    1.295   .     A
C825   O858    1.292   .     A
C826   H829    1.081   .     S
Cu827  O858    1.941   .     S
Cu827  O855    1.955   .     S
Cu827  O854    1.947   .     S
Cu827  N850    2.025   .     S
Cu827  O851    1.948   .     S
Cu827  Cu828   2.694   .     S
Cu828  O853    1.947   .     S
Cu828  N849    2.025   .     S
Cu828  O857    1.941   .     S
Cu828  O856    1.955   .     S
Cu828  O852    1.948   .     S
H835   C879    1.078   .     S
H836   C882    1.078   1_455 S
H846   C954    1.088   .     S
H847   C1087   1.088   1_545 S
H848   N57     1.029   1_556 S
N850   N57     1.300   1_556 S
N850   H38     1.029   1_556 S
C859   C888    1.426   .     S
C859   O917    1.292   .     A
C859   O919    1.289   .     A
C860   C862    1.393   .     A
C860   H906    1.081   .     S
C860   C871    1.401   .     A
C861   C863    1.390   .     A
C861   C891    1.441   .     S
C861   C892    1.393   .     A
C862   C890    1.441   .     S
C862   C864    1.390   .     A
C863   C865    1.391   .     A
C863   H908    1.085   .     S
C864   H909    1.085   .     S
C864   C866    1.391   .     A
C865   C867    1.410   .     A
C865   C872    1.399   .     A
C866   C868    1.410   .     A
C866   C873    1.399   .     A
C867   C869    1.423   .     A
C867   C802    1.395   1_655 S
C868   C871    1.423   .     A
C869   C892    1.401   .     A
C869   C887    1.428   .     A
C870   O920    1.289   .     A
C870   C889    1.426   .     S
C870   O918    1.292   .     A
C871   C881    1.428   .     A
C872   H910    1.081   .     S
C872   C815    1.405   1_655 S
C873   H911    1.081   .     S
C874   C881    1.512   .     S
C874   C875    1.412   .     A
C874   C1143   1.414   1_545 S
C875   H897    1.081   .     S
C875   C1140   1.397   1_545 S
C876   C877    1.394   .     A
C876   H898    1.082   .     S
C876   C1007   1.397   .     S
C877   C878    1.393   .     A
C877   H899    1.082   .     S
C878   H900    1.083   .     S
C878   C879    1.398   .     A
C879   C1006   1.414   .     S
C880   C887    1.512   .     S
C880   C886    1.412   .     A
C880   C1014   1.414   .     S
C882   C883    1.398   .     A
C882   C1144   1.414   1_545 S
C882   H836    1.078   1_655 S
C883   H903    1.083   .     S
C883   C884    1.393   .     A
C884   C885    1.394   .     A
C884   H904    1.082   .     S
C885   H905    1.082   .     S
C885   C1150   1.397   1_545 S
C886   H907    1.081   .     S
C886   C1017   1.397   .     S
C887   C807    1.405   1_655 S
C888   C1153   1.330   1_545 S
C888   H1176   1.088   1_545 S
C889   C1020   1.330   .     S
C889   H1045   1.088   .     S
C890   O923    1.292   .     A
C890   O921    1.295   .     A
C891   O922    1.295   .     A
C891   O924    1.292   .     A
C892   H895    1.081   .     S
Cu893  O924    1.941   .     S
Cu893  O921    1.955   .     S
Cu893  O920    1.947   .     S
Cu893  N916    2.025   .     S
Cu893  O917    1.948   .     S
Cu893  Cu894   2.694   .     S
Cu894  O919    1.947   .     S
Cu894  N915    2.025   .     S
Cu894  O923    1.941   .     S
Cu894  O922    1.955   .     S
Cu894  O918    1.948   .     S
H901   C813    1.078   1_655 S
H912   C1020   1.088   .     S
H913   C1153   1.088   1_545 S
H914   N123    1.029   1_556 S
N916   N123    1.300   1_556 S
N916   H104    1.029   1_556 S
C925   C954    1.426   .     S
C925   O983    1.292   .     A
C925   O985    1.289   .     A
C926   C928    1.393   .     A
C926   H972    1.081   .     S
C926   C937    1.401   .     A
C927   C929    1.390   .     A
C927   C957    1.441   .     S
C927   C958    1.393   .     A
C928   C956    1.441   .     S
C928   C930    1.390   .     A
C929   C931    1.391   .     A
C929   H974    1.085   .     S
C930   H975    1.085   .     S
C930   C932    1.391   .     A
C931   C933    1.410   .     A
C931   C938    1.399   .     A
C932   C934    1.410   .     A
C932   C939    1.399   .     A
C933   C935    1.423   .     A
C933   C1000   1.395   .     S
C934   C937    1.423   .     A
C934   C999    1.395   1_455 S
C935   C958    1.401   .     A
C935   C953    1.428   .     A
C936   O986    1.289   .     A
C936   C955    1.426   .     S
C936   O984    1.292   .     A
C937   C947    1.428   .     A
C938   H976    1.081   .     S
C938   C1013   1.405   .     S
C939   H977    1.081   .     S
C939   C1019   1.405   1_455 S
C940   C947    1.512   .     S
C940   C941    1.412   .     A
C941   H963    1.081   .     S
C942   C943    1.394   .     A
C942   H964    1.082   .     S
C942   C1073   1.397   .     S
C943   C944    1.393   .     A
C943   H965    1.082   .     S
C944   H966    1.083   .     S
C944   C945    1.398   .     A
C945   C1072   1.414   .     S
C945   H1033   1.078   1_455 S
C946   C953    1.512   .     S
C946   C952    1.412   .     A
C946   C1080   1.414   .     S
C947   C1004   1.405   1_455 S
C948   C949    1.398   .     A
C948   H1034   1.078   .     S
C949   H969    1.083   .     S
C949   C950    1.393   .     A
C950   C951    1.394   .     A
C950   H970    1.082   .     S
C951   H971    1.082   .     S
C952   H973    1.081   .     S
C952   C1083   1.397   .     S
C953   C1005   1.405   .     S
C955   C1086   1.330   .     S
C955   H1111   1.088   .     S
C956   O989    1.292   .     A
C956   O987    1.295   .     A
C957   O988    1.295   .     A
C957   O990    1.292   .     A
C958   H961    1.081   .     S
Cu959  O990    1.941   .     S
Cu959  O987    1.955   .     S
Cu959  O986    1.947   .     S
Cu959  N982    2.025   .     S
Cu959  O983    1.948   .     S
Cu959  Cu960   2.694   .     S
Cu960  O985    1.947   .     S
Cu960  N981    2.025   .     S
Cu960  O989    1.941   .     S
Cu960  O988    1.955   .     S
Cu960  O984    1.948   .     S
H967   C1011   1.078   .     S
H968   C1014   1.078   1_455 S
H978   C1086   1.088   .     S
H980   N189    1.029   1_556 S
N982   N189    1.300   1_556 S
N982   H170    1.029   1_556 S
C991   C1020   1.426   .     S
C991   O1049   1.292   .     A
C991   O1051   1.289   .     A
C992   C994    1.393   .     A
C992   H1038   1.081   .     S
C992   C1003   1.401   .     A
C993   C995    1.390   .     A
C993   C1023   1.441   .     S
C993   C1024   1.393   .     A
C994   C1022   1.441   .     S
C994   C996    1.390   .     A
C995   C997    1.391   .     A
C995   H1040   1.085   .     S
C996   H1041   1.085   .     S
C996   C998    1.391   .     A
C997   C999    1.410   .     A
C997   C1004   1.399   .     A
C998   C1000   1.410   .     A
C998   C1005   1.399   .     A
C999   C1001   1.423   .     A
C999   C934    1.395   1_655 S
C1000  C1003   1.423   .     A
C1001  C1024   1.401   .     A
C1001  C1019   1.428   .     A
C1002  O1052   1.289   .     A
C1002  C1021   1.426   .     S
C1002  O1050   1.292   .     A
C1003  C1013   1.428   .     A
C1004  H1042   1.081   .     S
C1004  C947    1.405   1_655 S
C1005  H1043   1.081   .     S
C1006  C1013   1.512   .     S
C1006  C1007   1.412   .     A
C1007  H1029   1.081   .     S
C1008  C1009   1.394   .     A
C1008  H1030   1.082   .     S
C1008  C1139   1.397   .     S
C1009  C1010   1.393   .     A
C1009  H1031   1.082   .     S
C1010  H1032   1.083   .     S
C1010  C1011   1.398   .     A
C1011  C1138   1.414   .     S
C1012  C1019   1.512   .     S
C1012  C1018   1.412   .     A
C1012  C1146   1.414   .     S
C1014  C1015   1.398   .     A
C1014  H968    1.078   1_655 S
C1015  H1035   1.083   .     S
C1015  C1016   1.393   .     A
C1016  C1017   1.394   .     A
C1016  H1036   1.082   .     S
C1017  H1037   1.082   .     S
C1018  H1039   1.081   .     S
C1018  C1149   1.397   .     S
C1019  C939    1.405   1_655 S
C1021  C1152   1.330   .     S
C1021  H1177   1.088   .     S
C1022  O1055   1.292   .     A
C1022  O1053   1.295   .     A
C1023  O1054   1.295   .     A
C1023  O1056   1.292   .     A
C1024  H1027   1.081   .     S
Cu1025 O1056   1.941   .     S
Cu1025 O1053   1.955   .     S
Cu1025 O1052   1.947   .     S
Cu1025 N1048   2.025   .     S
Cu1025 O1049   1.948   .     S
Cu1025 Cu1026  2.694   .     S
Cu1026 O1051   1.947   .     S
Cu1026 N1047   2.025   .     S
Cu1026 O1055   1.941   .     S
Cu1026 O1054   1.955   .     S
Cu1026 O1050   1.948   .     S
H1033  C945    1.078   1_655 S
H1044  C1152   1.088   .     S
H1046  N255    1.029   1_556 S
N1048  N255    1.300   1_556 S
N1048  H236    1.029   1_556 S
C1057  C1086   1.426   .     S
C1057  O1115   1.292   .     A
C1057  O1117   1.289   .     A
C1058  C1060   1.393   .     A
C1058  H1104   1.081   .     S
C1058  C1069   1.401   .     A
C1059  C1061   1.390   .     A
C1059  C1089   1.441   .     S
C1059  C1090   1.393   .     A
C1060  C1088   1.441   .     S
C1060  C1062   1.390   .     A
C1061  C1063   1.391   .     A
C1061  H1106   1.085   .     S
C1062  H1107   1.085   .     S
C1062  C1064   1.391   .     A
C1063  C1065   1.410   .     A
C1063  C1070   1.399   .     A
C1064  C1066   1.410   .     A
C1064  C1071   1.399   .     A
C1065  C1067   1.423   .     A
C1065  C1132   1.395   .     S
C1066  C1069   1.423   .     A
C1066  C1131   1.395   1_455 S
C1067  C1090   1.401   .     A
C1067  C1085   1.428   .     A
C1068  O1118   1.289   .     A
C1068  C1087   1.426   .     S
C1068  O1116   1.292   .     A
C1069  C1079   1.428   .     A
C1070  H1108   1.081   .     S
C1070  C1145   1.405   .     S
C1071  H1109   1.081   .     S
C1071  C1151   1.405   1_455 S
C1072  C1079   1.512   .     S
C1072  C1073   1.412   .     A
C1073  H1095   1.081   .     S
C1074  C1075   1.394   .     A
C1074  H1096   1.082   .     S
C1074  C809    1.397   1_565 S
C1075  C1076   1.393   .     A
C1075  H1097   1.082   .     S
C1076  H1098   1.083   .     S
C1076  C1077   1.398   .     A
C1077  C808    1.414   1_565 S
C1077  H1165   1.078   1_455 S
C1078  C1085   1.512   .     S
C1078  C1084   1.412   .     A
C1078  C816    1.414   1_565 S
C1079  C1136   1.405   1_455 S
C1080  C1081   1.398   .     A
C1080  H1166   1.078   .     S
C1081  H1101   1.083   .     S
C1081  C1082   1.393   .     A
C1082  C1083   1.394   .     A
C1082  H1102   1.082   .     S
C1083  H1103   1.082   .     S
C1084  H1105   1.081   .     S
C1084  C819    1.397   1_565 S
C1085  C1137   1.405   .     S
C1087  C822    1.330   1_565 S
C1087  H847    1.088   1_565 S
C1088  O1121   1.292   .     A
C1088  O1119   1.295   .     A
C1089  O1120   1.295   .     A
C1089  O1122   1.292   .     A
C1090  H1093   1.081   .     S
Cu1091 O1122   1.941   .     S
Cu1091 O1119   1.955   .     S
Cu1091 O1118   1.947   .     S
Cu1091 N1114   2.025   .     S
Cu1091 O1115   1.948   .     S
Cu1091 Cu1092  2.694   .     S
Cu1092 O1117   1.947   .     S
Cu1092 N1113   2.025   .     S
Cu1092 O1121   1.941   .     S
Cu1092 O1120   1.955   .     S
Cu1092 O1116   1.948   .     S
H1099  C1143   1.078   .     S
H1100  C1146   1.078   1_455 S
H1110  C822    1.088   1_565 S
H1112  N321    1.029   1_556 S
N1114  N321    1.300   1_556 S
N1114  H302    1.029   1_556 S
C1123  C1152   1.426   .     S
C1123  O1181   1.292   .     A
C1123  O1183   1.289   .     A
C1124  C1126   1.393   .     A
C1124  H1170   1.081   .     S
C1124  C1135   1.401   .     A
C1125  C1127   1.390   .     A
C1125  C1155   1.441   .     S
C1125  C1156   1.393   .     A
C1126  C1154   1.441   .     S
C1126  C1128   1.390   .     A
C1127  C1129   1.391   .     A
C1127  H1172   1.085   .     S
C1128  H1173   1.085   .     S
C1128  C1130   1.391   .     A
C1129  C1131   1.410   .     A
C1129  C1136   1.399   .     A
C1130  C1132   1.410   .     A
C1130  C1137   1.399   .     A
C1131  C1133   1.423   .     A
C1131  C1066   1.395   1_655 S
C1132  C1135   1.423   .     A
C1133  C1156   1.401   .     A
C1133  C1151   1.428   .     A
C1134  O1184   1.289   .     A
C1134  C1153   1.426   .     S
C1134  O1182   1.292   .     A
C1135  C1145   1.428   .     A
C1136  H1174   1.081   .     S
C1136  C1079   1.405   1_655 S
C1137  H1175   1.081   .     S
C1138  C1145   1.512   .     S
C1138  C1139   1.412   .     A
C1139  H1161   1.081   .     S
C1140  C1141   1.394   .     A
C1140  H1162   1.082   .     S
C1140  C875    1.397   1_565 S
C1141  C1142   1.393   .     A
C1141  H1163   1.082   .     S
C1142  H1164   1.083   .     S
C1142  C1143   1.398   .     A
C1143  C874    1.414   1_565 S
C1144  C1151   1.512   .     S
C1144  C1150   1.412   .     A
C1144  C882    1.414   1_565 S
C1146  C1147   1.398   .     A
C1146  H1100   1.078   1_655 S
C1147  H1167   1.083   .     S
C1147  C1148   1.393   .     A
C1148  C1149   1.394   .     A
C1148  H1168   1.082   .     S
C1149  H1169   1.082   .     S
C1150  H1171   1.081   .     S
C1150  C885    1.397   1_565 S
C1151  C1071   1.405   1_655 S
C1153  C888    1.330   1_565 S
C1153  H913    1.088   1_565 S
C1154  O1187   1.292   .     A
C1154  O1185   1.295   .     A
C1155  O1186   1.295   .     A
C1155  O1188   1.292   .     A
C1156  H1159   1.081   .     S
Cu1157 O1188   1.941   .     S
Cu1157 O1185   1.955   .     S
Cu1157 O1184   1.947   .     S
Cu1157 N1180   2.025   .     S
Cu1157 O1181   1.948   .     S
Cu1157 Cu1158  2.694   .     S
Cu1158 O1183   1.947   .     S
Cu1158 N1179   2.025   .     S
Cu1158 O1187   1.941   .     S
Cu1158 O1186   1.955   .     S
Cu1158 O1182   1.948   .     S
H1165  C1077   1.078   1_655 S
H1176  C888    1.088   1_565 S
H1178  N387    1.029   1_556 S
N1180  N387    1.300   1_556 S
N1180  H368    1.029   1_556 S
