data_str_m2_o10_o17_pcu_sym.91
_audit_creation_date              2020-01-03
_audit_creation_method            'Materials Studio'
_symmetry_space_group_name_H-M    'P1'
_symmetry_Int_Tables_number       1
_symmetry_cell_setting            triclinic
loop_
_symmetry_equiv_pos_as_xyz
  x,y,z
_cell_length_a                    29.9896
_cell_length_b                    26.1877
_cell_length_c                    22.4466
_cell_angle_alpha                 102.0578
_cell_angle_beta                  94.4213
_cell_angle_gamma                 92.8504
loop_
_atom_site_label
_atom_site_type_symbol
_atom_site_fract_x
_atom_site_fract_y
_atom_site_fract_z
_atom_site_U_iso_or_equiv
_atom_site_adp_type
_atom_site_occupancy
C1     C     0.24981   0.06683   0.15136   0.00000  Uiso   1.00
C2     C     0.08827   0.11700   0.14311   0.00000  Uiso   1.00
C3     C     0.38383   0.17241   0.16667   0.00000  Uiso   1.00
C4     C     0.11600   0.16225   0.16930   0.00000  Uiso   1.00
C5     C     0.40269   0.12694   0.14071   0.00000  Uiso   1.00
C6     C     0.09830   0.20645   0.20107   0.00000  Uiso   1.00
C7     C     0.44869   0.12198   0.14880   0.00000  Uiso   1.00
C8     C     0.05213   0.20884   0.20598   0.00000  Uiso   1.00
C9     C     0.47672   0.16681   0.17849   0.00000  Uiso   1.00
C10    C     0.02353   0.16413   0.17935   0.00000  Uiso   1.00
C11    C     0.45799   0.21431   0.20597   0.00000  Uiso   1.00
C12    C     0.25157   0.26659   0.18196   0.00000  Uiso   1.00
C13    C     0.04190   0.11669   0.15275   0.00000  Uiso   1.00
C14    C     0.46664   0.07231   0.13113   0.00000  Uiso   1.00
C15    C     0.03448   0.25460   0.23819   0.00000  Uiso   1.00
C16    C     0.38667   0.26750   0.21962   0.00000  Uiso   1.00
C17    C     0.37575   0.27612   0.28636   0.00000  Uiso   1.00
C18    C     0.10728   0.07333   0.09853   0.00000  Uiso   1.00
C19    C     0.13704   0.03914   0.13032   0.00000  Uiso   1.00
C20    C     0.43429   0.02337   0.10797   0.00000  Uiso   1.00
C21    C     0.45210   0.30246   0.10301   0.00000  Uiso   1.00
C22    C     0.06600   0.30124   0.27073   0.00000  Uiso   1.00
C23    C     0.01359   0.07004   0.13780   0.00000  Uiso   1.00
C24    C     0.09034   0.28936   0.32823   0.00000  Uiso   1.00
C25    C     0.48750   0.25641   0.24030   0.00000  Uiso   1.00
C26    C     0.25034   0.01112   0.14271   0.00000  Uiso   1.00
C27    C     0.25267   0.32238   0.19069   0.00000  Uiso   1.00
C28    C     0.16448   0.16446   0.16708   0.00000  Uiso   1.00
C29    C     0.33539   0.16930   0.16645   0.00000  Uiso   1.00
C30    C     0.41029   0.21706   0.19917   0.00000  Uiso   1.00
Cu31   Cu    0.25500   0.17246   0.22813   0.00000  Uiso   1.00
Cu32   Cu    0.24499   0.16087   0.10521   0.00000  Uiso   1.00
H33    H     0.38004   0.09470   0.11605   0.00000  Uiso   1.00
H34    H     0.40632   0.30185   0.21156   0.00000  Uiso   1.00
H35    H     0.35499   0.26761   0.19057   0.00000  Uiso   1.00
H36    H     0.15397   0.06136   0.17449   0.00000  Uiso   1.00
H37    H     0.11759   0.00467   0.13866   0.00000  Uiso   1.00
H38    H     0.16301   0.02389   0.10007   0.00000  Uiso   1.00
H39    H     0.08023   0.04926   0.06763   0.00000  Uiso   1.00
H40    H     0.12687   0.09031   0.06658   0.00000  Uiso   1.00
H41    H     0.47608   0.29422   0.06787   0.00000  Uiso   1.00
H42    H     0.46825   0.29898   0.14762   0.00000  Uiso   1.00
H43    H     0.42376   0.27218   0.09040   0.00000  Uiso   1.00
H44    H     0.12188   0.23930   0.22044   0.00000  Uiso   1.00
H45    H     0.40760   0.02447   0.13981   0.00000  Uiso   1.00
H46    H     0.41831   0.02551   0.06237   0.00000  Uiso   1.00
H47    H     0.06751   0.29299   0.03198   0.00000  Uiso   1.00
H48    H     0.10215   0.24925   0.32063   0.00000  Uiso   1.00
H49    H     0.12025   0.31695   0.00906   0.00000  Uiso   1.00
H50    H     0.04915   0.00488   0.28307   0.00000  Uiso   1.00
H51    H     0.09044   0.31115   0.23956   0.00000  Uiso   1.00
H52    H     0.05291   0.02731   0.17280   0.00000  Uiso   1.00
H53    H     0.48947   0.31173   0.31314   0.00000  Uiso   1.00
H54    H     0.24790   0.32135   0.09615   0.00000  Uiso   1.00
H55    H     0.25513   0.01215   0.23725   0.00000  Uiso   1.00
H56    H     0.21515   0.12585   0.31647   0.00000  Uiso   1.00
H57    H     0.28483   0.20750   0.01688   0.00000  Uiso   1.00
H58    H     0.40324   0.26469   0.31569   0.00000  Uiso   1.00
H59    H     0.37013   0.31801   0.30342   0.00000  Uiso   1.00
H60    H     0.34475   0.25300   0.29075   0.00000  Uiso   1.00
N61    N     0.23744   0.15214   0.01284   0.00000  Uiso   1.00
N62    N     0.26255   0.18119   0.32049   0.00000  Uiso   1.00
O63    O     0.25325   0.09538   0.20659   0.00000  Uiso   1.00
O64    O     0.47013   0.29950   0.27469   0.00000  Uiso   1.00
O65    O     0.24674   0.23796   0.12674   0.00000  Uiso   1.00
O66    O     0.24480   0.08559   0.10279   0.00000  Uiso   1.00
O67    O     0.25520   0.24774   0.23055   0.00000  Uiso   1.00
O68    O     0.18935   0.17155   0.21857   0.00000  Uiso   1.00
O69    O     0.31064   0.16179   0.11476   0.00000  Uiso   1.00
O70    O     0.18090   0.16176   0.11477   0.00000  Uiso   1.00
O71    O     0.31910   0.17157   0.21857   0.00000  Uiso   1.00
O72    O     0.03146   0.02260   0.13597   0.00000  Uiso   1.00
C73    C     0.74981   0.06683   0.15136   0.00000  Uiso   1.00
C74    C     0.58827   0.11700   0.14311   0.00000  Uiso   1.00
C75    C     0.88383   0.17241   0.16667   0.00000  Uiso   1.00
C76    C     0.61600   0.16225   0.16930   0.00000  Uiso   1.00
C77    C     0.90269   0.12694   0.14071   0.00000  Uiso   1.00
C78    C     0.59830   0.20645   0.20107   0.00000  Uiso   1.00
C79    C     0.94869   0.12198   0.14880   0.00000  Uiso   1.00
C80    C     0.55213   0.20884   0.20598   0.00000  Uiso   1.00
C81    C     0.97672   0.16681   0.17849   0.00000  Uiso   1.00
C82    C     0.52353   0.16413   0.17935   0.00000  Uiso   1.00
C83    C     0.95799   0.21431   0.20597   0.00000  Uiso   1.00
C84    C     0.75157   0.26659   0.18196   0.00000  Uiso   1.00
C85    C     0.54190   0.11669   0.15275   0.00000  Uiso   1.00
C86    C     0.96664   0.07231   0.13113   0.00000  Uiso   1.00
C87    C     0.53448   0.25460   0.23819   0.00000  Uiso   1.00
C88    C     0.88667   0.26750   0.21962   0.00000  Uiso   1.00
C89    C     0.87575   0.27612   0.28636   0.00000  Uiso   1.00
C90    C     0.60728   0.07333   0.09853   0.00000  Uiso   1.00
C91    C     0.63704   0.03914   0.13032   0.00000  Uiso   1.00
C92    C     0.93429   0.02337   0.10797   0.00000  Uiso   1.00
C93    C     0.95210   0.30246   0.10301   0.00000  Uiso   1.00
C94    C     0.56600   0.30124   0.27073   0.00000  Uiso   1.00
C95    C     0.51359   0.07004   0.13780   0.00000  Uiso   1.00
C96    C     0.59034   0.28936   0.32823   0.00000  Uiso   1.00
C97    C     0.98750   0.25641   0.24030   0.00000  Uiso   1.00
C98    C     0.75034   0.01112   0.14271   0.00000  Uiso   1.00
C99    C     0.75267   0.32238   0.19069   0.00000  Uiso   1.00
C100   C     0.66448   0.16446   0.16708   0.00000  Uiso   1.00
C101   C     0.83539   0.16930   0.16645   0.00000  Uiso   1.00
C102   C     0.91029   0.21706   0.19917   0.00000  Uiso   1.00
Cu103  Cu    0.75500   0.17246   0.22813   0.00000  Uiso   1.00
Cu104  Cu    0.74499   0.16087   0.10521   0.00000  Uiso   1.00
H105   H     0.88004   0.09470   0.11605   0.00000  Uiso   1.00
H106   H     0.90632   0.30185   0.21156   0.00000  Uiso   1.00
H107   H     0.85499   0.26761   0.19057   0.00000  Uiso   1.00
H108   H     0.65397   0.06136   0.17449   0.00000  Uiso   1.00
H109   H     0.61759   0.00467   0.13866   0.00000  Uiso   1.00
H110   H     0.66301   0.02389   0.10007   0.00000  Uiso   1.00
H111   H     0.58023   0.04926   0.06763   0.00000  Uiso   1.00
H112   H     0.62687   0.09031   0.06658   0.00000  Uiso   1.00
H113   H     0.97608   0.29422   0.06787   0.00000  Uiso   1.00
H114   H     0.96825   0.29898   0.14762   0.00000  Uiso   1.00
H115   H     0.92376   0.27218   0.09040   0.00000  Uiso   1.00
H116   H     0.62188   0.23930   0.22044   0.00000  Uiso   1.00
H117   H     0.90760   0.02447   0.13981   0.00000  Uiso   1.00
H118   H     0.91831   0.02551   0.06237   0.00000  Uiso   1.00
H119   H     0.56751   0.29299   0.03198   0.00000  Uiso   1.00
H120   H     0.60215   0.24925   0.32063   0.00000  Uiso   1.00
H121   H     0.62025   0.31695   0.00906   0.00000  Uiso   1.00
H122   H     0.54915   0.00488   0.28307   0.00000  Uiso   1.00
H123   H     0.59044   0.31115   0.23956   0.00000  Uiso   1.00
H124   H     0.55291   0.02731   0.17280   0.00000  Uiso   1.00
H125   H     0.98947   0.31173   0.31314   0.00000  Uiso   1.00
H126   H     0.74790   0.32135   0.09615   0.00000  Uiso   1.00
H127   H     0.75513   0.01215   0.23725   0.00000  Uiso   1.00
H128   H     0.71515   0.12585   0.31647   0.00000  Uiso   1.00
H129   H     0.78483   0.20750   0.01688   0.00000  Uiso   1.00
H130   H     0.90324   0.26469   0.31569   0.00000  Uiso   1.00
H131   H     0.87013   0.31801   0.30342   0.00000  Uiso   1.00
H132   H     0.84475   0.25300   0.29075   0.00000  Uiso   1.00
N133   N     0.73744   0.15214   0.01284   0.00000  Uiso   1.00
N134   N     0.76255   0.18119   0.32049   0.00000  Uiso   1.00
O135   O     0.75325   0.09538   0.20659   0.00000  Uiso   1.00
O136   O     0.97013   0.29950   0.27469   0.00000  Uiso   1.00
O137   O     0.74674   0.23796   0.12674   0.00000  Uiso   1.00
O138   O     0.74480   0.08559   0.10279   0.00000  Uiso   1.00
O139   O     0.75520   0.24774   0.23055   0.00000  Uiso   1.00
O140   O     0.68935   0.17155   0.21857   0.00000  Uiso   1.00
O141   O     0.81064   0.16179   0.11476   0.00000  Uiso   1.00
O142   O     0.68090   0.16176   0.11477   0.00000  Uiso   1.00
O143   O     0.81910   0.17157   0.21857   0.00000  Uiso   1.00
O144   O     0.53146   0.02260   0.13597   0.00000  Uiso   1.00
C145   C     0.24981   0.40017   0.15136   0.00000  Uiso   1.00
C146   C     0.08827   0.45034   0.14311   0.00000  Uiso   1.00
C147   C     0.38383   0.50574   0.16667   0.00000  Uiso   1.00
C148   C     0.11600   0.49558   0.16930   0.00000  Uiso   1.00
C149   C     0.40269   0.46028   0.14071   0.00000  Uiso   1.00
C150   C     0.09830   0.53978   0.20107   0.00000  Uiso   1.00
C151   C     0.44869   0.45531   0.14880   0.00000  Uiso   1.00
C152   C     0.05213   0.54218   0.20598   0.00000  Uiso   1.00
C153   C     0.47672   0.50014   0.17849   0.00000  Uiso   1.00
C154   C     0.02353   0.49747   0.17935   0.00000  Uiso   1.00
C155   C     0.45799   0.54764   0.20597   0.00000  Uiso   1.00
C156   C     0.25157   0.59993   0.18196   0.00000  Uiso   1.00
C157   C     0.04190   0.45002   0.15275   0.00000  Uiso   1.00
C158   C     0.46664   0.40564   0.13113   0.00000  Uiso   1.00
C159   C     0.03448   0.58793   0.23819   0.00000  Uiso   1.00
C160   C     0.38667   0.60083   0.21962   0.00000  Uiso   1.00
C161   C     0.37575   0.60945   0.28636   0.00000  Uiso   1.00
C162   C     0.10728   0.40666   0.09853   0.00000  Uiso   1.00
C163   C     0.13704   0.37248   0.13032   0.00000  Uiso   1.00
C164   C     0.43429   0.35670   0.10797   0.00000  Uiso   1.00
C165   C     0.45210   0.63580   0.10301   0.00000  Uiso   1.00
C166   C     0.06600   0.63458   0.27073   0.00000  Uiso   1.00
C167   C     0.01359   0.40337   0.13780   0.00000  Uiso   1.00
C168   C     0.09034   0.62269   0.32823   0.00000  Uiso   1.00
C169   C     0.48750   0.58974   0.24030   0.00000  Uiso   1.00
C170   C     0.25034   0.34446   0.14271   0.00000  Uiso   1.00
C171   C     0.25267   0.65571   0.19069   0.00000  Uiso   1.00
C172   C     0.16448   0.49779   0.16708   0.00000  Uiso   1.00
C173   C     0.33539   0.50263   0.16645   0.00000  Uiso   1.00
C174   C     0.41029   0.55040   0.19917   0.00000  Uiso   1.00
Cu175  Cu    0.25500   0.50579   0.22813   0.00000  Uiso   1.00
Cu176  Cu    0.24499   0.49421   0.10521   0.00000  Uiso   1.00
H177   H     0.38004   0.42803   0.11605   0.00000  Uiso   1.00
H178   H     0.40632   0.63518   0.21156   0.00000  Uiso   1.00
H179   H     0.35499   0.60094   0.19057   0.00000  Uiso   1.00
H180   H     0.15397   0.39469   0.17449   0.00000  Uiso   1.00
H181   H     0.11759   0.33800   0.13866   0.00000  Uiso   1.00
H182   H     0.16301   0.35722   0.10007   0.00000  Uiso   1.00
H183   H     0.08023   0.38259   0.06763   0.00000  Uiso   1.00
H184   H     0.12687   0.42365   0.06658   0.00000  Uiso   1.00
H185   H     0.47608   0.62755   0.06787   0.00000  Uiso   1.00
H186   H     0.46825   0.63232   0.14762   0.00000  Uiso   1.00
H187   H     0.42376   0.60552   0.09040   0.00000  Uiso   1.00
H188   H     0.12188   0.57264   0.22044   0.00000  Uiso   1.00
H189   H     0.40760   0.35781   0.13981   0.00000  Uiso   1.00
H190   H     0.41831   0.35885   0.06237   0.00000  Uiso   1.00
H191   H     0.06751   0.62632   0.03198   0.00000  Uiso   1.00
H192   H     0.10215   0.58258   0.32063   0.00000  Uiso   1.00
H193   H     0.12025   0.65028   0.00906   0.00000  Uiso   1.00
H194   H     0.04915   0.33821   0.28307   0.00000  Uiso   1.00
H195   H     0.09044   0.64448   0.23956   0.00000  Uiso   1.00
H196   H     0.05291   0.36064   0.17280   0.00000  Uiso   1.00
H197   H     0.48947   0.64507   0.31314   0.00000  Uiso   1.00
H198   H     0.24790   0.65468   0.09615   0.00000  Uiso   1.00
H199   H     0.25513   0.34548   0.23725   0.00000  Uiso   1.00
H200   H     0.21515   0.45918   0.31647   0.00000  Uiso   1.00
H201   H     0.28483   0.54083   0.01688   0.00000  Uiso   1.00
H202   H     0.40324   0.59802   0.31569   0.00000  Uiso   1.00
H203   H     0.37013   0.65135   0.30342   0.00000  Uiso   1.00
H204   H     0.34475   0.58634   0.29075   0.00000  Uiso   1.00
N205   N     0.23744   0.48547   0.01284   0.00000  Uiso   1.00
N206   N     0.26255   0.51453   0.32049   0.00000  Uiso   1.00
O207   O     0.25325   0.42871   0.20659   0.00000  Uiso   1.00
O208   O     0.47013   0.63284   0.27469   0.00000  Uiso   1.00
O209   O     0.24674   0.57129   0.12674   0.00000  Uiso   1.00
O210   O     0.24480   0.41892   0.10279   0.00000  Uiso   1.00
O211   O     0.25520   0.58108   0.23055   0.00000  Uiso   1.00
O212   O     0.18935   0.50488   0.21857   0.00000  Uiso   1.00
O213   O     0.31064   0.49512   0.11476   0.00000  Uiso   1.00
O214   O     0.18090   0.49510   0.11477   0.00000  Uiso   1.00
O215   O     0.31910   0.50490   0.21857   0.00000  Uiso   1.00
O216   O     0.03146   0.35594   0.13597   0.00000  Uiso   1.00
C217   C     0.74981   0.40017   0.15136   0.00000  Uiso   1.00
C218   C     0.58827   0.45034   0.14311   0.00000  Uiso   1.00
C219   C     0.88383   0.50574   0.16667   0.00000  Uiso   1.00
C220   C     0.61600   0.49558   0.16930   0.00000  Uiso   1.00
C221   C     0.90269   0.46028   0.14071   0.00000  Uiso   1.00
C222   C     0.59830   0.53978   0.20107   0.00000  Uiso   1.00
C223   C     0.94869   0.45531   0.14880   0.00000  Uiso   1.00
C224   C     0.55213   0.54218   0.20598   0.00000  Uiso   1.00
C225   C     0.97672   0.50014   0.17849   0.00000  Uiso   1.00
C226   C     0.52353   0.49747   0.17935   0.00000  Uiso   1.00
C227   C     0.95799   0.54764   0.20597   0.00000  Uiso   1.00
C228   C     0.75157   0.59993   0.18196   0.00000  Uiso   1.00
C229   C     0.54190   0.45002   0.15275   0.00000  Uiso   1.00
C230   C     0.96664   0.40564   0.13113   0.00000  Uiso   1.00
C231   C     0.53448   0.58793   0.23819   0.00000  Uiso   1.00
C232   C     0.88667   0.60083   0.21962   0.00000  Uiso   1.00
C233   C     0.87575   0.60945   0.28636   0.00000  Uiso   1.00
C234   C     0.60728   0.40666   0.09853   0.00000  Uiso   1.00
C235   C     0.63704   0.37248   0.13032   0.00000  Uiso   1.00
C236   C     0.93429   0.35670   0.10797   0.00000  Uiso   1.00
C237   C     0.95210   0.63580   0.10301   0.00000  Uiso   1.00
C238   C     0.56600   0.63458   0.27073   0.00000  Uiso   1.00
C239   C     0.51359   0.40337   0.13780   0.00000  Uiso   1.00
C240   C     0.59034   0.62269   0.32823   0.00000  Uiso   1.00
C241   C     0.98750   0.58974   0.24030   0.00000  Uiso   1.00
C242   C     0.75034   0.34446   0.14271   0.00000  Uiso   1.00
C243   C     0.75267   0.65571   0.19069   0.00000  Uiso   1.00
C244   C     0.66448   0.49779   0.16708   0.00000  Uiso   1.00
C245   C     0.83539   0.50263   0.16645   0.00000  Uiso   1.00
C246   C     0.91029   0.55040   0.19917   0.00000  Uiso   1.00
Cu247  Cu    0.75500   0.50579   0.22813   0.00000  Uiso   1.00
Cu248  Cu    0.74499   0.49421   0.10521   0.00000  Uiso   1.00
H249   H     0.88004   0.42803   0.11605   0.00000  Uiso   1.00
H250   H     0.90632   0.63518   0.21156   0.00000  Uiso   1.00
H251   H     0.85499   0.60094   0.19057   0.00000  Uiso   1.00
H252   H     0.65397   0.39469   0.17449   0.00000  Uiso   1.00
H253   H     0.61759   0.33800   0.13866   0.00000  Uiso   1.00
H254   H     0.66301   0.35722   0.10007   0.00000  Uiso   1.00
H255   H     0.58023   0.38259   0.06763   0.00000  Uiso   1.00
H256   H     0.62687   0.42365   0.06658   0.00000  Uiso   1.00
H257   H     0.97608   0.62755   0.06787   0.00000  Uiso   1.00
H258   H     0.96825   0.63232   0.14762   0.00000  Uiso   1.00
H259   H     0.92376   0.60552   0.09040   0.00000  Uiso   1.00
H260   H     0.62188   0.57264   0.22044   0.00000  Uiso   1.00
H261   H     0.90760   0.35781   0.13981   0.00000  Uiso   1.00
H262   H     0.91831   0.35885   0.06237   0.00000  Uiso   1.00
H263   H     0.56751   0.62632   0.03198   0.00000  Uiso   1.00
H264   H     0.60215   0.58258   0.32063   0.00000  Uiso   1.00
H265   H     0.62025   0.65028   0.00906   0.00000  Uiso   1.00
H266   H     0.54915   0.33821   0.28307   0.00000  Uiso   1.00
H267   H     0.59044   0.64448   0.23956   0.00000  Uiso   1.00
H268   H     0.55291   0.36064   0.17280   0.00000  Uiso   1.00
H269   H     0.98947   0.64507   0.31314   0.00000  Uiso   1.00
H270   H     0.74790   0.65468   0.09615   0.00000  Uiso   1.00
H271   H     0.75513   0.34548   0.23725   0.00000  Uiso   1.00
H272   H     0.71515   0.45918   0.31647   0.00000  Uiso   1.00
H273   H     0.78483   0.54083   0.01688   0.00000  Uiso   1.00
H274   H     0.90324   0.59802   0.31569   0.00000  Uiso   1.00
H275   H     0.87013   0.65135   0.30342   0.00000  Uiso   1.00
H276   H     0.84475   0.58634   0.29075   0.00000  Uiso   1.00
N277   N     0.73744   0.48547   0.01284   0.00000  Uiso   1.00
N278   N     0.76255   0.51453   0.32049   0.00000  Uiso   1.00
O279   O     0.75325   0.42871   0.20659   0.00000  Uiso   1.00
O280   O     0.97013   0.63284   0.27469   0.00000  Uiso   1.00
O281   O     0.74674   0.57129   0.12674   0.00000  Uiso   1.00
O282   O     0.74480   0.41892   0.10279   0.00000  Uiso   1.00
O283   O     0.75520   0.58108   0.23055   0.00000  Uiso   1.00
O284   O     0.68935   0.50488   0.21857   0.00000  Uiso   1.00
O285   O     0.81064   0.49512   0.11476   0.00000  Uiso   1.00
O286   O     0.68090   0.49510   0.11477   0.00000  Uiso   1.00
O287   O     0.81910   0.50490   0.21857   0.00000  Uiso   1.00
O288   O     0.53146   0.35594   0.13597   0.00000  Uiso   1.00
C289   C     0.24981   0.73350   0.15136   0.00000  Uiso   1.00
C290   C     0.08827   0.78367   0.14311   0.00000  Uiso   1.00
C291   C     0.38383   0.83907   0.16667   0.00000  Uiso   1.00
C292   C     0.11600   0.82892   0.16930   0.00000  Uiso   1.00
C293   C     0.40269   0.79361   0.14071   0.00000  Uiso   1.00
C294   C     0.09830   0.87311   0.20107   0.00000  Uiso   1.00
C295   C     0.44869   0.78864   0.14880   0.00000  Uiso   1.00
C296   C     0.05213   0.87551   0.20598   0.00000  Uiso   1.00
C297   C     0.47672   0.83347   0.17849   0.00000  Uiso   1.00
C298   C     0.02353   0.83080   0.17935   0.00000  Uiso   1.00
C299   C     0.45799   0.88098   0.20597   0.00000  Uiso   1.00
C300   C     0.25157   0.93326   0.18196   0.00000  Uiso   1.00
C301   C     0.04190   0.78335   0.15275   0.00000  Uiso   1.00
C302   C     0.46664   0.73898   0.13113   0.00000  Uiso   1.00
C303   C     0.03448   0.92126   0.23819   0.00000  Uiso   1.00
C304   C     0.38667   0.93417   0.21962   0.00000  Uiso   1.00
C305   C     0.37575   0.94278   0.28636   0.00000  Uiso   1.00
C306   C     0.10728   0.73999   0.09853   0.00000  Uiso   1.00
C307   C     0.13704   0.70581   0.13032   0.00000  Uiso   1.00
C308   C     0.43429   0.69004   0.10797   0.00000  Uiso   1.00
C309   C     0.45210   0.96913   0.10301   0.00000  Uiso   1.00
C310   C     0.06600   0.96791   0.27073   0.00000  Uiso   1.00
C311   C     0.01359   0.73671   0.13780   0.00000  Uiso   1.00
C312   C     0.09034   0.95602   0.32823   0.00000  Uiso   1.00
C313   C     0.48750   0.92308   0.24030   0.00000  Uiso   1.00
C314   C     0.25034   0.67779   0.14271   0.00000  Uiso   1.00
C315   C     0.25267   0.98905   0.19069   0.00000  Uiso   1.00
C316   C     0.16448   0.83112   0.16708   0.00000  Uiso   1.00
C317   C     0.33539   0.83596   0.16645   0.00000  Uiso   1.00
C318   C     0.41029   0.88373   0.19917   0.00000  Uiso   1.00
Cu319  Cu    0.25500   0.83913   0.22813   0.00000  Uiso   1.00
Cu320  Cu    0.24499   0.82754   0.10521   0.00000  Uiso   1.00
H321   H     0.38004   0.76137   0.11605   0.00000  Uiso   1.00
H322   H     0.40632   0.96851   0.21156   0.00000  Uiso   1.00
H323   H     0.35499   0.93427   0.19057   0.00000  Uiso   1.00
H324   H     0.15397   0.72802   0.17449   0.00000  Uiso   1.00
H325   H     0.11759   0.67134   0.13866   0.00000  Uiso   1.00
H326   H     0.16301   0.69056   0.10007   0.00000  Uiso   1.00
H327   H     0.08023   0.71592   0.06763   0.00000  Uiso   1.00
H328   H     0.12687   0.75698   0.06658   0.00000  Uiso   1.00
H329   H     0.47608   0.96089   0.06787   0.00000  Uiso   1.00
H330   H     0.46825   0.96565   0.14762   0.00000  Uiso   1.00
H331   H     0.42376   0.93885   0.09040   0.00000  Uiso   1.00
H332   H     0.12188   0.90597   0.22044   0.00000  Uiso   1.00
H333   H     0.40760   0.69114   0.13981   0.00000  Uiso   1.00
H334   H     0.41831   0.69218   0.06237   0.00000  Uiso   1.00
H335   H     0.06751   0.95966   0.03198   0.00000  Uiso   1.00
H336   H     0.10215   0.91592   0.32063   0.00000  Uiso   1.00
H337   H     0.12025   0.98362   0.00906   0.00000  Uiso   1.00
H338   H     0.04915   0.67154   0.28307   0.00000  Uiso   1.00
H339   H     0.09044   0.97781   0.23956   0.00000  Uiso   1.00
H340   H     0.05291   0.69397   0.17280   0.00000  Uiso   1.00
H341   H     0.48947   0.97840   0.31314   0.00000  Uiso   1.00
H342   H     0.24790   0.98801   0.09615   0.00000  Uiso   1.00
H343   H     0.25513   0.67881   0.23725   0.00000  Uiso   1.00
H344   H     0.21515   0.79251   0.31647   0.00000  Uiso   1.00
H345   H     0.28483   0.87416   0.01688   0.00000  Uiso   1.00
H346   H     0.40324   0.93135   0.31569   0.00000  Uiso   1.00
H347   H     0.37013   0.98468   0.30342   0.00000  Uiso   1.00
H348   H     0.34475   0.91967   0.29075   0.00000  Uiso   1.00
N349   N     0.23744   0.81881   0.01284   0.00000  Uiso   1.00
N350   N     0.26255   0.84786   0.32049   0.00000  Uiso   1.00
O351   O     0.25325   0.76204   0.20659   0.00000  Uiso   1.00
O352   O     0.47013   0.96617   0.27469   0.00000  Uiso   1.00
O353   O     0.24674   0.90462   0.12674   0.00000  Uiso   1.00
O354   O     0.24480   0.75226   0.10279   0.00000  Uiso   1.00
O355   O     0.25520   0.91441   0.23055   0.00000  Uiso   1.00
O356   O     0.18935   0.83821   0.21857   0.00000  Uiso   1.00
O357   O     0.31064   0.82845   0.11476   0.00000  Uiso   1.00
O358   O     0.18090   0.82843   0.11477   0.00000  Uiso   1.00
O359   O     0.31910   0.83824   0.21857   0.00000  Uiso   1.00
O360   O     0.03146   0.68927   0.13597   0.00000  Uiso   1.00
C361   C     0.74981   0.73350   0.15136   0.00000  Uiso   1.00
C362   C     0.58827   0.78367   0.14311   0.00000  Uiso   1.00
C363   C     0.88383   0.83907   0.16667   0.00000  Uiso   1.00
C364   C     0.61600   0.82892   0.16930   0.00000  Uiso   1.00
C365   C     0.90269   0.79361   0.14071   0.00000  Uiso   1.00
C366   C     0.59830   0.87311   0.20107   0.00000  Uiso   1.00
C367   C     0.94869   0.78864   0.14880   0.00000  Uiso   1.00
C368   C     0.55213   0.87551   0.20598   0.00000  Uiso   1.00
C369   C     0.97672   0.83347   0.17849   0.00000  Uiso   1.00
C370   C     0.52353   0.83080   0.17935   0.00000  Uiso   1.00
C371   C     0.95799   0.88098   0.20597   0.00000  Uiso   1.00
C372   C     0.75157   0.93326   0.18196   0.00000  Uiso   1.00
C373   C     0.54190   0.78335   0.15275   0.00000  Uiso   1.00
C374   C     0.96664   0.73898   0.13113   0.00000  Uiso   1.00
C375   C     0.53448   0.92126   0.23819   0.00000  Uiso   1.00
C376   C     0.88667   0.93417   0.21962   0.00000  Uiso   1.00
C377   C     0.87575   0.94278   0.28636   0.00000  Uiso   1.00
C378   C     0.60728   0.73999   0.09853   0.00000  Uiso   1.00
C379   C     0.63704   0.70581   0.13032   0.00000  Uiso   1.00
C380   C     0.93429   0.69004   0.10797   0.00000  Uiso   1.00
C381   C     0.95210   0.96913   0.10301   0.00000  Uiso   1.00
C382   C     0.56600   0.96791   0.27073   0.00000  Uiso   1.00
C383   C     0.51359   0.73671   0.13780   0.00000  Uiso   1.00
C384   C     0.59034   0.95602   0.32823   0.00000  Uiso   1.00
C385   C     0.98750   0.92308   0.24030   0.00000  Uiso   1.00
C386   C     0.75034   0.67779   0.14271   0.00000  Uiso   1.00
C387   C     0.75267   0.98905   0.19069   0.00000  Uiso   1.00
C388   C     0.66448   0.83112   0.16708   0.00000  Uiso   1.00
C389   C     0.83539   0.83596   0.16645   0.00000  Uiso   1.00
C390   C     0.91029   0.88373   0.19917   0.00000  Uiso   1.00
Cu391  Cu    0.75500   0.83913   0.22813   0.00000  Uiso   1.00
Cu392  Cu    0.74499   0.82754   0.10521   0.00000  Uiso   1.00
H393   H     0.88004   0.76137   0.11605   0.00000  Uiso   1.00
H394   H     0.90632   0.96851   0.21156   0.00000  Uiso   1.00
H395   H     0.85499   0.93427   0.19057   0.00000  Uiso   1.00
H396   H     0.65397   0.72802   0.17449   0.00000  Uiso   1.00
H397   H     0.61759   0.67134   0.13866   0.00000  Uiso   1.00
H398   H     0.66301   0.69056   0.10007   0.00000  Uiso   1.00
H399   H     0.58023   0.71592   0.06763   0.00000  Uiso   1.00
H400   H     0.62687   0.75698   0.06658   0.00000  Uiso   1.00
H401   H     0.97608   0.96089   0.06787   0.00000  Uiso   1.00
H402   H     0.96825   0.96565   0.14762   0.00000  Uiso   1.00
H403   H     0.92376   0.93885   0.09040   0.00000  Uiso   1.00
H404   H     0.62188   0.90597   0.22044   0.00000  Uiso   1.00
H405   H     0.90760   0.69114   0.13981   0.00000  Uiso   1.00
H406   H     0.91831   0.69218   0.06237   0.00000  Uiso   1.00
H407   H     0.56751   0.95966   0.03198   0.00000  Uiso   1.00
H408   H     0.60215   0.91592   0.32063   0.00000  Uiso   1.00
H409   H     0.62025   0.98362   0.00906   0.00000  Uiso   1.00
H410   H     0.54915   0.67154   0.28307   0.00000  Uiso   1.00
H411   H     0.59044   0.97781   0.23956   0.00000  Uiso   1.00
H412   H     0.55291   0.69397   0.17280   0.00000  Uiso   1.00
H413   H     0.98947   0.97840   0.31314   0.00000  Uiso   1.00
H414   H     0.74790   0.98801   0.09615   0.00000  Uiso   1.00
H415   H     0.75513   0.67881   0.23725   0.00000  Uiso   1.00
H416   H     0.71515   0.79251   0.31647   0.00000  Uiso   1.00
H417   H     0.78483   0.87416   0.01688   0.00000  Uiso   1.00
H418   H     0.90324   0.93135   0.31569   0.00000  Uiso   1.00
H419   H     0.87013   0.98468   0.30342   0.00000  Uiso   1.00
H420   H     0.84475   0.91967   0.29075   0.00000  Uiso   1.00
N421   N     0.73744   0.81881   0.01284   0.00000  Uiso   1.00
N422   N     0.76255   0.84786   0.32049   0.00000  Uiso   1.00
O423   O     0.75325   0.76204   0.20659   0.00000  Uiso   1.00
O424   O     0.97013   0.96617   0.27469   0.00000  Uiso   1.00
O425   O     0.74674   0.90462   0.12674   0.00000  Uiso   1.00
O426   O     0.74480   0.75226   0.10279   0.00000  Uiso   1.00
O427   O     0.75520   0.91441   0.23055   0.00000  Uiso   1.00
O428   O     0.68935   0.83821   0.21857   0.00000  Uiso   1.00
O429   O     0.81064   0.82845   0.11476   0.00000  Uiso   1.00
O430   O     0.68090   0.82843   0.11477   0.00000  Uiso   1.00
O431   O     0.81910   0.83824   0.21857   0.00000  Uiso   1.00
O432   O     0.53146   0.68927   0.13597   0.00000  Uiso   1.00
C433   C     0.24981   0.06683   0.48470   0.00000  Uiso   1.00
C434   C     0.08827   0.11700   0.47644   0.00000  Uiso   1.00
C435   C     0.38383   0.17241   0.50001   0.00000  Uiso   1.00
C436   C     0.11600   0.16225   0.50263   0.00000  Uiso   1.00
C437   C     0.40269   0.12694   0.47405   0.00000  Uiso   1.00
C438   C     0.09830   0.20645   0.53440   0.00000  Uiso   1.00
C439   C     0.44869   0.12198   0.48214   0.00000  Uiso   1.00
C440   C     0.05213   0.20884   0.53931   0.00000  Uiso   1.00
C441   C     0.47672   0.16681   0.51182   0.00000  Uiso   1.00
C442   C     0.02353   0.16413   0.51268   0.00000  Uiso   1.00
C443   C     0.45799   0.21431   0.53930   0.00000  Uiso   1.00
C444   C     0.25157   0.26659   0.51530   0.00000  Uiso   1.00
C445   C     0.04190   0.11669   0.48609   0.00000  Uiso   1.00
C446   C     0.46664   0.07231   0.46447   0.00000  Uiso   1.00
C447   C     0.03448   0.25460   0.57152   0.00000  Uiso   1.00
C448   C     0.38667   0.26750   0.55295   0.00000  Uiso   1.00
C449   C     0.37575   0.27612   0.61969   0.00000  Uiso   1.00
C450   C     0.10728   0.07333   0.43187   0.00000  Uiso   1.00
C451   C     0.13704   0.03914   0.46365   0.00000  Uiso   1.00
C452   C     0.43429   0.02337   0.44131   0.00000  Uiso   1.00
C453   C     0.45210   0.30246   0.43635   0.00000  Uiso   1.00
C454   C     0.06600   0.30124   0.60406   0.00000  Uiso   1.00
C455   C     0.01359   0.07004   0.47113   0.00000  Uiso   1.00
C456   C     0.09034   0.28936   0.66156   0.00000  Uiso   1.00
C457   C     0.48750   0.25641   0.57363   0.00000  Uiso   1.00
C458   C     0.25034   0.01112   0.47604   0.00000  Uiso   1.00
C459   C     0.25267   0.32238   0.52402   0.00000  Uiso   1.00
C460   C     0.16448   0.16446   0.50041   0.00000  Uiso   1.00
C461   C     0.33539   0.16930   0.49978   0.00000  Uiso   1.00
C462   C     0.41029   0.21706   0.53250   0.00000  Uiso   1.00
Cu463  Cu    0.25500   0.17246   0.56146   0.00000  Uiso   1.00
Cu464  Cu    0.24499   0.16087   0.43854   0.00000  Uiso   1.00
H465   H     0.38004   0.09470   0.44938   0.00000  Uiso   1.00
H466   H     0.40632   0.30185   0.54489   0.00000  Uiso   1.00
H467   H     0.35499   0.26761   0.52390   0.00000  Uiso   1.00
H468   H     0.15397   0.06136   0.50782   0.00000  Uiso   1.00
H469   H     0.11759   0.00467   0.47199   0.00000  Uiso   1.00
H470   H     0.16301   0.02389   0.43340   0.00000  Uiso   1.00
H471   H     0.08023   0.04926   0.40096   0.00000  Uiso   1.00
H472   H     0.12687   0.09031   0.39991   0.00000  Uiso   1.00
H473   H     0.47608   0.29422   0.40121   0.00000  Uiso   1.00
H474   H     0.46825   0.29898   0.48096   0.00000  Uiso   1.00
H475   H     0.42376   0.27218   0.42373   0.00000  Uiso   1.00
H476   H     0.12188   0.23930   0.55377   0.00000  Uiso   1.00
H477   H     0.40760   0.02447   0.47314   0.00000  Uiso   1.00
H478   H     0.41831   0.02551   0.39570   0.00000  Uiso   1.00
H479   H     0.06751   0.29299   0.36532   0.00000  Uiso   1.00
H480   H     0.10215   0.24925   0.65396   0.00000  Uiso   1.00
H481   H     0.12025   0.31695   0.34239   0.00000  Uiso   1.00
H482   H     0.04915   0.00488   0.61641   0.00000  Uiso   1.00
H483   H     0.09044   0.31115   0.57289   0.00000  Uiso   1.00
H484   H     0.05291   0.02731   0.50613   0.00000  Uiso   1.00
H485   H     0.48947   0.31173   0.64647   0.00000  Uiso   1.00
H486   H     0.24790   0.32135   0.42949   0.00000  Uiso   1.00
H487   H     0.25513   0.01215   0.57058   0.00000  Uiso   1.00
H488   H     0.21515   0.12585   0.64980   0.00000  Uiso   1.00
H489   H     0.28483   0.20750   0.35022   0.00000  Uiso   1.00
H490   H     0.40324   0.26469   0.64903   0.00000  Uiso   1.00
H491   H     0.37013   0.31801   0.63675   0.00000  Uiso   1.00
H492   H     0.34475   0.25300   0.62408   0.00000  Uiso   1.00
N493   N     0.23744   0.15214   0.34617   0.00000  Uiso   1.00
N494   N     0.26255   0.18119   0.65383   0.00000  Uiso   1.00
O495   O     0.25325   0.09538   0.53992   0.00000  Uiso   1.00
O496   O     0.47013   0.29950   0.60803   0.00000  Uiso   1.00
O497   O     0.24674   0.23796   0.46008   0.00000  Uiso   1.00
O498   O     0.24480   0.08559   0.43612   0.00000  Uiso   1.00
O499   O     0.25520   0.24774   0.56388   0.00000  Uiso   1.00
O500   O     0.18935   0.17155   0.55191   0.00000  Uiso   1.00
O501   O     0.31064   0.16179   0.44809   0.00000  Uiso   1.00
O502   O     0.18090   0.16176   0.44810   0.00000  Uiso   1.00
O503   O     0.31910   0.17157   0.55190   0.00000  Uiso   1.00
O504   O     0.03146   0.02260   0.46930   0.00000  Uiso   1.00
C505   C     0.74981   0.06683   0.48470   0.00000  Uiso   1.00
C506   C     0.58827   0.11700   0.47644   0.00000  Uiso   1.00
C507   C     0.88383   0.17241   0.50001   0.00000  Uiso   1.00
C508   C     0.61600   0.16225   0.50263   0.00000  Uiso   1.00
C509   C     0.90269   0.12694   0.47405   0.00000  Uiso   1.00
C510   C     0.59830   0.20645   0.53440   0.00000  Uiso   1.00
C511   C     0.94869   0.12198   0.48214   0.00000  Uiso   1.00
C512   C     0.55213   0.20884   0.53931   0.00000  Uiso   1.00
C513   C     0.97672   0.16681   0.51182   0.00000  Uiso   1.00
C514   C     0.52353   0.16413   0.51268   0.00000  Uiso   1.00
C515   C     0.95799   0.21431   0.53930   0.00000  Uiso   1.00
C516   C     0.75157   0.26659   0.51530   0.00000  Uiso   1.00
C517   C     0.54190   0.11669   0.48609   0.00000  Uiso   1.00
C518   C     0.96664   0.07231   0.46447   0.00000  Uiso   1.00
C519   C     0.53448   0.25460   0.57152   0.00000  Uiso   1.00
C520   C     0.88667   0.26750   0.55295   0.00000  Uiso   1.00
C521   C     0.87575   0.27612   0.61969   0.00000  Uiso   1.00
C522   C     0.60728   0.07333   0.43187   0.00000  Uiso   1.00
C523   C     0.63704   0.03914   0.46365   0.00000  Uiso   1.00
C524   C     0.93429   0.02337   0.44131   0.00000  Uiso   1.00
C525   C     0.95210   0.30246   0.43635   0.00000  Uiso   1.00
C526   C     0.56600   0.30124   0.60406   0.00000  Uiso   1.00
C527   C     0.51359   0.07004   0.47113   0.00000  Uiso   1.00
C528   C     0.59034   0.28936   0.66156   0.00000  Uiso   1.00
C529   C     0.98750   0.25641   0.57363   0.00000  Uiso   1.00
C530   C     0.75034   0.01112   0.47604   0.00000  Uiso   1.00
C531   C     0.75267   0.32238   0.52402   0.00000  Uiso   1.00
C532   C     0.66448   0.16446   0.50041   0.00000  Uiso   1.00
C533   C     0.83539   0.16930   0.49978   0.00000  Uiso   1.00
C534   C     0.91029   0.21706   0.53250   0.00000  Uiso   1.00
Cu535  Cu    0.75500   0.17246   0.56146   0.00000  Uiso   1.00
Cu536  Cu    0.74499   0.16087   0.43854   0.00000  Uiso   1.00
H537   H     0.88004   0.09470   0.44938   0.00000  Uiso   1.00
H538   H     0.90632   0.30185   0.54489   0.00000  Uiso   1.00
H539   H     0.85499   0.26761   0.52390   0.00000  Uiso   1.00
H540   H     0.65397   0.06136   0.50782   0.00000  Uiso   1.00
H541   H     0.61759   0.00467   0.47199   0.00000  Uiso   1.00
H542   H     0.66301   0.02389   0.43340   0.00000  Uiso   1.00
H543   H     0.58023   0.04926   0.40096   0.00000  Uiso   1.00
H544   H     0.62687   0.09031   0.39991   0.00000  Uiso   1.00
H545   H     0.97608   0.29422   0.40121   0.00000  Uiso   1.00
H546   H     0.96825   0.29898   0.48096   0.00000  Uiso   1.00
H547   H     0.92376   0.27218   0.42373   0.00000  Uiso   1.00
H548   H     0.62188   0.23930   0.55377   0.00000  Uiso   1.00
H549   H     0.90760   0.02447   0.47314   0.00000  Uiso   1.00
H550   H     0.91831   0.02551   0.39570   0.00000  Uiso   1.00
H551   H     0.56751   0.29299   0.36532   0.00000  Uiso   1.00
H552   H     0.60215   0.24925   0.65396   0.00000  Uiso   1.00
H553   H     0.62025   0.31695   0.34239   0.00000  Uiso   1.00
H554   H     0.54915   0.00488   0.61641   0.00000  Uiso   1.00
H555   H     0.59044   0.31115   0.57289   0.00000  Uiso   1.00
H556   H     0.55291   0.02731   0.50613   0.00000  Uiso   1.00
H557   H     0.98947   0.31173   0.64647   0.00000  Uiso   1.00
H558   H     0.74790   0.32135   0.42949   0.00000  Uiso   1.00
H559   H     0.75513   0.01215   0.57058   0.00000  Uiso   1.00
H560   H     0.71515   0.12585   0.64980   0.00000  Uiso   1.00
H561   H     0.78483   0.20750   0.35022   0.00000  Uiso   1.00
H562   H     0.90324   0.26469   0.64903   0.00000  Uiso   1.00
H563   H     0.87013   0.31801   0.63675   0.00000  Uiso   1.00
H564   H     0.84475   0.25300   0.62408   0.00000  Uiso   1.00
N565   N     0.73744   0.15214   0.34617   0.00000  Uiso   1.00
N566   N     0.76255   0.18119   0.65383   0.00000  Uiso   1.00
O567   O     0.75325   0.09538   0.53992   0.00000  Uiso   1.00
O568   O     0.97013   0.29950   0.60803   0.00000  Uiso   1.00
O569   O     0.74674   0.23796   0.46008   0.00000  Uiso   1.00
O570   O     0.74480   0.08559   0.43612   0.00000  Uiso   1.00
O571   O     0.75520   0.24774   0.56388   0.00000  Uiso   1.00
O572   O     0.68935   0.17155   0.55191   0.00000  Uiso   1.00
O573   O     0.81064   0.16179   0.44809   0.00000  Uiso   1.00
O574   O     0.68090   0.16176   0.44810   0.00000  Uiso   1.00
O575   O     0.81910   0.17157   0.55190   0.00000  Uiso   1.00
O576   O     0.53146   0.02260   0.46930   0.00000  Uiso   1.00
C577   C     0.24981   0.40017   0.48470   0.00000  Uiso   1.00
C578   C     0.08827   0.45034   0.47644   0.00000  Uiso   1.00
C579   C     0.38383   0.50574   0.50001   0.00000  Uiso   1.00
C580   C     0.11600   0.49558   0.50263   0.00000  Uiso   1.00
C581   C     0.40269   0.46028   0.47405   0.00000  Uiso   1.00
C582   C     0.09830   0.53978   0.53440   0.00000  Uiso   1.00
C583   C     0.44869   0.45531   0.48214   0.00000  Uiso   1.00
C584   C     0.05213   0.54218   0.53931   0.00000  Uiso   1.00
C585   C     0.47672   0.50014   0.51182   0.00000  Uiso   1.00
C586   C     0.02353   0.49747   0.51268   0.00000  Uiso   1.00
C587   C     0.45799   0.54764   0.53930   0.00000  Uiso   1.00
C588   C     0.25157   0.59993   0.51530   0.00000  Uiso   1.00
C589   C     0.04190   0.45002   0.48609   0.00000  Uiso   1.00
C590   C     0.46664   0.40564   0.46447   0.00000  Uiso   1.00
C591   C     0.03448   0.58793   0.57152   0.00000  Uiso   1.00
C592   C     0.38667   0.60083   0.55295   0.00000  Uiso   1.00
C593   C     0.37575   0.60945   0.61969   0.00000  Uiso   1.00
C594   C     0.10728   0.40666   0.43187   0.00000  Uiso   1.00
C595   C     0.13704   0.37248   0.46365   0.00000  Uiso   1.00
C596   C     0.43429   0.35670   0.44131   0.00000  Uiso   1.00
C597   C     0.45210   0.63580   0.43635   0.00000  Uiso   1.00
C598   C     0.06600   0.63458   0.60406   0.00000  Uiso   1.00
C599   C     0.01359   0.40337   0.47113   0.00000  Uiso   1.00
C600   C     0.09034   0.62269   0.66156   0.00000  Uiso   1.00
C601   C     0.48750   0.58974   0.57363   0.00000  Uiso   1.00
C602   C     0.25034   0.34446   0.47604   0.00000  Uiso   1.00
C603   C     0.25267   0.65571   0.52402   0.00000  Uiso   1.00
C604   C     0.16448   0.49779   0.50041   0.00000  Uiso   1.00
C605   C     0.33539   0.50263   0.49978   0.00000  Uiso   1.00
C606   C     0.41029   0.55040   0.53250   0.00000  Uiso   1.00
Cu607  Cu    0.25500   0.50579   0.56146   0.00000  Uiso   1.00
Cu608  Cu    0.24499   0.49421   0.43854   0.00000  Uiso   1.00
H609   H     0.38004   0.42803   0.44938   0.00000  Uiso   1.00
H610   H     0.40632   0.63518   0.54489   0.00000  Uiso   1.00
H611   H     0.35499   0.60094   0.52390   0.00000  Uiso   1.00
H612   H     0.15397   0.39469   0.50782   0.00000  Uiso   1.00
H613   H     0.11759   0.33800   0.47199   0.00000  Uiso   1.00
H614   H     0.16301   0.35722   0.43340   0.00000  Uiso   1.00
H615   H     0.08023   0.38259   0.40096   0.00000  Uiso   1.00
H616   H     0.12687   0.42365   0.39991   0.00000  Uiso   1.00
H617   H     0.47608   0.62755   0.40121   0.00000  Uiso   1.00
H618   H     0.46825   0.63232   0.48096   0.00000  Uiso   1.00
H619   H     0.42376   0.60552   0.42373   0.00000  Uiso   1.00
H620   H     0.12188   0.57264   0.55377   0.00000  Uiso   1.00
H621   H     0.40760   0.35781   0.47314   0.00000  Uiso   1.00
H622   H     0.41831   0.35885   0.39570   0.00000  Uiso   1.00
H623   H     0.06751   0.62632   0.36532   0.00000  Uiso   1.00
H624   H     0.10215   0.58258   0.65396   0.00000  Uiso   1.00
H625   H     0.12025   0.65028   0.34239   0.00000  Uiso   1.00
H626   H     0.04915   0.33821   0.61641   0.00000  Uiso   1.00
H627   H     0.09044   0.64448   0.57289   0.00000  Uiso   1.00
H628   H     0.05291   0.36064   0.50613   0.00000  Uiso   1.00
H629   H     0.48947   0.64507   0.64647   0.00000  Uiso   1.00
H630   H     0.24790   0.65468   0.42949   0.00000  Uiso   1.00
H631   H     0.25513   0.34548   0.57058   0.00000  Uiso   1.00
H632   H     0.21515   0.45918   0.64980   0.00000  Uiso   1.00
H633   H     0.28483   0.54083   0.35022   0.00000  Uiso   1.00
H634   H     0.40324   0.59802   0.64903   0.00000  Uiso   1.00
H635   H     0.37013   0.65135   0.63675   0.00000  Uiso   1.00
H636   H     0.34475   0.58634   0.62408   0.00000  Uiso   1.00
N637   N     0.23744   0.48547   0.34617   0.00000  Uiso   1.00
N638   N     0.26255   0.51453   0.65383   0.00000  Uiso   1.00
O639   O     0.25325   0.42871   0.53992   0.00000  Uiso   1.00
O640   O     0.47013   0.63284   0.60803   0.00000  Uiso   1.00
O641   O     0.24674   0.57129   0.46008   0.00000  Uiso   1.00
O642   O     0.24480   0.41892   0.43612   0.00000  Uiso   1.00
O643   O     0.25520   0.58108   0.56388   0.00000  Uiso   1.00
O644   O     0.18935   0.50488   0.55191   0.00000  Uiso   1.00
O645   O     0.31064   0.49512   0.44809   0.00000  Uiso   1.00
O646   O     0.18090   0.49510   0.44810   0.00000  Uiso   1.00
O647   O     0.31910   0.50490   0.55190   0.00000  Uiso   1.00
O648   O     0.03146   0.35594   0.46930   0.00000  Uiso   1.00
C649   C     0.74981   0.40017   0.48470   0.00000  Uiso   1.00
C650   C     0.58827   0.45034   0.47644   0.00000  Uiso   1.00
C651   C     0.88383   0.50574   0.50001   0.00000  Uiso   1.00
C652   C     0.61600   0.49558   0.50263   0.00000  Uiso   1.00
C653   C     0.90269   0.46028   0.47405   0.00000  Uiso   1.00
C654   C     0.59830   0.53978   0.53440   0.00000  Uiso   1.00
C655   C     0.94869   0.45531   0.48214   0.00000  Uiso   1.00
C656   C     0.55213   0.54218   0.53931   0.00000  Uiso   1.00
C657   C     0.97672   0.50014   0.51182   0.00000  Uiso   1.00
C658   C     0.52353   0.49747   0.51268   0.00000  Uiso   1.00
C659   C     0.95799   0.54764   0.53930   0.00000  Uiso   1.00
C660   C     0.75157   0.59993   0.51530   0.00000  Uiso   1.00
C661   C     0.54190   0.45002   0.48609   0.00000  Uiso   1.00
C662   C     0.96664   0.40564   0.46447   0.00000  Uiso   1.00
C663   C     0.53448   0.58793   0.57152   0.00000  Uiso   1.00
C664   C     0.88667   0.60083   0.55295   0.00000  Uiso   1.00
C665   C     0.87575   0.60945   0.61969   0.00000  Uiso   1.00
C666   C     0.60728   0.40666   0.43187   0.00000  Uiso   1.00
C667   C     0.63704   0.37248   0.46365   0.00000  Uiso   1.00
C668   C     0.93429   0.35670   0.44131   0.00000  Uiso   1.00
C669   C     0.95210   0.63580   0.43635   0.00000  Uiso   1.00
C670   C     0.56600   0.63458   0.60406   0.00000  Uiso   1.00
C671   C     0.51359   0.40337   0.47113   0.00000  Uiso   1.00
C672   C     0.59034   0.62269   0.66156   0.00000  Uiso   1.00
C673   C     0.98750   0.58974   0.57363   0.00000  Uiso   1.00
C674   C     0.75034   0.34446   0.47604   0.00000  Uiso   1.00
C675   C     0.75267   0.65571   0.52402   0.00000  Uiso   1.00
C676   C     0.66448   0.49779   0.50041   0.00000  Uiso   1.00
C677   C     0.83539   0.50263   0.49978   0.00000  Uiso   1.00
C678   C     0.91029   0.55040   0.53250   0.00000  Uiso   1.00
Cu679  Cu    0.75500   0.50579   0.56146   0.00000  Uiso   1.00
Cu680  Cu    0.74499   0.49421   0.43854   0.00000  Uiso   1.00
H681   H     0.88004   0.42803   0.44938   0.00000  Uiso   1.00
H682   H     0.90632   0.63518   0.54489   0.00000  Uiso   1.00
H683   H     0.85499   0.60094   0.52390   0.00000  Uiso   1.00
H684   H     0.65397   0.39469   0.50782   0.00000  Uiso   1.00
H685   H     0.61759   0.33800   0.47199   0.00000  Uiso   1.00
H686   H     0.66301   0.35722   0.43340   0.00000  Uiso   1.00
H687   H     0.58023   0.38259   0.40096   0.00000  Uiso   1.00
H688   H     0.62687   0.42365   0.39991   0.00000  Uiso   1.00
H689   H     0.97608   0.62755   0.40121   0.00000  Uiso   1.00
H690   H     0.96825   0.63232   0.48096   0.00000  Uiso   1.00
H691   H     0.92376   0.60552   0.42373   0.00000  Uiso   1.00
H692   H     0.62188   0.57264   0.55377   0.00000  Uiso   1.00
H693   H     0.90760   0.35781   0.47314   0.00000  Uiso   1.00
H694   H     0.91831   0.35885   0.39570   0.00000  Uiso   1.00
H695   H     0.56751   0.62632   0.36532   0.00000  Uiso   1.00
H696   H     0.60215   0.58258   0.65396   0.00000  Uiso   1.00
H697   H     0.62025   0.65028   0.34239   0.00000  Uiso   1.00
H698   H     0.54915   0.33821   0.61641   0.00000  Uiso   1.00
H699   H     0.59044   0.64448   0.57289   0.00000  Uiso   1.00
H700   H     0.55291   0.36064   0.50613   0.00000  Uiso   1.00
H701   H     0.98947   0.64507   0.64647   0.00000  Uiso   1.00
H702   H     0.74790   0.65468   0.42949   0.00000  Uiso   1.00
H703   H     0.75513   0.34548   0.57058   0.00000  Uiso   1.00
H704   H     0.71515   0.45918   0.64980   0.00000  Uiso   1.00
H705   H     0.78483   0.54083   0.35022   0.00000  Uiso   1.00
H706   H     0.90324   0.59802   0.64903   0.00000  Uiso   1.00
H707   H     0.87013   0.65135   0.63675   0.00000  Uiso   1.00
H708   H     0.84475   0.58634   0.62408   0.00000  Uiso   1.00
N709   N     0.73744   0.48547   0.34617   0.00000  Uiso   1.00
N710   N     0.76255   0.51453   0.65383   0.00000  Uiso   1.00
O711   O     0.75325   0.42871   0.53992   0.00000  Uiso   1.00
O712   O     0.97013   0.63284   0.60803   0.00000  Uiso   1.00
O713   O     0.74674   0.57129   0.46008   0.00000  Uiso   1.00
O714   O     0.74480   0.41892   0.43612   0.00000  Uiso   1.00
O715   O     0.75520   0.58108   0.56388   0.00000  Uiso   1.00
O716   O     0.68935   0.50488   0.55191   0.00000  Uiso   1.00
O717   O     0.81064   0.49512   0.44809   0.00000  Uiso   1.00
O718   O     0.68090   0.49510   0.44810   0.00000  Uiso   1.00
O719   O     0.81910   0.50490   0.55190   0.00000  Uiso   1.00
O720   O     0.53146   0.35594   0.46930   0.00000  Uiso   1.00
C721   C     0.24981   0.73350   0.48470   0.00000  Uiso   1.00
C722   C     0.08827   0.78367   0.47644   0.00000  Uiso   1.00
C723   C     0.38383   0.83907   0.50001   0.00000  Uiso   1.00
C724   C     0.11600   0.82892   0.50263   0.00000  Uiso   1.00
C725   C     0.40269   0.79361   0.47405   0.00000  Uiso   1.00
C726   C     0.09830   0.87311   0.53440   0.00000  Uiso   1.00
C727   C     0.44869   0.78864   0.48214   0.00000  Uiso   1.00
C728   C     0.05213   0.87551   0.53931   0.00000  Uiso   1.00
C729   C     0.47672   0.83347   0.51182   0.00000  Uiso   1.00
C730   C     0.02353   0.83080   0.51268   0.00000  Uiso   1.00
C731   C     0.45799   0.88098   0.53930   0.00000  Uiso   1.00
C732   C     0.25157   0.93326   0.51530   0.00000  Uiso   1.00
C733   C     0.04190   0.78335   0.48609   0.00000  Uiso   1.00
C734   C     0.46664   0.73898   0.46447   0.00000  Uiso   1.00
C735   C     0.03448   0.92126   0.57152   0.00000  Uiso   1.00
C736   C     0.38667   0.93417   0.55295   0.00000  Uiso   1.00
C737   C     0.37575   0.94278   0.61969   0.00000  Uiso   1.00
C738   C     0.10728   0.73999   0.43187   0.00000  Uiso   1.00
C739   C     0.13704   0.70581   0.46365   0.00000  Uiso   1.00
C740   C     0.43429   0.69004   0.44131   0.00000  Uiso   1.00
C741   C     0.45210   0.96913   0.43635   0.00000  Uiso   1.00
C742   C     0.06600   0.96791   0.60406   0.00000  Uiso   1.00
C743   C     0.01359   0.73671   0.47113   0.00000  Uiso   1.00
C744   C     0.09034   0.95602   0.66156   0.00000  Uiso   1.00
C745   C     0.48750   0.92308   0.57363   0.00000  Uiso   1.00
C746   C     0.25034   0.67779   0.47604   0.00000  Uiso   1.00
C747   C     0.25267   0.98905   0.52402   0.00000  Uiso   1.00
C748   C     0.16448   0.83112   0.50041   0.00000  Uiso   1.00
C749   C     0.33539   0.83596   0.49978   0.00000  Uiso   1.00
C750   C     0.41029   0.88373   0.53250   0.00000  Uiso   1.00
Cu751  Cu    0.25500   0.83913   0.56146   0.00000  Uiso   1.00
Cu752  Cu    0.24499   0.82754   0.43854   0.00000  Uiso   1.00
H753   H     0.38004   0.76137   0.44938   0.00000  Uiso   1.00
H754   H     0.40632   0.96851   0.54489   0.00000  Uiso   1.00
H755   H     0.35499   0.93427   0.52390   0.00000  Uiso   1.00
H756   H     0.15397   0.72802   0.50782   0.00000  Uiso   1.00
H757   H     0.11759   0.67134   0.47199   0.00000  Uiso   1.00
H758   H     0.16301   0.69056   0.43340   0.00000  Uiso   1.00
H759   H     0.08023   0.71592   0.40096   0.00000  Uiso   1.00
H760   H     0.12687   0.75698   0.39991   0.00000  Uiso   1.00
H761   H     0.47608   0.96089   0.40121   0.00000  Uiso   1.00
H762   H     0.46825   0.96565   0.48096   0.00000  Uiso   1.00
H763   H     0.42376   0.93885   0.42373   0.00000  Uiso   1.00
H764   H     0.12188   0.90597   0.55377   0.00000  Uiso   1.00
H765   H     0.40760   0.69114   0.47314   0.00000  Uiso   1.00
H766   H     0.41831   0.69218   0.39570   0.00000  Uiso   1.00
H767   H     0.06751   0.95966   0.36532   0.00000  Uiso   1.00
H768   H     0.10215   0.91592   0.65396   0.00000  Uiso   1.00
H769   H     0.12025   0.98362   0.34239   0.00000  Uiso   1.00
H770   H     0.04915   0.67154   0.61641   0.00000  Uiso   1.00
H771   H     0.09044   0.97781   0.57289   0.00000  Uiso   1.00
H772   H     0.05291   0.69397   0.50613   0.00000  Uiso   1.00
H773   H     0.48947   0.97840   0.64647   0.00000  Uiso   1.00
H774   H     0.24790   0.98801   0.42949   0.00000  Uiso   1.00
H775   H     0.25513   0.67881   0.57058   0.00000  Uiso   1.00
H776   H     0.21515   0.79251   0.64980   0.00000  Uiso   1.00
H777   H     0.28483   0.87416   0.35022   0.00000  Uiso   1.00
H778   H     0.40324   0.93135   0.64903   0.00000  Uiso   1.00
H779   H     0.37013   0.98468   0.63675   0.00000  Uiso   1.00
H780   H     0.34475   0.91967   0.62408   0.00000  Uiso   1.00
N781   N     0.23744   0.81881   0.34617   0.00000  Uiso   1.00
N782   N     0.26255   0.84786   0.65383   0.00000  Uiso   1.00
O783   O     0.25325   0.76204   0.53992   0.00000  Uiso   1.00
O784   O     0.47013   0.96617   0.60803   0.00000  Uiso   1.00
O785   O     0.24674   0.90462   0.46008   0.00000  Uiso   1.00
O786   O     0.24480   0.75226   0.43612   0.00000  Uiso   1.00
O787   O     0.25520   0.91441   0.56388   0.00000  Uiso   1.00
O788   O     0.18935   0.83821   0.55191   0.00000  Uiso   1.00
O789   O     0.31064   0.82845   0.44809   0.00000  Uiso   1.00
O790   O     0.18090   0.82843   0.44810   0.00000  Uiso   1.00
O791   O     0.31910   0.83824   0.55190   0.00000  Uiso   1.00
O792   O     0.03146   0.68927   0.46930   0.00000  Uiso   1.00
C793   C     0.74981   0.73350   0.48470   0.00000  Uiso   1.00
C794   C     0.58827   0.78367   0.47644   0.00000  Uiso   1.00
C795   C     0.88383   0.83907   0.50001   0.00000  Uiso   1.00
C796   C     0.61600   0.82892   0.50263   0.00000  Uiso   1.00
C797   C     0.90269   0.79361   0.47405   0.00000  Uiso   1.00
C798   C     0.59830   0.87311   0.53440   0.00000  Uiso   1.00
C799   C     0.94869   0.78864   0.48214   0.00000  Uiso   1.00
C800   C     0.55213   0.87551   0.53931   0.00000  Uiso   1.00
C801   C     0.97672   0.83347   0.51182   0.00000  Uiso   1.00
C802   C     0.52353   0.83080   0.51268   0.00000  Uiso   1.00
C803   C     0.95799   0.88098   0.53930   0.00000  Uiso   1.00
C804   C     0.75157   0.93326   0.51530   0.00000  Uiso   1.00
C805   C     0.54190   0.78335   0.48609   0.00000  Uiso   1.00
C806   C     0.96664   0.73898   0.46447   0.00000  Uiso   1.00
C807   C     0.53448   0.92126   0.57152   0.00000  Uiso   1.00
C808   C     0.88667   0.93417   0.55295   0.00000  Uiso   1.00
C809   C     0.87575   0.94278   0.61969   0.00000  Uiso   1.00
C810   C     0.60728   0.73999   0.43187   0.00000  Uiso   1.00
C811   C     0.63704   0.70581   0.46365   0.00000  Uiso   1.00
C812   C     0.93429   0.69004   0.44131   0.00000  Uiso   1.00
C813   C     0.95210   0.96913   0.43635   0.00000  Uiso   1.00
C814   C     0.56600   0.96791   0.60406   0.00000  Uiso   1.00
C815   C     0.51359   0.73671   0.47113   0.00000  Uiso   1.00
C816   C     0.59034   0.95602   0.66156   0.00000  Uiso   1.00
C817   C     0.98750   0.92308   0.57363   0.00000  Uiso   1.00
C818   C     0.75034   0.67779   0.47604   0.00000  Uiso   1.00
C819   C     0.75267   0.98905   0.52402   0.00000  Uiso   1.00
C820   C     0.66448   0.83112   0.50041   0.00000  Uiso   1.00
C821   C     0.83539   0.83596   0.49978   0.00000  Uiso   1.00
C822   C     0.91029   0.88373   0.53250   0.00000  Uiso   1.00
Cu823  Cu    0.75500   0.83913   0.56146   0.00000  Uiso   1.00
Cu824  Cu    0.74499   0.82754   0.43854   0.00000  Uiso   1.00
H825   H     0.88004   0.76137   0.44938   0.00000  Uiso   1.00
H826   H     0.90632   0.96851   0.54489   0.00000  Uiso   1.00
H827   H     0.85499   0.93427   0.52390   0.00000  Uiso   1.00
H828   H     0.65397   0.72802   0.50782   0.00000  Uiso   1.00
H829   H     0.61759   0.67134   0.47199   0.00000  Uiso   1.00
H830   H     0.66301   0.69056   0.43340   0.00000  Uiso   1.00
H831   H     0.58023   0.71592   0.40096   0.00000  Uiso   1.00
H832   H     0.62687   0.75698   0.39991   0.00000  Uiso   1.00
H833   H     0.97608   0.96089   0.40121   0.00000  Uiso   1.00
H834   H     0.96825   0.96565   0.48096   0.00000  Uiso   1.00
H835   H     0.92376   0.93885   0.42373   0.00000  Uiso   1.00
H836   H     0.62188   0.90597   0.55377   0.00000  Uiso   1.00
H837   H     0.90760   0.69114   0.47314   0.00000  Uiso   1.00
H838   H     0.91831   0.69218   0.39570   0.00000  Uiso   1.00
H839   H     0.56751   0.95966   0.36532   0.00000  Uiso   1.00
H840   H     0.60215   0.91592   0.65396   0.00000  Uiso   1.00
H841   H     0.62025   0.98362   0.34239   0.00000  Uiso   1.00
H842   H     0.54915   0.67154   0.61641   0.00000  Uiso   1.00
H843   H     0.59044   0.97781   0.57289   0.00000  Uiso   1.00
H844   H     0.55291   0.69397   0.50613   0.00000  Uiso   1.00
H845   H     0.98947   0.97840   0.64647   0.00000  Uiso   1.00
H846   H     0.74790   0.98801   0.42949   0.00000  Uiso   1.00
H847   H     0.75513   0.67881   0.57058   0.00000  Uiso   1.00
H848   H     0.71515   0.79251   0.64980   0.00000  Uiso   1.00
H849   H     0.78483   0.87416   0.35022   0.00000  Uiso   1.00
H850   H     0.90324   0.93135   0.64903   0.00000  Uiso   1.00
H851   H     0.87013   0.98468   0.63675   0.00000  Uiso   1.00
H852   H     0.84475   0.91967   0.62408   0.00000  Uiso   1.00
N853   N     0.73744   0.81881   0.34617   0.00000  Uiso   1.00
N854   N     0.76255   0.84786   0.65383   0.00000  Uiso   1.00
O855   O     0.75325   0.76204   0.53992   0.00000  Uiso   1.00
O856   O     0.97013   0.96617   0.60803   0.00000  Uiso   1.00
O857   O     0.74674   0.90462   0.46008   0.00000  Uiso   1.00
O858   O     0.74480   0.75226   0.43612   0.00000  Uiso   1.00
O859   O     0.75520   0.91441   0.56388   0.00000  Uiso   1.00
O860   O     0.68935   0.83821   0.55191   0.00000  Uiso   1.00
O861   O     0.81064   0.82845   0.44809   0.00000  Uiso   1.00
O862   O     0.68090   0.82843   0.44810   0.00000  Uiso   1.00
O863   O     0.81910   0.83824   0.55190   0.00000  Uiso   1.00
O864   O     0.53146   0.68927   0.46930   0.00000  Uiso   1.00
C865   C     0.24981   0.06683   0.81803   0.00000  Uiso   1.00
C866   C     0.08827   0.11700   0.80978   0.00000  Uiso   1.00
C867   C     0.38383   0.17241   0.83334   0.00000  Uiso   1.00
C868   C     0.11600   0.16225   0.83596   0.00000  Uiso   1.00
C869   C     0.40269   0.12694   0.80738   0.00000  Uiso   1.00
C870   C     0.09830   0.20645   0.86773   0.00000  Uiso   1.00
C871   C     0.44869   0.12198   0.81547   0.00000  Uiso   1.00
C872   C     0.05213   0.20884   0.87264   0.00000  Uiso   1.00
C873   C     0.47672   0.16681   0.84516   0.00000  Uiso   1.00
C874   C     0.02353   0.16413   0.84602   0.00000  Uiso   1.00
C875   C     0.45799   0.21431   0.87263   0.00000  Uiso   1.00
C876   C     0.25157   0.26659   0.84863   0.00000  Uiso   1.00
C877   C     0.04190   0.11669   0.81942   0.00000  Uiso   1.00
C878   C     0.46664   0.07231   0.79780   0.00000  Uiso   1.00
C879   C     0.03448   0.25460   0.90486   0.00000  Uiso   1.00
C880   C     0.38667   0.26750   0.88629   0.00000  Uiso   1.00
C881   C     0.37575   0.27612   0.95302   0.00000  Uiso   1.00
C882   C     0.10728   0.07333   0.76520   0.00000  Uiso   1.00
C883   C     0.13704   0.03914   0.79699   0.00000  Uiso   1.00
C884   C     0.43429   0.02337   0.77464   0.00000  Uiso   1.00
C885   C     0.45210   0.30246   0.76968   0.00000  Uiso   1.00
C886   C     0.06600   0.30124   0.93740   0.00000  Uiso   1.00
C887   C     0.01359   0.07004   0.80446   0.00000  Uiso   1.00
C888   C     0.09034   0.28936   0.99489   0.00000  Uiso   1.00
C889   C     0.48750   0.25641   0.90696   0.00000  Uiso   1.00
C890   C     0.25034   0.01112   0.80938   0.00000  Uiso   1.00
C891   C     0.25267   0.32238   0.85736   0.00000  Uiso   1.00
C892   C     0.16448   0.16446   0.83374   0.00000  Uiso   1.00
C893   C     0.33539   0.16930   0.83312   0.00000  Uiso   1.00
C894   C     0.41029   0.21706   0.86583   0.00000  Uiso   1.00
Cu895  Cu    0.25500   0.17246   0.89479   0.00000  Uiso   1.00
Cu896  Cu    0.24499   0.16087   0.77187   0.00000  Uiso   1.00
H897   H     0.38004   0.09470   0.78271   0.00000  Uiso   1.00
H898   H     0.40632   0.30185   0.87822   0.00000  Uiso   1.00
H899   H     0.35499   0.26761   0.85724   0.00000  Uiso   1.00
H900   H     0.15397   0.06136   0.84115   0.00000  Uiso   1.00
H901   H     0.11759   0.00467   0.80532   0.00000  Uiso   1.00
H902   H     0.16301   0.02389   0.76673   0.00000  Uiso   1.00
H903   H     0.08023   0.04926   0.73429   0.00000  Uiso   1.00
H904   H     0.12687   0.09031   0.73325   0.00000  Uiso   1.00
H905   H     0.47608   0.29422   0.73454   0.00000  Uiso   1.00
H906   H     0.46825   0.29898   0.81429   0.00000  Uiso   1.00
H907   H     0.42376   0.27218   0.75707   0.00000  Uiso   1.00
H908   H     0.12188   0.23930   0.88710   0.00000  Uiso   1.00
H909   H     0.40760   0.02447   0.80648   0.00000  Uiso   1.00
H910   H     0.41831   0.02551   0.72903   0.00000  Uiso   1.00
H911   H     0.06751   0.29299   0.69865   0.00000  Uiso   1.00
H912   H     0.10215   0.24925   0.98729   0.00000  Uiso   1.00
H913   H     0.12025   0.31695   0.67573   0.00000  Uiso   1.00
H914   H     0.04915   0.00488   0.94974   0.00000  Uiso   1.00
H915   H     0.09044   0.31115   0.90622   0.00000  Uiso   1.00
H916   H     0.05291   0.02731   0.83947   0.00000  Uiso   1.00
H917   H     0.48947   0.31173   0.97981   0.00000  Uiso   1.00
H918   H     0.24790   0.32135   0.76282   0.00000  Uiso   1.00
H919   H     0.25513   0.01215   0.90392   0.00000  Uiso   1.00
H920   H     0.21515   0.12585   0.98313   0.00000  Uiso   1.00
H921   H     0.28483   0.20750   0.68355   0.00000  Uiso   1.00
H922   H     0.40324   0.26469   0.98236   0.00000  Uiso   1.00
H923   H     0.37013   0.31801   0.97008   0.00000  Uiso   1.00
H924   H     0.34475   0.25300   0.95742   0.00000  Uiso   1.00
N925   N     0.23744   0.15214   0.67951   0.00000  Uiso   1.00
N926   N     0.26255   0.18119   0.98716   0.00000  Uiso   1.00
O927   O     0.25325   0.09538   0.87326   0.00000  Uiso   1.00
O928   O     0.47013   0.29950   0.94136   0.00000  Uiso   1.00
O929   O     0.24674   0.23796   0.79341   0.00000  Uiso   1.00
O930   O     0.24480   0.08559   0.76945   0.00000  Uiso   1.00
O931   O     0.25520   0.24774   0.89721   0.00000  Uiso   1.00
O932   O     0.18935   0.17155   0.88524   0.00000  Uiso   1.00
O933   O     0.31064   0.16179   0.78143   0.00000  Uiso   1.00
O934   O     0.18090   0.16176   0.78143   0.00000  Uiso   1.00
O935   O     0.31910   0.17157   0.88523   0.00000  Uiso   1.00
O936   O     0.03146   0.02260   0.80263   0.00000  Uiso   1.00
C937   C     0.74981   0.06683   0.81803   0.00000  Uiso   1.00
C938   C     0.58827   0.11700   0.80978   0.00000  Uiso   1.00
C939   C     0.88383   0.17241   0.83334   0.00000  Uiso   1.00
C940   C     0.61600   0.16225   0.83596   0.00000  Uiso   1.00
C941   C     0.90269   0.12694   0.80738   0.00000  Uiso   1.00
C942   C     0.59830   0.20645   0.86773   0.00000  Uiso   1.00
C943   C     0.94869   0.12198   0.81547   0.00000  Uiso   1.00
C944   C     0.55213   0.20884   0.87264   0.00000  Uiso   1.00
C945   C     0.97672   0.16681   0.84516   0.00000  Uiso   1.00
C946   C     0.52353   0.16413   0.84602   0.00000  Uiso   1.00
C947   C     0.95799   0.21431   0.87263   0.00000  Uiso   1.00
C948   C     0.75157   0.26659   0.84863   0.00000  Uiso   1.00
C949   C     0.54190   0.11669   0.81942   0.00000  Uiso   1.00
C950   C     0.96664   0.07231   0.79780   0.00000  Uiso   1.00
C951   C     0.53448   0.25460   0.90486   0.00000  Uiso   1.00
C952   C     0.88667   0.26750   0.88629   0.00000  Uiso   1.00
C953   C     0.87575   0.27612   0.95302   0.00000  Uiso   1.00
C954   C     0.60728   0.07333   0.76520   0.00000  Uiso   1.00
C955   C     0.63704   0.03914   0.79699   0.00000  Uiso   1.00
C956   C     0.93429   0.02337   0.77464   0.00000  Uiso   1.00
C957   C     0.95210   0.30246   0.76968   0.00000  Uiso   1.00
C958   C     0.56600   0.30124   0.93740   0.00000  Uiso   1.00
C959   C     0.51359   0.07004   0.80446   0.00000  Uiso   1.00
C960   C     0.59034   0.28936   0.99489   0.00000  Uiso   1.00
C961   C     0.98750   0.25641   0.90696   0.00000  Uiso   1.00
C962   C     0.75034   0.01112   0.80938   0.00000  Uiso   1.00
C963   C     0.75267   0.32238   0.85736   0.00000  Uiso   1.00
C964   C     0.66448   0.16446   0.83374   0.00000  Uiso   1.00
C965   C     0.83539   0.16930   0.83312   0.00000  Uiso   1.00
C966   C     0.91029   0.21706   0.86583   0.00000  Uiso   1.00
Cu967  Cu    0.75500   0.17246   0.89479   0.00000  Uiso   1.00
Cu968  Cu    0.74499   0.16087   0.77187   0.00000  Uiso   1.00
H969   H     0.88004   0.09470   0.78271   0.00000  Uiso   1.00
H970   H     0.90632   0.30185   0.87822   0.00000  Uiso   1.00
H971   H     0.85499   0.26761   0.85724   0.00000  Uiso   1.00
H972   H     0.65397   0.06136   0.84115   0.00000  Uiso   1.00
H973   H     0.61759   0.00467   0.80532   0.00000  Uiso   1.00
H974   H     0.66301   0.02389   0.76673   0.00000  Uiso   1.00
H975   H     0.58023   0.04926   0.73429   0.00000  Uiso   1.00
H976   H     0.62687   0.09031   0.73325   0.00000  Uiso   1.00
H977   H     0.97608   0.29422   0.73454   0.00000  Uiso   1.00
H978   H     0.96825   0.29898   0.81429   0.00000  Uiso   1.00
H979   H     0.92376   0.27218   0.75707   0.00000  Uiso   1.00
H980   H     0.62188   0.23930   0.88710   0.00000  Uiso   1.00
H981   H     0.90760   0.02447   0.80648   0.00000  Uiso   1.00
H982   H     0.91831   0.02551   0.72903   0.00000  Uiso   1.00
H983   H     0.56751   0.29299   0.69865   0.00000  Uiso   1.00
H984   H     0.60215   0.24925   0.98729   0.00000  Uiso   1.00
H985   H     0.62025   0.31695   0.67573   0.00000  Uiso   1.00
H986   H     0.54915   0.00488   0.94974   0.00000  Uiso   1.00
H987   H     0.59044   0.31115   0.90622   0.00000  Uiso   1.00
H988   H     0.55291   0.02731   0.83947   0.00000  Uiso   1.00
H989   H     0.98947   0.31173   0.97981   0.00000  Uiso   1.00
H990   H     0.74790   0.32135   0.76282   0.00000  Uiso   1.00
H991   H     0.75513   0.01215   0.90392   0.00000  Uiso   1.00
H992   H     0.71515   0.12585   0.98313   0.00000  Uiso   1.00
H993   H     0.78483   0.20750   0.68355   0.00000  Uiso   1.00
H994   H     0.90324   0.26469   0.98236   0.00000  Uiso   1.00
H995   H     0.87013   0.31801   0.97008   0.00000  Uiso   1.00
H996   H     0.84475   0.25300   0.95742   0.00000  Uiso   1.00
N997   N     0.73744   0.15214   0.67951   0.00000  Uiso   1.00
N998   N     0.76255   0.18119   0.98716   0.00000  Uiso   1.00
O999   O     0.75325   0.09538   0.87326   0.00000  Uiso   1.00
O1000  O     0.97013   0.29950   0.94136   0.00000  Uiso   1.00
O1001  O     0.74674   0.23796   0.79341   0.00000  Uiso   1.00
O1002  O     0.74480   0.08559   0.76945   0.00000  Uiso   1.00
O1003  O     0.75520   0.24774   0.89721   0.00000  Uiso   1.00
O1004  O     0.68935   0.17155   0.88524   0.00000  Uiso   1.00
O1005  O     0.81064   0.16179   0.78143   0.00000  Uiso   1.00
O1006  O     0.68090   0.16176   0.78143   0.00000  Uiso   1.00
O1007  O     0.81910   0.17157   0.88523   0.00000  Uiso   1.00
O1008  O     0.53146   0.02260   0.80263   0.00000  Uiso   1.00
C1009  C     0.24981   0.40017   0.81803   0.00000  Uiso   1.00
C1010  C     0.08827   0.45034   0.80978   0.00000  Uiso   1.00
C1011  C     0.38383   0.50574   0.83334   0.00000  Uiso   1.00
C1012  C     0.11600   0.49558   0.83596   0.00000  Uiso   1.00
C1013  C     0.40269   0.46028   0.80738   0.00000  Uiso   1.00
C1014  C     0.09830   0.53978   0.86773   0.00000  Uiso   1.00
C1015  C     0.44869   0.45531   0.81547   0.00000  Uiso   1.00
C1016  C     0.05213   0.54218   0.87264   0.00000  Uiso   1.00
C1017  C     0.47672   0.50014   0.84516   0.00000  Uiso   1.00
C1018  C     0.02353   0.49747   0.84602   0.00000  Uiso   1.00
C1019  C     0.45799   0.54764   0.87263   0.00000  Uiso   1.00
C1020  C     0.25157   0.59993   0.84863   0.00000  Uiso   1.00
C1021  C     0.04190   0.45002   0.81942   0.00000  Uiso   1.00
C1022  C     0.46664   0.40564   0.79780   0.00000  Uiso   1.00
C1023  C     0.03448   0.58793   0.90486   0.00000  Uiso   1.00
C1024  C     0.38667   0.60083   0.88629   0.00000  Uiso   1.00
C1025  C     0.37575   0.60945   0.95302   0.00000  Uiso   1.00
C1026  C     0.10728   0.40666   0.76520   0.00000  Uiso   1.00
C1027  C     0.13704   0.37248   0.79699   0.00000  Uiso   1.00
C1028  C     0.43429   0.35670   0.77464   0.00000  Uiso   1.00
C1029  C     0.45210   0.63580   0.76968   0.00000  Uiso   1.00
C1030  C     0.06600   0.63458   0.93740   0.00000  Uiso   1.00
C1031  C     0.01359   0.40337   0.80446   0.00000  Uiso   1.00
C1032  C     0.09034   0.62269   0.99489   0.00000  Uiso   1.00
C1033  C     0.48750   0.58974   0.90696   0.00000  Uiso   1.00
C1034  C     0.25034   0.34446   0.80938   0.00000  Uiso   1.00
C1035  C     0.25267   0.65571   0.85736   0.00000  Uiso   1.00
C1036  C     0.16448   0.49779   0.83374   0.00000  Uiso   1.00
C1037  C     0.33539   0.50263   0.83312   0.00000  Uiso   1.00
C1038  C     0.41029   0.55040   0.86583   0.00000  Uiso   1.00
Cu1039 Cu    0.25500   0.50579   0.89479   0.00000  Uiso   1.00
Cu1040 Cu    0.24499   0.49421   0.77187   0.00000  Uiso   1.00
H1041  H     0.38004   0.42803   0.78271   0.00000  Uiso   1.00
H1042  H     0.40632   0.63518   0.87822   0.00000  Uiso   1.00
H1043  H     0.35499   0.60094   0.85724   0.00000  Uiso   1.00
H1044  H     0.15397   0.39469   0.84115   0.00000  Uiso   1.00
H1045  H     0.11759   0.33800   0.80532   0.00000  Uiso   1.00
H1046  H     0.16301   0.35722   0.76673   0.00000  Uiso   1.00
H1047  H     0.08023   0.38259   0.73429   0.00000  Uiso   1.00
H1048  H     0.12687   0.42365   0.73325   0.00000  Uiso   1.00
H1049  H     0.47608   0.62755   0.73454   0.00000  Uiso   1.00
H1050  H     0.46825   0.63232   0.81429   0.00000  Uiso   1.00
H1051  H     0.42376   0.60552   0.75707   0.00000  Uiso   1.00
H1052  H     0.12188   0.57264   0.88710   0.00000  Uiso   1.00
H1053  H     0.40760   0.35781   0.80648   0.00000  Uiso   1.00
H1054  H     0.41831   0.35885   0.72903   0.00000  Uiso   1.00
H1055  H     0.06751   0.62632   0.69865   0.00000  Uiso   1.00
H1056  H     0.10215   0.58258   0.98729   0.00000  Uiso   1.00
H1057  H     0.12025   0.65028   0.67573   0.00000  Uiso   1.00
H1058  H     0.04915   0.33821   0.94974   0.00000  Uiso   1.00
H1059  H     0.09044   0.64448   0.90622   0.00000  Uiso   1.00
H1060  H     0.05291   0.36064   0.83947   0.00000  Uiso   1.00
H1061  H     0.48947   0.64507   0.97981   0.00000  Uiso   1.00
H1062  H     0.24790   0.65468   0.76282   0.00000  Uiso   1.00
H1063  H     0.25513   0.34548   0.90392   0.00000  Uiso   1.00
H1064  H     0.21515   0.45918   0.98313   0.00000  Uiso   1.00
H1065  H     0.28483   0.54083   0.68355   0.00000  Uiso   1.00
H1066  H     0.40324   0.59802   0.98236   0.00000  Uiso   1.00
H1067  H     0.37013   0.65135   0.97008   0.00000  Uiso   1.00
H1068  H     0.34475   0.58634   0.95742   0.00000  Uiso   1.00
N1069  N     0.23744   0.48547   0.67951   0.00000  Uiso   1.00
N1070  N     0.26255   0.51453   0.98716   0.00000  Uiso   1.00
O1071  O     0.25325   0.42871   0.87326   0.00000  Uiso   1.00
O1072  O     0.47013   0.63284   0.94136   0.00000  Uiso   1.00
O1073  O     0.24674   0.57129   0.79341   0.00000  Uiso   1.00
O1074  O     0.24480   0.41892   0.76945   0.00000  Uiso   1.00
O1075  O     0.25520   0.58108   0.89721   0.00000  Uiso   1.00
O1076  O     0.18935   0.50488   0.88524   0.00000  Uiso   1.00
O1077  O     0.31064   0.49512   0.78143   0.00000  Uiso   1.00
O1078  O     0.18090   0.49510   0.78143   0.00000  Uiso   1.00
O1079  O     0.31910   0.50490   0.88523   0.00000  Uiso   1.00
O1080  O     0.03146   0.35594   0.80263   0.00000  Uiso   1.00
C1081  C     0.74981   0.40017   0.81803   0.00000  Uiso   1.00
C1082  C     0.58827   0.45034   0.80978   0.00000  Uiso   1.00
C1083  C     0.88383   0.50574   0.83334   0.00000  Uiso   1.00
C1084  C     0.61600   0.49558   0.83596   0.00000  Uiso   1.00
C1085  C     0.90269   0.46028   0.80738   0.00000  Uiso   1.00
C1086  C     0.59830   0.53978   0.86773   0.00000  Uiso   1.00
C1087  C     0.94869   0.45531   0.81547   0.00000  Uiso   1.00
C1088  C     0.55213   0.54218   0.87264   0.00000  Uiso   1.00
C1089  C     0.97672   0.50014   0.84516   0.00000  Uiso   1.00
C1090  C     0.52353   0.49747   0.84602   0.00000  Uiso   1.00
C1091  C     0.95799   0.54764   0.87263   0.00000  Uiso   1.00
C1092  C     0.75157   0.59993   0.84863   0.00000  Uiso   1.00
C1093  C     0.54190   0.45002   0.81942   0.00000  Uiso   1.00
C1094  C     0.96664   0.40564   0.79780   0.00000  Uiso   1.00
C1095  C     0.53448   0.58793   0.90486   0.00000  Uiso   1.00
C1096  C     0.88667   0.60083   0.88629   0.00000  Uiso   1.00
C1097  C     0.87575   0.60945   0.95302   0.00000  Uiso   1.00
C1098  C     0.60728   0.40666   0.76520   0.00000  Uiso   1.00
C1099  C     0.63704   0.37248   0.79699   0.00000  Uiso   1.00
C1100  C     0.93429   0.35670   0.77464   0.00000  Uiso   1.00
C1101  C     0.95210   0.63580   0.76968   0.00000  Uiso   1.00
C1102  C     0.56600   0.63458   0.93740   0.00000  Uiso   1.00
C1103  C     0.51359   0.40337   0.80446   0.00000  Uiso   1.00
C1104  C     0.59034   0.62269   0.99489   0.00000  Uiso   1.00
C1105  C     0.98750   0.58974   0.90696   0.00000  Uiso   1.00
C1106  C     0.75034   0.34446   0.80938   0.00000  Uiso   1.00
C1107  C     0.75267   0.65571   0.85736   0.00000  Uiso   1.00
C1108  C     0.66448   0.49779   0.83374   0.00000  Uiso   1.00
C1109  C     0.83539   0.50263   0.83312   0.00000  Uiso   1.00
C1110  C     0.91029   0.55040   0.86583   0.00000  Uiso   1.00
Cu1111 Cu    0.75500   0.50579   0.89479   0.00000  Uiso   1.00
Cu1112 Cu    0.74499   0.49421   0.77187   0.00000  Uiso   1.00
H1113  H     0.88004   0.42803   0.78271   0.00000  Uiso   1.00
H1114  H     0.90632   0.63518   0.87822   0.00000  Uiso   1.00
H1115  H     0.85499   0.60094   0.85724   0.00000  Uiso   1.00
H1116  H     0.65397   0.39469   0.84115   0.00000  Uiso   1.00
H1117  H     0.61759   0.33800   0.80532   0.00000  Uiso   1.00
H1118  H     0.66301   0.35722   0.76673   0.00000  Uiso   1.00
H1119  H     0.58023   0.38259   0.73429   0.00000  Uiso   1.00
H1120  H     0.62687   0.42365   0.73325   0.00000  Uiso   1.00
H1121  H     0.97608   0.62755   0.73454   0.00000  Uiso   1.00
H1122  H     0.96825   0.63232   0.81429   0.00000  Uiso   1.00
H1123  H     0.92376   0.60552   0.75707   0.00000  Uiso   1.00
H1124  H     0.62188   0.57264   0.88710   0.00000  Uiso   1.00
H1125  H     0.90760   0.35781   0.80648   0.00000  Uiso   1.00
H1126  H     0.91831   0.35885   0.72903   0.00000  Uiso   1.00
H1127  H     0.56751   0.62632   0.69865   0.00000  Uiso   1.00
H1128  H     0.60215   0.58258   0.98729   0.00000  Uiso   1.00
H1129  H     0.62025   0.65028   0.67573   0.00000  Uiso   1.00
H1130  H     0.54915   0.33821   0.94974   0.00000  Uiso   1.00
H1131  H     0.59044   0.64448   0.90622   0.00000  Uiso   1.00
H1132  H     0.55291   0.36064   0.83947   0.00000  Uiso   1.00
H1133  H     0.98947   0.64507   0.97981   0.00000  Uiso   1.00
H1134  H     0.74790   0.65468   0.76282   0.00000  Uiso   1.00
H1135  H     0.75513   0.34548   0.90392   0.00000  Uiso   1.00
H1136  H     0.71515   0.45918   0.98313   0.00000  Uiso   1.00
H1137  H     0.78483   0.54083   0.68355   0.00000  Uiso   1.00
H1138  H     0.90324   0.59802   0.98236   0.00000  Uiso   1.00
H1139  H     0.87013   0.65135   0.97008   0.00000  Uiso   1.00
H1140  H     0.84475   0.58634   0.95742   0.00000  Uiso   1.00
N1141  N     0.73744   0.48547   0.67951   0.00000  Uiso   1.00
N1142  N     0.76255   0.51453   0.98716   0.00000  Uiso   1.00
O1143  O     0.75325   0.42871   0.87326   0.00000  Uiso   1.00
O1144  O     0.97013   0.63284   0.94136   0.00000  Uiso   1.00
O1145  O     0.74674   0.57129   0.79341   0.00000  Uiso   1.00
O1146  O     0.74480   0.41892   0.76945   0.00000  Uiso   1.00
O1147  O     0.75520   0.58108   0.89721   0.00000  Uiso   1.00
O1148  O     0.68935   0.50488   0.88524   0.00000  Uiso   1.00
O1149  O     0.81064   0.49512   0.78143   0.00000  Uiso   1.00
O1150  O     0.68090   0.49510   0.78143   0.00000  Uiso   1.00
O1151  O     0.81910   0.50490   0.88523   0.00000  Uiso   1.00
O1152  O     0.53146   0.35594   0.80263   0.00000  Uiso   1.00
C1153  C     0.24981   0.73350   0.81803   0.00000  Uiso   1.00
C1154  C     0.08827   0.78367   0.80978   0.00000  Uiso   1.00
C1155  C     0.38383   0.83907   0.83334   0.00000  Uiso   1.00
C1156  C     0.11600   0.82892   0.83596   0.00000  Uiso   1.00
C1157  C     0.40269   0.79361   0.80738   0.00000  Uiso   1.00
C1158  C     0.09830   0.87311   0.86773   0.00000  Uiso   1.00
C1159  C     0.44869   0.78864   0.81547   0.00000  Uiso   1.00
C1160  C     0.05213   0.87551   0.87264   0.00000  Uiso   1.00
C1161  C     0.47672   0.83347   0.84516   0.00000  Uiso   1.00
C1162  C     0.02353   0.83080   0.84602   0.00000  Uiso   1.00
C1163  C     0.45799   0.88098   0.87263   0.00000  Uiso   1.00
C1164  C     0.25157   0.93326   0.84863   0.00000  Uiso   1.00
C1165  C     0.04190   0.78335   0.81942   0.00000  Uiso   1.00
C1166  C     0.46664   0.73898   0.79780   0.00000  Uiso   1.00
C1167  C     0.03448   0.92126   0.90486   0.00000  Uiso   1.00
C1168  C     0.38667   0.93417   0.88629   0.00000  Uiso   1.00
C1169  C     0.37575   0.94278   0.95302   0.00000  Uiso   1.00
C1170  C     0.10728   0.73999   0.76520   0.00000  Uiso   1.00
C1171  C     0.13704   0.70581   0.79699   0.00000  Uiso   1.00
C1172  C     0.43429   0.69004   0.77464   0.00000  Uiso   1.00
C1173  C     0.45210   0.96913   0.76968   0.00000  Uiso   1.00
C1174  C     0.06600   0.96791   0.93740   0.00000  Uiso   1.00
C1175  C     0.01359   0.73671   0.80446   0.00000  Uiso   1.00
C1176  C     0.09034   0.95602   0.99489   0.00000  Uiso   1.00
C1177  C     0.48750   0.92308   0.90696   0.00000  Uiso   1.00
C1178  C     0.25034   0.67779   0.80938   0.00000  Uiso   1.00
C1179  C     0.25267   0.98905   0.85736   0.00000  Uiso   1.00
C1180  C     0.16448   0.83112   0.83374   0.00000  Uiso   1.00
C1181  C     0.33539   0.83596   0.83312   0.00000  Uiso   1.00
C1182  C     0.41029   0.88373   0.86583   0.00000  Uiso   1.00
Cu1183 Cu    0.25500   0.83913   0.89479   0.00000  Uiso   1.00
Cu1184 Cu    0.24499   0.82754   0.77187   0.00000  Uiso   1.00
H1185  H     0.38004   0.76137   0.78271   0.00000  Uiso   1.00
H1186  H     0.40632   0.96851   0.87822   0.00000  Uiso   1.00
H1187  H     0.35499   0.93427   0.85724   0.00000  Uiso   1.00
H1188  H     0.15397   0.72802   0.84115   0.00000  Uiso   1.00
H1189  H     0.11759   0.67134   0.80532   0.00000  Uiso   1.00
H1190  H     0.16301   0.69056   0.76673   0.00000  Uiso   1.00
H1191  H     0.08023   0.71592   0.73429   0.00000  Uiso   1.00
H1192  H     0.12687   0.75698   0.73325   0.00000  Uiso   1.00
H1193  H     0.47608   0.96089   0.73454   0.00000  Uiso   1.00
H1194  H     0.46825   0.96565   0.81429   0.00000  Uiso   1.00
H1195  H     0.42376   0.93885   0.75707   0.00000  Uiso   1.00
H1196  H     0.12188   0.90597   0.88710   0.00000  Uiso   1.00
H1197  H     0.40760   0.69114   0.80648   0.00000  Uiso   1.00
H1198  H     0.41831   0.69218   0.72903   0.00000  Uiso   1.00
H1199  H     0.06751   0.95966   0.69865   0.00000  Uiso   1.00
H1200  H     0.10215   0.91592   0.98729   0.00000  Uiso   1.00
H1201  H     0.12025   0.98362   0.67573   0.00000  Uiso   1.00
H1202  H     0.04915   0.67154   0.94974   0.00000  Uiso   1.00
H1203  H     0.09044   0.97781   0.90622   0.00000  Uiso   1.00
H1204  H     0.05291   0.69397   0.83947   0.00000  Uiso   1.00
H1205  H     0.48947   0.97840   0.97981   0.00000  Uiso   1.00
H1206  H     0.24790   0.98801   0.76282   0.00000  Uiso   1.00
H1207  H     0.25513   0.67881   0.90392   0.00000  Uiso   1.00
H1208  H     0.21515   0.79251   0.98313   0.00000  Uiso   1.00
H1209  H     0.28483   0.87416   0.68355   0.00000  Uiso   1.00
H1210  H     0.40324   0.93135   0.98236   0.00000  Uiso   1.00
H1211  H     0.37013   0.98468   0.97008   0.00000  Uiso   1.00
H1212  H     0.34475   0.91967   0.95742   0.00000  Uiso   1.00
N1213  N     0.23744   0.81881   0.67951   0.00000  Uiso   1.00
N1214  N     0.26255   0.84786   0.98716   0.00000  Uiso   1.00
O1215  O     0.25325   0.76204   0.87326   0.00000  Uiso   1.00
O1216  O     0.47013   0.96617   0.94136   0.00000  Uiso   1.00
O1217  O     0.24674   0.90462   0.79341   0.00000  Uiso   1.00
O1218  O     0.24480   0.75226   0.76945   0.00000  Uiso   1.00
O1219  O     0.25520   0.91441   0.89721   0.00000  Uiso   1.00
O1220  O     0.18935   0.83821   0.88524   0.00000  Uiso   1.00
O1221  O     0.31064   0.82845   0.78143   0.00000  Uiso   1.00
O1222  O     0.18090   0.82843   0.78143   0.00000  Uiso   1.00
O1223  O     0.31910   0.83824   0.88523   0.00000  Uiso   1.00
O1224  O     0.03146   0.68927   0.80263   0.00000  Uiso   1.00
C1225  C     0.74981   0.73350   0.81803   0.00000  Uiso   1.00
C1226  C     0.58827   0.78367   0.80978   0.00000  Uiso   1.00
C1227  C     0.88383   0.83907   0.83334   0.00000  Uiso   1.00
C1228  C     0.61600   0.82892   0.83596   0.00000  Uiso   1.00
C1229  C     0.90269   0.79361   0.80738   0.00000  Uiso   1.00
C1230  C     0.59830   0.87311   0.86773   0.00000  Uiso   1.00
C1231  C     0.94869   0.78864   0.81547   0.00000  Uiso   1.00
C1232  C     0.55213   0.87551   0.87264   0.00000  Uiso   1.00
C1233  C     0.97672   0.83347   0.84516   0.00000  Uiso   1.00
C1234  C     0.52353   0.83080   0.84602   0.00000  Uiso   1.00
C1235  C     0.95799   0.88098   0.87263   0.00000  Uiso   1.00
C1236  C     0.75157   0.93326   0.84863   0.00000  Uiso   1.00
C1237  C     0.54190   0.78335   0.81942   0.00000  Uiso   1.00
C1238  C     0.96664   0.73898   0.79780   0.00000  Uiso   1.00
C1239  C     0.53448   0.92126   0.90486   0.00000  Uiso   1.00
C1240  C     0.88667   0.93417   0.88629   0.00000  Uiso   1.00
C1241  C     0.87575   0.94278   0.95302   0.00000  Uiso   1.00
C1242  C     0.60728   0.73999   0.76520   0.00000  Uiso   1.00
C1243  C     0.63704   0.70581   0.79699   0.00000  Uiso   1.00
C1244  C     0.93429   0.69004   0.77464   0.00000  Uiso   1.00
C1245  C     0.95210   0.96913   0.76968   0.00000  Uiso   1.00
C1246  C     0.56600   0.96791   0.93740   0.00000  Uiso   1.00
C1247  C     0.51359   0.73671   0.80446   0.00000  Uiso   1.00
C1248  C     0.59034   0.95602   0.99489   0.00000  Uiso   1.00
C1249  C     0.98750   0.92308   0.90696   0.00000  Uiso   1.00
C1250  C     0.75034   0.67779   0.80938   0.00000  Uiso   1.00
C1251  C     0.75267   0.98905   0.85736   0.00000  Uiso   1.00
C1252  C     0.66448   0.83112   0.83374   0.00000  Uiso   1.00
C1253  C     0.83539   0.83596   0.83312   0.00000  Uiso   1.00
C1254  C     0.91029   0.88373   0.86583   0.00000  Uiso   1.00
Cu1255 Cu    0.75500   0.83913   0.89479   0.00000  Uiso   1.00
Cu1256 Cu    0.74499   0.82754   0.77187   0.00000  Uiso   1.00
H1257  H     0.88004   0.76137   0.78271   0.00000  Uiso   1.00
H1258  H     0.90632   0.96851   0.87822   0.00000  Uiso   1.00
H1259  H     0.85499   0.93427   0.85724   0.00000  Uiso   1.00
H1260  H     0.65397   0.72802   0.84115   0.00000  Uiso   1.00
H1261  H     0.61759   0.67134   0.80532   0.00000  Uiso   1.00
H1262  H     0.66301   0.69056   0.76673   0.00000  Uiso   1.00
H1263  H     0.58023   0.71592   0.73429   0.00000  Uiso   1.00
H1264  H     0.62687   0.75698   0.73325   0.00000  Uiso   1.00
H1265  H     0.97608   0.96089   0.73454   0.00000  Uiso   1.00
H1266  H     0.96825   0.96565   0.81429   0.00000  Uiso   1.00
H1267  H     0.92376   0.93885   0.75707   0.00000  Uiso   1.00
H1268  H     0.62188   0.90597   0.88710   0.00000  Uiso   1.00
H1269  H     0.90760   0.69114   0.80648   0.00000  Uiso   1.00
H1270  H     0.91831   0.69218   0.72903   0.00000  Uiso   1.00
H1271  H     0.56751   0.95966   0.69865   0.00000  Uiso   1.00
H1272  H     0.60215   0.91592   0.98729   0.00000  Uiso   1.00
H1273  H     0.62025   0.98362   0.67573   0.00000  Uiso   1.00
H1274  H     0.54915   0.67154   0.94974   0.00000  Uiso   1.00
H1275  H     0.59044   0.97781   0.90622   0.00000  Uiso   1.00
H1276  H     0.55291   0.69397   0.83947   0.00000  Uiso   1.00
H1277  H     0.98947   0.97840   0.97981   0.00000  Uiso   1.00
H1278  H     0.74790   0.98801   0.76282   0.00000  Uiso   1.00
H1279  H     0.75513   0.67881   0.90392   0.00000  Uiso   1.00
H1280  H     0.71515   0.79251   0.98313   0.00000  Uiso   1.00
H1281  H     0.78483   0.87416   0.68355   0.00000  Uiso   1.00
H1282  H     0.90324   0.93135   0.98236   0.00000  Uiso   1.00
H1283  H     0.87013   0.98468   0.97008   0.00000  Uiso   1.00
H1284  H     0.84475   0.91967   0.95742   0.00000  Uiso   1.00
N1285  N     0.73744   0.81881   0.67951   0.00000  Uiso   1.00
N1286  N     0.76255   0.84786   0.98716   0.00000  Uiso   1.00
O1287  O     0.75325   0.76204   0.87326   0.00000  Uiso   1.00
O1288  O     0.97013   0.96617   0.94136   0.00000  Uiso   1.00
O1289  O     0.74674   0.90462   0.79341   0.00000  Uiso   1.00
O1290  O     0.74480   0.75226   0.76945   0.00000  Uiso   1.00
O1291  O     0.75520   0.91441   0.89721   0.00000  Uiso   1.00
O1292  O     0.68935   0.83821   0.88524   0.00000  Uiso   1.00
O1293  O     0.81064   0.82845   0.78143   0.00000  Uiso   1.00
O1294  O     0.68090   0.82843   0.78143   0.00000  Uiso   1.00
O1295  O     0.81910   0.83824   0.88523   0.00000  Uiso   1.00
O1296  O     0.53146   0.68927   0.80263   0.00000  Uiso   1.00
loop_
_geom_bond_atom_site_label_1
_geom_bond_atom_site_label_2
_geom_bond_distance
_geom_bond_site_symmetry_2
_ccdc_geom_bond_type
C1     O66     1.288   .     A
C1     C26     1.432   .     S
C1     O63     1.301   .     A
C2     C4      1.406   .     A
C2     C18     1.520   .     S
C2     C13     1.424   .     A
C3     C30     1.411   .     A
C3     C29     1.450   .     S
C3     C5      1.380   .     A
C4     C6      1.380   .     A
C4     C28     1.457   .     S
C5     C7      1.394   .     A
C5     H33     1.082   .     S
C6     H44     1.079   .     S
C6     C8      1.401   .     A
C7     C9      1.420   .     A
C7     C14     1.423   .     A
C8     C15     1.414   .     A
C8     C10     1.412   .     A
C9     C11     1.430   .     A
C9     C82     1.408   .     S
C10    C13     1.419   .     A
C10    C81     1.408   1_455 S
C11    C25     1.427   .     A
C11    C30     1.434   .     A
C12    O67     1.287   .     A
C12    C27     1.431   .     S
C12    O65     1.301   .     A
C13    C23     1.417   .     A
C14    C20     1.541   .     S
C14    C95     1.410   .     S
C15    C22     1.525   .     S
C15    C97     1.416   1_455 S
C16    H35     1.111   .     S
C16    C17     1.531   .     S
C16    C30     1.532   .     S
C16    H34     1.105   .     S
C17    H58     1.107   .     S
C17    H59     1.110   .     S
C17    H60     1.106   .     S
C18    H39     1.103   .     S
C18    H40     1.109   .     S
C18    C19     1.535   .     S
C19    H38     1.107   .     S
C19    H36     1.109   .     S
C19    H37     1.107   .     S
C20    H45     1.111   .     S
C20    H46     1.110   .     S
C20    C309    1.528   1_545 S
C21    H41     1.104   .     S
C21    H42     1.102   .     S
C21    H43     1.110   .     S
C21    C164    1.528   .     S
C22    C24     1.530   .     S
C22    H51     1.109   .     S
C22    H194    1.108   .     S
C23    O72     1.371   .     S
C23    C86     1.410   1_455 S
C24    H48     1.109   .     S
C24    H479    1.110   .     S
C24    H481    1.106   .     S
C25    O64     1.377   .     S
C25    C87     1.416   .     S
C26    C315    1.323   1_545 S
C26    H342    1.088   1_545 S
C27    C170    1.323   .     S
C27    H199    1.088   .     S
C28    O68     1.300   .     A
C28    O70     1.298   .     A
C29    O69     1.301   .     A
C29    O71     1.293   .     A
Cu31   O63     1.972   .     S
Cu31   Cu32    2.703   .     S
Cu31   O71     1.951   .     S
Cu31   O67     1.961   .     S
Cu31   N62     2.031   .     S
Cu31   O68     1.962   .     S
Cu32   O69     1.962   .     S
Cu32   O70     1.951   .     S
Cu32   O66     1.961   .     S
Cu32   N61     2.031   .     S
Cu32   O65     1.972   .     S
H47    C888    1.110   1_554 S
H49    C888    1.106   1_554 S
H50    C310    1.108   1_545 S
H52    O72     0.990   .     S
H53    O64     0.986   .     S
H54    C170    1.088   .     S
H55    C315    1.088   1_545 S
H56    N493    1.029   .     S
H57    N926    1.029   1_554 S
N61    H920    1.029   1_554 S
N61    N926    1.293   1_554 S
N62    N493    1.293   .     S
N62    H489    1.029   .     S
C73    O138    1.288   .     A
C73    C98     1.432   .     S
C73    O135    1.301   .     A
C74    C76     1.406   .     A
C74    C90     1.520   .     S
C74    C85     1.424   .     A
C75    C102    1.411   .     A
C75    C101    1.450   .     S
C75    C77     1.380   .     A
C76    C78     1.380   .     A
C76    C100    1.457   .     S
C77    C79     1.394   .     A
C77    H105    1.082   .     S
C78    H116    1.079   .     S
C78    C80     1.401   .     A
C79    C81     1.420   .     A
C79    C86     1.423   .     A
C80    C87     1.414   .     A
C80    C82     1.412   .     A
C81    C83     1.430   .     A
C81    C10     1.408   1_655 S
C82    C85     1.419   .     A
C83    C97     1.427   .     A
C83    C102    1.434   .     A
C84    O139    1.287   .     A
C84    C99     1.431   .     S
C84    O137    1.301   .     A
C85    C95     1.417   .     A
C86    C92     1.541   .     S
C86    C23     1.410   1_655 S
C87    C94     1.525   .     S
C88    H107    1.111   .     S
C88    C89     1.531   .     S
C88    C102    1.532   .     S
C88    H106    1.105   .     S
C89    H130    1.107   .     S
C89    H131    1.110   .     S
C89    H132    1.106   .     S
C90    H111    1.103   .     S
C90    H112    1.109   .     S
C90    C91     1.535   .     S
C91    H110    1.107   .     S
C91    H108    1.109   .     S
C91    H109    1.107   .     S
C92    H117    1.111   .     S
C92    H118    1.110   .     S
C92    C381    1.528   1_545 S
C93    H113    1.104   .     S
C93    H114    1.102   .     S
C93    H115    1.110   .     S
C93    C236    1.528   .     S
C94    C96     1.530   .     S
C94    H123    1.109   .     S
C94    H266    1.108   .     S
C95    O144    1.371   .     S
C96    H120    1.109   .     S
C96    H551    1.110   .     S
C96    H553    1.106   .     S
C97    O136    1.377   .     S
C97    C15     1.416   1_655 S
C98    C387    1.323   1_545 S
C98    H414    1.088   1_545 S
C99    C242    1.323   .     S
C99    H271    1.088   .     S
C100   O140    1.300   .     A
C100   O142    1.298   .     A
C101   O141    1.301   .     A
C101   O143    1.293   .     A
Cu103  O135    1.972   .     S
Cu103  Cu104   2.703   .     S
Cu103  O143    1.951   .     S
Cu103  O139    1.961   .     S
Cu103  N134    2.031   .     S
Cu103  O140    1.962   .     S
Cu104  O141    1.962   .     S
Cu104  O142    1.951   .     S
Cu104  O138    1.961   .     S
Cu104  N133    2.031   .     S
Cu104  O137    1.972   .     S
H119   C960    1.110   1_554 S
H121   C960    1.106   1_554 S
H122   C382    1.108   1_545 S
H124   O144    0.990   .     S
H125   O136    0.986   .     S
H126   C242    1.088   .     S
H127   C387    1.088   1_545 S
H128   N565    1.029   .     S
H129   N998    1.029   1_554 S
N133   H992    1.029   1_554 S
N133   N998    1.293   1_554 S
N134   N565    1.293   .     S
N134   H561    1.029   .     S
C145   O210    1.288   .     A
C145   C170    1.432   .     S
C145   O207    1.301   .     A
C146   C148    1.406   .     A
C146   C162    1.520   .     S
C146   C157    1.424   .     A
C147   C174    1.411   .     A
C147   C173    1.450   .     S
C147   C149    1.380   .     A
C148   C150    1.380   .     A
C148   C172    1.457   .     S
C149   C151    1.394   .     A
C149   H177    1.082   .     S
C150   H188    1.079   .     S
C150   C152    1.401   .     A
C151   C153    1.420   .     A
C151   C158    1.423   .     A
C152   C159    1.414   .     A
C152   C154    1.412   .     A
C153   C155    1.430   .     A
C153   C226    1.408   .     S
C154   C157    1.419   .     A
C154   C225    1.408   1_455 S
C155   C169    1.427   .     A
C155   C174    1.434   .     A
C156   O211    1.287   .     A
C156   C171    1.431   .     S
C156   O209    1.301   .     A
C157   C167    1.417   .     A
C158   C164    1.541   .     S
C158   C239    1.410   .     S
C159   C166    1.525   .     S
C159   C241    1.416   1_455 S
C160   H179    1.111   .     S
C160   C161    1.531   .     S
C160   C174    1.532   .     S
C160   H178    1.105   .     S
C161   H202    1.107   .     S
C161   H203    1.110   .     S
C161   H204    1.106   .     S
C162   H183    1.103   .     S
C162   H184    1.109   .     S
C162   C163    1.535   .     S
C163   H182    1.107   .     S
C163   H180    1.109   .     S
C163   H181    1.107   .     S
C164   H189    1.111   .     S
C164   H190    1.110   .     S
C165   H185    1.104   .     S
C165   H186    1.102   .     S
C165   H187    1.110   .     S
C165   C308    1.528   .     S
C166   C168    1.530   .     S
C166   H195    1.109   .     S
C166   H338    1.108   .     S
C167   O216    1.371   .     S
C167   C230    1.410   1_455 S
C168   H192    1.109   .     S
C168   H623    1.110   .     S
C168   H625    1.106   .     S
C169   O208    1.377   .     S
C169   C231    1.416   .     S
C171   C314    1.323   .     S
C171   H343    1.088   .     S
C172   O212    1.300   .     A
C172   O214    1.298   .     A
C173   O213    1.301   .     A
C173   O215    1.293   .     A
Cu175  O207    1.972   .     S
Cu175  Cu176   2.703   .     S
Cu175  O215    1.951   .     S
Cu175  O211    1.961   .     S
Cu175  N206    2.031   .     S
Cu175  O212    1.962   .     S
Cu176  O213    1.962   .     S
Cu176  O214    1.951   .     S
Cu176  O210    1.961   .     S
Cu176  N205    2.031   .     S
Cu176  O209    1.972   .     S
H191   C1032   1.110   1_554 S
H193   C1032   1.106   1_554 S
H196   O216    0.990   .     S
H197   O208    0.986   .     S
H198   C314    1.088   .     S
H200   N637    1.029   .     S
H201   N1070   1.029   1_554 S
N205   H1064   1.029   1_554 S
N205   N1070   1.293   1_554 S
N206   N637    1.293   .     S
N206   H633    1.029   .     S
C217   O282    1.288   .     A
C217   C242    1.432   .     S
C217   O279    1.301   .     A
C218   C220    1.406   .     A
C218   C234    1.520   .     S
C218   C229    1.424   .     A
C219   C246    1.411   .     A
C219   C245    1.450   .     S
C219   C221    1.380   .     A
C220   C222    1.380   .     A
C220   C244    1.457   .     S
C221   C223    1.394   .     A
C221   H249    1.082   .     S
C222   H260    1.079   .     S
C222   C224    1.401   .     A
C223   C225    1.420   .     A
C223   C230    1.423   .     A
C224   C231    1.414   .     A
C224   C226    1.412   .     A
C225   C227    1.430   .     A
C225   C154    1.408   1_655 S
C226   C229    1.419   .     A
C227   C241    1.427   .     A
C227   C246    1.434   .     A
C228   O283    1.287   .     A
C228   C243    1.431   .     S
C228   O281    1.301   .     A
C229   C239    1.417   .     A
C230   C236    1.541   .     S
C230   C167    1.410   1_655 S
C231   C238    1.525   .     S
C232   H251    1.111   .     S
C232   C233    1.531   .     S
C232   C246    1.532   .     S
C232   H250    1.105   .     S
C233   H274    1.107   .     S
C233   H275    1.110   .     S
C233   H276    1.106   .     S
C234   H255    1.103   .     S
C234   H256    1.109   .     S
C234   C235    1.535   .     S
C235   H254    1.107   .     S
C235   H252    1.109   .     S
C235   H253    1.107   .     S
C236   H261    1.111   .     S
C236   H262    1.110   .     S
C237   H257    1.104   .     S
C237   H258    1.102   .     S
C237   H259    1.110   .     S
C237   C380    1.528   .     S
C238   C240    1.530   .     S
C238   H267    1.109   .     S
C238   H410    1.108   .     S
C239   O288    1.371   .     S
C240   H264    1.109   .     S
C240   H695    1.110   .     S
C240   H697    1.106   .     S
C241   O280    1.377   .     S
C241   C159    1.416   1_655 S
C243   C386    1.323   .     S
C243   H415    1.088   .     S
C244   O284    1.300   .     A
C244   O286    1.298   .     A
C245   O285    1.301   .     A
C245   O287    1.293   .     A
Cu247  O279    1.972   .     S
Cu247  Cu248   2.703   .     S
Cu247  O287    1.951   .     S
Cu247  O283    1.961   .     S
Cu247  N278    2.031   .     S
Cu247  O284    1.962   .     S
Cu248  O285    1.962   .     S
Cu248  O286    1.951   .     S
Cu248  O282    1.961   .     S
Cu248  N277    2.031   .     S
Cu248  O281    1.972   .     S
H263   C1104   1.110   1_554 S
H265   C1104   1.106   1_554 S
H268   O288    0.990   .     S
H269   O280    0.986   .     S
H270   C386    1.088   .     S
H272   N709    1.029   .     S
H273   N1142   1.029   1_554 S
N277   H1136   1.029   1_554 S
N277   N1142   1.293   1_554 S
N278   N709    1.293   .     S
N278   H705    1.029   .     S
C289   O354    1.288   .     A
C289   C314    1.432   .     S
C289   O351    1.301   .     A
C290   C292    1.406   .     A
C290   C306    1.520   .     S
C290   C301    1.424   .     A
C291   C318    1.411   .     A
C291   C317    1.450   .     S
C291   C293    1.380   .     A
C292   C294    1.380   .     A
C292   C316    1.457   .     S
C293   C295    1.394   .     A
C293   H321    1.082   .     S
C294   H332    1.079   .     S
C294   C296    1.401   .     A
C295   C297    1.420   .     A
C295   C302    1.423   .     A
C296   C303    1.414   .     A
C296   C298    1.412   .     A
C297   C299    1.430   .     A
C297   C370    1.408   .     S
C298   C301    1.419   .     A
C298   C369    1.408   1_455 S
C299   C313    1.427   .     A
C299   C318    1.434   .     A
C300   O355    1.287   .     A
C300   C315    1.431   .     S
C300   O353    1.301   .     A
C301   C311    1.417   .     A
C302   C308    1.541   .     S
C302   C383    1.410   .     S
C303   C310    1.525   .     S
C303   C385    1.416   1_455 S
C304   H323    1.111   .     S
C304   C305    1.531   .     S
C304   C318    1.532   .     S
C304   H322    1.105   .     S
C305   H346    1.107   .     S
C305   H347    1.110   .     S
C305   H348    1.106   .     S
C306   H327    1.103   .     S
C306   H328    1.109   .     S
C306   C307    1.535   .     S
C307   H326    1.107   .     S
C307   H324    1.109   .     S
C307   H325    1.107   .     S
C308   H333    1.111   .     S
C308   H334    1.110   .     S
C309   H329    1.104   .     S
C309   H330    1.102   .     S
C309   H331    1.110   .     S
C309   C20     1.528   1_565 S
C310   C312    1.530   .     S
C310   H339    1.109   .     S
C310   H50     1.108   1_565 S
C311   O360    1.371   .     S
C311   C374    1.410   1_455 S
C312   H336    1.109   .     S
C312   H767    1.110   .     S
C312   H769    1.106   .     S
C313   O352    1.377   .     S
C313   C375    1.416   .     S
C315   C26     1.323   1_565 S
C315   H55     1.088   1_565 S
C316   O356    1.300   .     A
C316   O358    1.298   .     A
C317   O357    1.301   .     A
C317   O359    1.293   .     A
Cu319  O351    1.972   .     S
Cu319  Cu320   2.703   .     S
Cu319  O359    1.951   .     S
Cu319  O355    1.961   .     S
Cu319  N350    2.031   .     S
Cu319  O356    1.962   .     S
Cu320  O357    1.962   .     S
Cu320  O358    1.951   .     S
Cu320  O354    1.961   .     S
Cu320  N349    2.031   .     S
Cu320  O353    1.972   .     S
H335   C1176   1.110   1_554 S
H337   C1176   1.106   1_554 S
H340   O360    0.990   .     S
H341   O352    0.986   .     S
H342   C26     1.088   1_565 S
H344   N781    1.029   .     S
H345   N1214   1.029   1_554 S
N349   H1208   1.029   1_554 S
N349   N1214   1.293   1_554 S
N350   N781    1.293   .     S
N350   H777    1.029   .     S
C361   O426    1.288   .     A
C361   C386    1.432   .     S
C361   O423    1.301   .     A
C362   C364    1.406   .     A
C362   C378    1.520   .     S
C362   C373    1.424   .     A
C363   C390    1.411   .     A
C363   C389    1.450   .     S
C363   C365    1.380   .     A
C364   C366    1.380   .     A
C364   C388    1.457   .     S
C365   C367    1.394   .     A
C365   H393    1.082   .     S
C366   H404    1.079   .     S
C366   C368    1.401   .     A
C367   C369    1.420   .     A
C367   C374    1.423   .     A
C368   C375    1.414   .     A
C368   C370    1.412   .     A
C369   C371    1.430   .     A
C369   C298    1.408   1_655 S
C370   C373    1.419   .     A
C371   C385    1.427   .     A
C371   C390    1.434   .     A
C372   O427    1.287   .     A
C372   C387    1.431   .     S
C372   O425    1.301   .     A
C373   C383    1.417   .     A
C374   C380    1.541   .     S
C374   C311    1.410   1_655 S
C375   C382    1.525   .     S
C376   H395    1.111   .     S
C376   C377    1.531   .     S
C376   C390    1.532   .     S
C376   H394    1.105   .     S
C377   H418    1.107   .     S
C377   H419    1.110   .     S
C377   H420    1.106   .     S
C378   H399    1.103   .     S
C378   H400    1.109   .     S
C378   C379    1.535   .     S
C379   H398    1.107   .     S
C379   H396    1.109   .     S
C379   H397    1.107   .     S
C380   H405    1.111   .     S
C380   H406    1.110   .     S
C381   H401    1.104   .     S
C381   H402    1.102   .     S
C381   H403    1.110   .     S
C381   C92     1.528   1_565 S
C382   C384    1.530   .     S
C382   H411    1.109   .     S
C382   H122    1.108   1_565 S
C383   O432    1.371   .     S
C384   H408    1.109   .     S
C384   H839    1.110   .     S
C384   H841    1.106   .     S
C385   O424    1.377   .     S
C385   C303    1.416   1_655 S
C387   C98     1.323   1_565 S
C387   H127    1.088   1_565 S
C388   O428    1.300   .     A
C388   O430    1.298   .     A
C389   O429    1.301   .     A
C389   O431    1.293   .     A
Cu391  O423    1.972   .     S
Cu391  Cu392   2.703   .     S
Cu391  O431    1.951   .     S
Cu391  O427    1.961   .     S
Cu391  N422    2.031   .     S
Cu391  O428    1.962   .     S
Cu392  O429    1.962   .     S
Cu392  O430    1.951   .     S
Cu392  O426    1.961   .     S
Cu392  N421    2.031   .     S
Cu392  O425    1.972   .     S
H407   C1248   1.110   1_554 S
H409   C1248   1.106   1_554 S
H412   O432    0.990   .     S
H413   O424    0.986   .     S
H414   C98     1.088   1_565 S
H416   N853    1.029   .     S
H417   N1286   1.029   1_554 S
N421   H1280   1.029   1_554 S
N421   N1286   1.293   1_554 S
N422   N853    1.293   .     S
N422   H849    1.029   .     S
C433   O498    1.288   .     A
C433   C458    1.432   .     S
C433   O495    1.301   .     A
C434   C436    1.406   .     A
C434   C450    1.520   .     S
C434   C445    1.424   .     A
C435   C462    1.411   .     A
C435   C461    1.450   .     S
C435   C437    1.380   .     A
C436   C438    1.380   .     A
C436   C460    1.457   .     S
C437   C439    1.394   .     A
C437   H465    1.082   .     S
C438   H476    1.079   .     S
C438   C440    1.401   .     A
C439   C441    1.420   .     A
C439   C446    1.423   .     A
C440   C447    1.414   .     A
C440   C442    1.412   .     A
C441   C443    1.430   .     A
C441   C514    1.408   .     S
C442   C445    1.419   .     A
C442   C513    1.408   1_455 S
C443   C457    1.427   .     A
C443   C462    1.434   .     A
C444   O499    1.287   .     A
C444   C459    1.431   .     S
C444   O497    1.301   .     A
C445   C455    1.417   .     A
C446   C452    1.541   .     S
C446   C527    1.410   .     S
C447   C454    1.525   .     S
C447   C529    1.416   1_455 S
C448   H467    1.111   .     S
C448   C449    1.531   .     S
C448   C462    1.532   .     S
C448   H466    1.105   .     S
C449   H490    1.107   .     S
C449   H491    1.110   .     S
C449   H492    1.106   .     S
C450   H471    1.103   .     S
C450   H472    1.109   .     S
C450   C451    1.535   .     S
C451   H470    1.107   .     S
C451   H468    1.109   .     S
C451   H469    1.107   .     S
C452   H477    1.111   .     S
C452   H478    1.110   .     S
C452   C741    1.528   1_545 S
C453   H473    1.104   .     S
C453   H474    1.102   .     S
C453   H475    1.110   .     S
C453   C596    1.528   .     S
C454   C456    1.530   .     S
C454   H483    1.109   .     S
C454   H626    1.108   .     S
C455   O504    1.371   .     S
C455   C518    1.410   1_455 S
C456   H480    1.109   .     S
C456   H911    1.110   .     S
C456   H913    1.106   .     S
C457   O496    1.377   .     S
C457   C519    1.416   .     S
C458   C747    1.323   1_545 S
C458   H774    1.088   1_545 S
C459   C602    1.323   .     S
C459   H631    1.088   .     S
C460   O500    1.300   .     A
C460   O502    1.298   .     A
C461   O501    1.301   .     A
C461   O503    1.293   .     A
Cu463  O495    1.972   .     S
Cu463  Cu464   2.703   .     S
Cu463  O503    1.951   .     S
Cu463  O499    1.961   .     S
Cu463  N494    2.031   .     S
Cu463  O500    1.962   .     S
Cu464  O501    1.962   .     S
Cu464  O502    1.951   .     S
Cu464  O498    1.961   .     S
Cu464  N493    2.031   .     S
Cu464  O497    1.972   .     S
H482   C742    1.108   1_545 S
H484   O504    0.990   .     S
H485   O496    0.986   .     S
H486   C602    1.088   .     S
H487   C747    1.088   1_545 S
H488   N925    1.029   .     S
N494   N925    1.293   .     S
N494   H921    1.029   .     S
C505   O570    1.288   .     A
C505   C530    1.432   .     S
C505   O567    1.301   .     A
C506   C508    1.406   .     A
C506   C522    1.520   .     S
C506   C517    1.424   .     A
C507   C534    1.411   .     A
C507   C533    1.450   .     S
C507   C509    1.380   .     A
C508   C510    1.380   .     A
C508   C532    1.457   .     S
C509   C511    1.394   .     A
C509   H537    1.082   .     S
C510   H548    1.079   .     S
C510   C512    1.401   .     A
C511   C513    1.420   .     A
C511   C518    1.423   .     A
C512   C519    1.414   .     A
C512   C514    1.412   .     A
C513   C515    1.430   .     A
C513   C442    1.408   1_655 S
C514   C517    1.419   .     A
C515   C529    1.427   .     A
C515   C534    1.434   .     A
C516   O571    1.287   .     A
C516   C531    1.431   .     S
C516   O569    1.301   .     A
C517   C527    1.417   .     A
C518   C524    1.541   .     S
C518   C455    1.410   1_655 S
C519   C526    1.525   .     S
C520   H539    1.111   .     S
C520   C521    1.531   .     S
C520   C534    1.532   .     S
C520   H538    1.105   .     S
C521   H562    1.107   .     S
C521   H563    1.110   .     S
C521   H564    1.106   .     S
C522   H543    1.103   .     S
C522   H544    1.109   .     S
C522   C523    1.535   .     S
C523   H542    1.107   .     S
C523   H540    1.109   .     S
C523   H541    1.107   .     S
C524   H549    1.111   .     S
C524   H550    1.110   .     S
C524   C813    1.528   1_545 S
C525   H545    1.104   .     S
C525   H546    1.102   .     S
C525   H547    1.110   .     S
C525   C668    1.528   .     S
C526   C528    1.530   .     S
C526   H555    1.109   .     S
C526   H698    1.108   .     S
C527   O576    1.371   .     S
C528   H552    1.109   .     S
C528   H983    1.110   .     S
C528   H985    1.106   .     S
C529   O568    1.377   .     S
C529   C447    1.416   1_655 S
C530   C819    1.323   1_545 S
C530   H846    1.088   1_545 S
C531   C674    1.323   .     S
C531   H703    1.088   .     S
C532   O572    1.300   .     A
C532   O574    1.298   .     A
C533   O573    1.301   .     A
C533   O575    1.293   .     A
Cu535  O567    1.972   .     S
Cu535  Cu536   2.703   .     S
Cu535  O575    1.951   .     S
Cu535  O571    1.961   .     S
Cu535  N566    2.031   .     S
Cu535  O572    1.962   .     S
Cu536  O573    1.962   .     S
Cu536  O574    1.951   .     S
Cu536  O570    1.961   .     S
Cu536  N565    2.031   .     S
Cu536  O569    1.972   .     S
H554   C814    1.108   1_545 S
H556   O576    0.990   .     S
H557   O568    0.986   .     S
H558   C674    1.088   .     S
H559   C819    1.088   1_545 S
H560   N997    1.029   .     S
N566   N997    1.293   .     S
N566   H993    1.029   .     S
C577   O642    1.288   .     A
C577   C602    1.432   .     S
C577   O639    1.301   .     A
C578   C580    1.406   .     A
C578   C594    1.520   .     S
C578   C589    1.424   .     A
C579   C606    1.411   .     A
C579   C605    1.450   .     S
C579   C581    1.380   .     A
C580   C582    1.380   .     A
C580   C604    1.457   .     S
C581   C583    1.394   .     A
C581   H609    1.082   .     S
C582   H620    1.079   .     S
C582   C584    1.401   .     A
C583   C585    1.420   .     A
C583   C590    1.423   .     A
C584   C591    1.414   .     A
C584   C586    1.412   .     A
C585   C587    1.430   .     A
C585   C658    1.408   .     S
C586   C589    1.419   .     A
C586   C657    1.408   1_455 S
C587   C601    1.427   .     A
C587   C606    1.434   .     A
C588   O643    1.287   .     A
C588   C603    1.431   .     S
C588   O641    1.301   .     A
C589   C599    1.417   .     A
C590   C596    1.541   .     S
C590   C671    1.410   .     S
C591   C598    1.525   .     S
C591   C673    1.416   1_455 S
C592   H611    1.111   .     S
C592   C593    1.531   .     S
C592   C606    1.532   .     S
C592   H610    1.105   .     S
C593   H634    1.107   .     S
C593   H635    1.110   .     S
C593   H636    1.106   .     S
C594   H615    1.103   .     S
C594   H616    1.109   .     S
C594   C595    1.535   .     S
C595   H614    1.107   .     S
C595   H612    1.109   .     S
C595   H613    1.107   .     S
C596   H621    1.111   .     S
C596   H622    1.110   .     S
C597   H617    1.104   .     S
C597   H618    1.102   .     S
C597   H619    1.110   .     S
C597   C740    1.528   .     S
C598   C600    1.530   .     S
C598   H627    1.109   .     S
C598   H770    1.108   .     S
C599   O648    1.371   .     S
C599   C662    1.410   1_455 S
C600   H624    1.109   .     S
C600   H1055   1.110   .     S
C600   H1057   1.106   .     S
C601   O640    1.377   .     S
C601   C663    1.416   .     S
C603   C746    1.323   .     S
C603   H775    1.088   .     S
C604   O644    1.300   .     A
C604   O646    1.298   .     A
C605   O645    1.301   .     A
C605   O647    1.293   .     A
Cu607  O639    1.972   .     S
Cu607  Cu608   2.703   .     S
Cu607  O647    1.951   .     S
Cu607  O643    1.961   .     S
Cu607  N638    2.031   .     S
Cu607  O644    1.962   .     S
Cu608  O645    1.962   .     S
Cu608  O646    1.951   .     S
Cu608  O642    1.961   .     S
Cu608  N637    2.031   .     S
Cu608  O641    1.972   .     S
H628   O648    0.990   .     S
H629   O640    0.986   .     S
H630   C746    1.088   .     S
H632   N1069   1.029   .     S
N638   N1069   1.293   .     S
N638   H1065   1.029   .     S
C649   O714    1.288   .     A
C649   C674    1.432   .     S
C649   O711    1.301   .     A
C650   C652    1.406   .     A
C650   C666    1.520   .     S
C650   C661    1.424   .     A
C651   C678    1.411   .     A
C651   C677    1.450   .     S
C651   C653    1.380   .     A
C652   C654    1.380   .     A
C652   C676    1.457   .     S
C653   C655    1.394   .     A
C653   H681    1.082   .     S
C654   H692    1.079   .     S
C654   C656    1.401   .     A
C655   C657    1.420   .     A
C655   C662    1.423   .     A
C656   C663    1.414   .     A
C656   C658    1.412   .     A
C657   C659    1.430   .     A
C657   C586    1.408   1_655 S
C658   C661    1.419   .     A
C659   C673    1.427   .     A
C659   C678    1.434   .     A
C660   O715    1.287   .     A
C660   C675    1.431   .     S
C660   O713    1.301   .     A
C661   C671    1.417   .     A
C662   C668    1.541   .     S
C662   C599    1.410   1_655 S
C663   C670    1.525   .     S
C664   H683    1.111   .     S
C664   C665    1.531   .     S
C664   C678    1.532   .     S
C664   H682    1.105   .     S
C665   H706    1.107   .     S
C665   H707    1.110   .     S
C665   H708    1.106   .     S
C666   H687    1.103   .     S
C666   H688    1.109   .     S
C666   C667    1.535   .     S
C667   H686    1.107   .     S
C667   H684    1.109   .     S
C667   H685    1.107   .     S
C668   H693    1.111   .     S
C668   H694    1.110   .     S
C669   H689    1.104   .     S
C669   H690    1.102   .     S
C669   H691    1.110   .     S
C669   C812    1.528   .     S
C670   C672    1.530   .     S
C670   H699    1.109   .     S
C670   H842    1.108   .     S
C671   O720    1.371   .     S
C672   H696    1.109   .     S
C672   H1127   1.110   .     S
C672   H1129   1.106   .     S
C673   O712    1.377   .     S
C673   C591    1.416   1_655 S
C675   C818    1.323   .     S
C675   H847    1.088   .     S
C676   O716    1.300   .     A
C676   O718    1.298   .     A
C677   O717    1.301   .     A
C677   O719    1.293   .     A
Cu679  O711    1.972   .     S
Cu679  Cu680   2.703   .     S
Cu679  O719    1.951   .     S
Cu679  O715    1.961   .     S
Cu679  N710    2.031   .     S
Cu679  O716    1.962   .     S
Cu680  O717    1.962   .     S
Cu680  O718    1.951   .     S
Cu680  O714    1.961   .     S
Cu680  N709    2.031   .     S
Cu680  O713    1.972   .     S
H700   O720    0.990   .     S
H701   O712    0.986   .     S
H702   C818    1.088   .     S
H704   N1141   1.029   .     S
N710   N1141   1.293   .     S
N710   H1137   1.029   .     S
C721   O786    1.288   .     A
C721   C746    1.432   .     S
C721   O783    1.301   .     A
C722   C724    1.406   .     A
C722   C738    1.520   .     S
C722   C733    1.424   .     A
C723   C750    1.411   .     A
C723   C749    1.450   .     S
C723   C725    1.380   .     A
C724   C726    1.380   .     A
C724   C748    1.457   .     S
C725   C727    1.394   .     A
C725   H753    1.082   .     S
C726   H764    1.079   .     S
C726   C728    1.401   .     A
C727   C729    1.420   .     A
C727   C734    1.423   .     A
C728   C735    1.414   .     A
C728   C730    1.412   .     A
C729   C731    1.430   .     A
C729   C802    1.408   .     S
C730   C733    1.419   .     A
C730   C801    1.408   1_455 S
C731   C745    1.427   .     A
C731   C750    1.434   .     A
C732   O787    1.287   .     A
C732   C747    1.431   .     S
C732   O785    1.301   .     A
C733   C743    1.417   .     A
C734   C740    1.541   .     S
C734   C815    1.410   .     S
C735   C742    1.525   .     S
C735   C817    1.416   1_455 S
C736   H755    1.111   .     S
C736   C737    1.531   .     S
C736   C750    1.532   .     S
C736   H754    1.105   .     S
C737   H778    1.107   .     S
C737   H779    1.110   .     S
C737   H780    1.106   .     S
C738   H759    1.103   .     S
C738   H760    1.109   .     S
C738   C739    1.535   .     S
C739   H758    1.107   .     S
C739   H756    1.109   .     S
C739   H757    1.107   .     S
C740   H765    1.111   .     S
C740   H766    1.110   .     S
C741   H761    1.104   .     S
C741   H762    1.102   .     S
C741   H763    1.110   .     S
C741   C452    1.528   1_565 S
C742   C744    1.530   .     S
C742   H771    1.109   .     S
C742   H482    1.108   1_565 S
C743   O792    1.371   .     S
C743   C806    1.410   1_455 S
C744   H768    1.109   .     S
C744   H1199   1.110   .     S
C744   H1201   1.106   .     S
C745   O784    1.377   .     S
C745   C807    1.416   .     S
C747   C458    1.323   1_565 S
C747   H487    1.088   1_565 S
C748   O788    1.300   .     A
C748   O790    1.298   .     A
C749   O789    1.301   .     A
C749   O791    1.293   .     A
Cu751  O783    1.972   .     S
Cu751  Cu752   2.703   .     S
Cu751  O791    1.951   .     S
Cu751  O787    1.961   .     S
Cu751  N782    2.031   .     S
Cu751  O788    1.962   .     S
Cu752  O789    1.962   .     S
Cu752  O790    1.951   .     S
Cu752  O786    1.961   .     S
Cu752  N781    2.031   .     S
Cu752  O785    1.972   .     S
H772   O792    0.990   .     S
H773   O784    0.986   .     S
H774   C458    1.088   1_565 S
H776   N1213   1.029   .     S
N782   N1213   1.293   .     S
N782   H1209   1.029   .     S
C793   O858    1.288   .     A
C793   C818    1.432   .     S
C793   O855    1.301   .     A
C794   C796    1.406   .     A
C794   C810    1.520   .     S
C794   C805    1.424   .     A
C795   C822    1.411   .     A
C795   C821    1.450   .     S
C795   C797    1.380   .     A
C796   C798    1.380   .     A
C796   C820    1.457   .     S
C797   C799    1.394   .     A
C797   H825    1.082   .     S
C798   H836    1.079   .     S
C798   C800    1.401   .     A
C799   C801    1.420   .     A
C799   C806    1.423   .     A
C800   C807    1.414   .     A
C800   C802    1.412   .     A
C801   C803    1.430   .     A
C801   C730    1.408   1_655 S
C802   C805    1.419   .     A
C803   C817    1.427   .     A
C803   C822    1.434   .     A
C804   O859    1.287   .     A
C804   C819    1.431   .     S
C804   O857    1.301   .     A
C805   C815    1.417   .     A
C806   C812    1.541   .     S
C806   C743    1.410   1_655 S
C807   C814    1.525   .     S
C808   H827    1.111   .     S
C808   C809    1.531   .     S
C808   C822    1.532   .     S
C808   H826    1.105   .     S
C809   H850    1.107   .     S
C809   H851    1.110   .     S
C809   H852    1.106   .     S
C810   H831    1.103   .     S
C810   H832    1.109   .     S
C810   C811    1.535   .     S
C811   H830    1.107   .     S
C811   H828    1.109   .     S
C811   H829    1.107   .     S
C812   H837    1.111   .     S
C812   H838    1.110   .     S
C813   H833    1.104   .     S
C813   H834    1.102   .     S
C813   H835    1.110   .     S
C813   C524    1.528   1_565 S
C814   C816    1.530   .     S
C814   H843    1.109   .     S
C814   H554    1.108   1_565 S
C815   O864    1.371   .     S
C816   H840    1.109   .     S
C816   H1271   1.110   .     S
C816   H1273   1.106   .     S
C817   O856    1.377   .     S
C817   C735    1.416   1_655 S
C819   C530    1.323   1_565 S
C819   H559    1.088   1_565 S
C820   O860    1.300   .     A
C820   O862    1.298   .     A
C821   O861    1.301   .     A
C821   O863    1.293   .     A
Cu823  O855    1.972   .     S
Cu823  Cu824   2.703   .     S
Cu823  O863    1.951   .     S
Cu823  O859    1.961   .     S
Cu823  N854    2.031   .     S
Cu823  O860    1.962   .     S
Cu824  O861    1.962   .     S
Cu824  O862    1.951   .     S
Cu824  O858    1.961   .     S
Cu824  N853    2.031   .     S
Cu824  O857    1.972   .     S
H844   O864    0.990   .     S
H845   O856    0.986   .     S
H846   C530    1.088   1_565 S
H848   N1285   1.029   .     S
N854   N1285   1.293   .     S
N854   H1281   1.029   .     S
C865   O930    1.288   .     A
C865   C890    1.432   .     S
C865   O927    1.301   .     A
C866   C868    1.406   .     A
C866   C882    1.520   .     S
C866   C877    1.424   .     A
C867   C894    1.411   .     A
C867   C893    1.450   .     S
C867   C869    1.380   .     A
C868   C870    1.380   .     A
C868   C892    1.457   .     S
C869   C871    1.394   .     A
C869   H897    1.082   .     S
C870   H908    1.079   .     S
C870   C872    1.401   .     A
C871   C873    1.420   .     A
C871   C878    1.423   .     A
C872   C879    1.414   .     A
C872   C874    1.412   .     A
C873   C875    1.430   .     A
C873   C946    1.408   .     S
C874   C877    1.419   .     A
C874   C945    1.408   1_455 S
C875   C889    1.427   .     A
C875   C894    1.434   .     A
C876   O931    1.287   .     A
C876   C891    1.431   .     S
C876   O929    1.301   .     A
C877   C887    1.417   .     A
C878   C884    1.541   .     S
C878   C959    1.410   .     S
C879   C886    1.525   .     S
C879   C961    1.416   1_455 S
C880   H899    1.111   .     S
C880   C881    1.531   .     S
C880   C894    1.532   .     S
C880   H898    1.105   .     S
C881   H922    1.107   .     S
C881   H923    1.110   .     S
C881   H924    1.106   .     S
C882   H903    1.103   .     S
C882   H904    1.109   .     S
C882   C883    1.535   .     S
C883   H902    1.107   .     S
C883   H900    1.109   .     S
C883   H901    1.107   .     S
C884   H909    1.111   .     S
C884   H910    1.110   .     S
C884   C1173   1.528   1_545 S
C885   H905    1.104   .     S
C885   H906    1.102   .     S
C885   H907    1.110   .     S
C885   C1028   1.528   .     S
C886   C888    1.530   .     S
C886   H915    1.109   .     S
C886   H1058   1.108   .     S
C887   O936    1.371   .     S
C887   C950    1.410   1_455 S
C888   H912    1.109   .     S
C888   H47     1.110   1_556 S
C888   H49     1.106   1_556 S
C889   O928    1.377   .     S
C889   C951    1.416   .     S
C890   C1179   1.323   1_545 S
C890   H1206   1.088   1_545 S
C891   C1034   1.323   .     S
C891   H1063   1.088   .     S
C892   O932    1.300   .     A
C892   O934    1.298   .     A
C893   O933    1.301   .     A
C893   O935    1.293   .     A
Cu895  O927    1.972   .     S
Cu895  Cu896   2.703   .     S
Cu895  O935    1.951   .     S
Cu895  O931    1.961   .     S
Cu895  N926    2.031   .     S
Cu895  O932    1.962   .     S
Cu896  O933    1.962   .     S
Cu896  O934    1.951   .     S
Cu896  O930    1.961   .     S
Cu896  N925    2.031   .     S
Cu896  O929    1.972   .     S
H914   C1174   1.108   1_545 S
H916   O936    0.990   .     S
H917   O928    0.986   .     S
H918   C1034   1.088   .     S
H919   C1179   1.088   1_545 S
H920   N61     1.029   1_556 S
N926   N61     1.293   1_556 S
N926   H57     1.029   1_556 S
C937   O1002   1.288   .     A
C937   C962    1.432   .     S
C937   O999    1.301   .     A
C938   C940    1.406   .     A
C938   C954    1.520   .     S
C938   C949    1.424   .     A
C939   C966    1.411   .     A
C939   C965    1.450   .     S
C939   C941    1.380   .     A
C940   C942    1.380   .     A
C940   C964    1.457   .     S
C941   C943    1.394   .     A
C941   H969    1.082   .     S
C942   H980    1.079   .     S
C942   C944    1.401   .     A
C943   C945    1.420   .     A
C943   C950    1.423   .     A
C944   C951    1.414   .     A
C944   C946    1.412   .     A
C945   C947    1.430   .     A
C945   C874    1.408   1_655 S
C946   C949    1.419   .     A
C947   C961    1.427   .     A
C947   C966    1.434   .     A
C948   O1003   1.287   .     A
C948   C963    1.431   .     S
C948   O1001   1.301   .     A
C949   C959    1.417   .     A
C950   C956    1.541   .     S
C950   C887    1.410   1_655 S
C951   C958    1.525   .     S
C952   H971    1.111   .     S
C952   C953    1.531   .     S
C952   C966    1.532   .     S
C952   H970    1.105   .     S
C953   H994    1.107   .     S
C953   H995    1.110   .     S
C953   H996    1.106   .     S
C954   H975    1.103   .     S
C954   H976    1.109   .     S
C954   C955    1.535   .     S
C955   H974    1.107   .     S
C955   H972    1.109   .     S
C955   H973    1.107   .     S
C956   H981    1.111   .     S
C956   H982    1.110   .     S
C956   C1245   1.528   1_545 S
C957   H977    1.104   .     S
C957   H978    1.102   .     S
C957   H979    1.110   .     S
C957   C1100   1.528   .     S
C958   C960    1.530   .     S
C958   H987    1.109   .     S
C958   H1130   1.108   .     S
C959   O1008   1.371   .     S
C960   H984    1.109   .     S
C960   H119    1.110   1_556 S
C960   H121    1.106   1_556 S
C961   O1000   1.377   .     S
C961   C879    1.416   1_655 S
C962   C1251   1.323   1_545 S
C962   H1278   1.088   1_545 S
C963   C1106   1.323   .     S
C963   H1135   1.088   .     S
C964   O1004   1.300   .     A
C964   O1006   1.298   .     A
C965   O1005   1.301   .     A
C965   O1007   1.293   .     A
Cu967  O999    1.972   .     S
Cu967  Cu968   2.703   .     S
Cu967  O1007   1.951   .     S
Cu967  O1003   1.961   .     S
Cu967  N998    2.031   .     S
Cu967  O1004   1.962   .     S
Cu968  O1005   1.962   .     S
Cu968  O1006   1.951   .     S
Cu968  O1002   1.961   .     S
Cu968  N997    2.031   .     S
Cu968  O1001   1.972   .     S
H986   C1246   1.108   1_545 S
H988   O1008   0.990   .     S
H989   O1000   0.986   .     S
H990   C1106   1.088   .     S
H991   C1251   1.088   1_545 S
H992   N133    1.029   1_556 S
N998   N133    1.293   1_556 S
N998   H129    1.029   1_556 S
C1009  O1074   1.288   .     A
C1009  C1034   1.432   .     S
C1009  O1071   1.301   .     A
C1010  C1012   1.406   .     A
C1010  C1026   1.520   .     S
C1010  C1021   1.424   .     A
C1011  C1038   1.411   .     A
C1011  C1037   1.450   .     S
C1011  C1013   1.380   .     A
C1012  C1014   1.380   .     A
C1012  C1036   1.457   .     S
C1013  C1015   1.394   .     A
C1013  H1041   1.082   .     S
C1014  H1052   1.079   .     S
C1014  C1016   1.401   .     A
C1015  C1017   1.420   .     A
C1015  C1022   1.423   .     A
C1016  C1023   1.414   .     A
C1016  C1018   1.412   .     A
C1017  C1019   1.430   .     A
C1017  C1090   1.408   .     S
C1018  C1021   1.419   .     A
C1018  C1089   1.408   1_455 S
C1019  C1033   1.427   .     A
C1019  C1038   1.434   .     A
C1020  O1075   1.287   .     A
C1020  C1035   1.431   .     S
C1020  O1073   1.301   .     A
C1021  C1031   1.417   .     A
C1022  C1028   1.541   .     S
C1022  C1103   1.410   .     S
C1023  C1030   1.525   .     S
C1023  C1105   1.416   1_455 S
C1024  H1043   1.111   .     S
C1024  C1025   1.531   .     S
C1024  C1038   1.532   .     S
C1024  H1042   1.105   .     S
C1025  H1066   1.107   .     S
C1025  H1067   1.110   .     S
C1025  H1068   1.106   .     S
C1026  H1047   1.103   .     S
C1026  H1048   1.109   .     S
C1026  C1027   1.535   .     S
C1027  H1046   1.107   .     S
C1027  H1044   1.109   .     S
C1027  H1045   1.107   .     S
C1028  H1053   1.111   .     S
C1028  H1054   1.110   .     S
C1029  H1049   1.104   .     S
C1029  H1050   1.102   .     S
C1029  H1051   1.110   .     S
C1029  C1172   1.528   .     S
C1030  C1032   1.530   .     S
C1030  H1059   1.109   .     S
C1030  H1202   1.108   .     S
C1031  O1080   1.371   .     S
C1031  C1094   1.410   1_455 S
C1032  H1056   1.109   .     S
C1032  H191    1.110   1_556 S
C1032  H193    1.106   1_556 S
C1033  O1072   1.377   .     S
C1033  C1095   1.416   .     S
C1035  C1178   1.323   .     S
C1035  H1207   1.088   .     S
C1036  O1076   1.300   .     A
C1036  O1078   1.298   .     A
C1037  O1077   1.301   .     A
C1037  O1079   1.293   .     A
Cu1039 O1071   1.972   .     S
Cu1039 Cu1040  2.703   .     S
Cu1039 O1079   1.951   .     S
Cu1039 O1075   1.961   .     S
Cu1039 N1070   2.031   .     S
Cu1039 O1076   1.962   .     S
Cu1040 O1077   1.962   .     S
Cu1040 O1078   1.951   .     S
Cu1040 O1074   1.961   .     S
Cu1040 N1069   2.031   .     S
Cu1040 O1073   1.972   .     S
H1060  O1080   0.990   .     S
H1061  O1072   0.986   .     S
H1062  C1178   1.088   .     S
H1064  N205    1.029   1_556 S
N1070  N205    1.293   1_556 S
N1070  H201    1.029   1_556 S
C1081  O1146   1.288   .     A
C1081  C1106   1.432   .     S
C1081  O1143   1.301   .     A
C1082  C1084   1.406   .     A
C1082  C1098   1.520   .     S
C1082  C1093   1.424   .     A
C1083  C1110   1.411   .     A
C1083  C1109   1.450   .     S
C1083  C1085   1.380   .     A
C1084  C1086   1.380   .     A
C1084  C1108   1.457   .     S
C1085  C1087   1.394   .     A
C1085  H1113   1.082   .     S
C1086  H1124   1.079   .     S
C1086  C1088   1.401   .     A
C1087  C1089   1.420   .     A
C1087  C1094   1.423   .     A
C1088  C1095   1.414   .     A
C1088  C1090   1.412   .     A
C1089  C1091   1.430   .     A
C1089  C1018   1.408   1_655 S
C1090  C1093   1.419   .     A
C1091  C1105   1.427   .     A
C1091  C1110   1.434   .     A
C1092  O1147   1.287   .     A
C1092  C1107   1.431   .     S
C1092  O1145   1.301   .     A
C1093  C1103   1.417   .     A
C1094  C1100   1.541   .     S
C1094  C1031   1.410   1_655 S
C1095  C1102   1.525   .     S
C1096  H1115   1.111   .     S
C1096  C1097   1.531   .     S
C1096  C1110   1.532   .     S
C1096  H1114   1.105   .     S
C1097  H1138   1.107   .     S
C1097  H1139   1.110   .     S
C1097  H1140   1.106   .     S
C1098  H1119   1.103   .     S
C1098  H1120   1.109   .     S
C1098  C1099   1.535   .     S
C1099  H1118   1.107   .     S
C1099  H1116   1.109   .     S
C1099  H1117   1.107   .     S
C1100  H1125   1.111   .     S
C1100  H1126   1.110   .     S
C1101  H1121   1.104   .     S
C1101  H1122   1.102   .     S
C1101  H1123   1.110   .     S
C1101  C1244   1.528   .     S
C1102  C1104   1.530   .     S
C1102  H1131   1.109   .     S
C1102  H1274   1.108   .     S
C1103  O1152   1.371   .     S
C1104  H1128   1.109   .     S
C1104  H263    1.110   1_556 S
C1104  H265    1.106   1_556 S
C1105  O1144   1.377   .     S
C1105  C1023   1.416   1_655 S
C1107  C1250   1.323   .     S
C1107  H1279   1.088   .     S
C1108  O1148   1.300   .     A
C1108  O1150   1.298   .     A
C1109  O1149   1.301   .     A
C1109  O1151   1.293   .     A
Cu1111 O1143   1.972   .     S
Cu1111 Cu1112  2.703   .     S
Cu1111 O1151   1.951   .     S
Cu1111 O1147   1.961   .     S
Cu1111 N1142   2.031   .     S
Cu1111 O1148   1.962   .     S
Cu1112 O1149   1.962   .     S
Cu1112 O1150   1.951   .     S
Cu1112 O1146   1.961   .     S
Cu1112 N1141   2.031   .     S
Cu1112 O1145   1.972   .     S
H1132  O1152   0.990   .     S
H1133  O1144   0.986   .     S
H1134  C1250   1.088   .     S
H1136  N277    1.029   1_556 S
N1142  N277    1.293   1_556 S
N1142  H273    1.029   1_556 S
C1153  O1218   1.288   .     A
C1153  C1178   1.432   .     S
C1153  O1215   1.301   .     A
C1154  C1156   1.406   .     A
C1154  C1170   1.520   .     S
C1154  C1165   1.424   .     A
C1155  C1182   1.411   .     A
C1155  C1181   1.450   .     S
C1155  C1157   1.380   .     A
C1156  C1158   1.380   .     A
C1156  C1180   1.457   .     S
C1157  C1159   1.394   .     A
C1157  H1185   1.082   .     S
C1158  H1196   1.079   .     S
C1158  C1160   1.401   .     A
C1159  C1161   1.420   .     A
C1159  C1166   1.423   .     A
C1160  C1167   1.414   .     A
C1160  C1162   1.412   .     A
C1161  C1163   1.430   .     A
C1161  C1234   1.408   .     S
C1162  C1165   1.419   .     A
C1162  C1233   1.408   1_455 S
C1163  C1177   1.427   .     A
C1163  C1182   1.434   .     A
C1164  O1219   1.287   .     A
C1164  C1179   1.431   .     S
C1164  O1217   1.301   .     A
C1165  C1175   1.417   .     A
C1166  C1172   1.541   .     S
C1166  C1247   1.410   .     S
C1167  C1174   1.525   .     S
C1167  C1249   1.416   1_455 S
C1168  H1187   1.111   .     S
C1168  C1169   1.531   .     S
C1168  C1182   1.532   .     S
C1168  H1186   1.105   .     S
C1169  H1210   1.107   .     S
C1169  H1211   1.110   .     S
C1169  H1212   1.106   .     S
C1170  H1191   1.103   .     S
C1170  H1192   1.109   .     S
C1170  C1171   1.535   .     S
C1171  H1190   1.107   .     S
C1171  H1188   1.109   .     S
C1171  H1189   1.107   .     S
C1172  H1197   1.111   .     S
C1172  H1198   1.110   .     S
C1173  H1193   1.104   .     S
C1173  H1194   1.102   .     S
C1173  H1195   1.110   .     S
C1173  C884    1.528   1_565 S
C1174  C1176   1.530   .     S
C1174  H1203   1.109   .     S
C1174  H914    1.108   1_565 S
C1175  O1224   1.371   .     S
C1175  C1238   1.410   1_455 S
C1176  H1200   1.109   .     S
C1176  H335    1.110   1_556 S
C1176  H337    1.106   1_556 S
C1177  O1216   1.377   .     S
C1177  C1239   1.416   .     S
C1179  C890    1.323   1_565 S
C1179  H919    1.088   1_565 S
C1180  O1220   1.300   .     A
C1180  O1222   1.298   .     A
C1181  O1221   1.301   .     A
C1181  O1223   1.293   .     A
Cu1183 O1215   1.972   .     S
Cu1183 Cu1184  2.703   .     S
Cu1183 O1223   1.951   .     S
Cu1183 O1219   1.961   .     S
Cu1183 N1214   2.031   .     S
Cu1183 O1220   1.962   .     S
Cu1184 O1221   1.962   .     S
Cu1184 O1222   1.951   .     S
Cu1184 O1218   1.961   .     S
Cu1184 N1213   2.031   .     S
Cu1184 O1217   1.972   .     S
H1204  O1224   0.990   .     S
H1205  O1216   0.986   .     S
H1206  C890    1.088   1_565 S
H1208  N349    1.029   1_556 S
N1214  N349    1.293   1_556 S
N1214  H345    1.029   1_556 S
C1225  O1290   1.288   .     A
C1225  C1250   1.432   .     S
C1225  O1287   1.301   .     A
C1226  C1228   1.406   .     A
C1226  C1242   1.520   .     S
C1226  C1237   1.424   .     A
C1227  C1254   1.411   .     A
C1227  C1253   1.450   .     S
C1227  C1229   1.380   .     A
C1228  C1230   1.380   .     A
C1228  C1252   1.457   .     S
C1229  C1231   1.394   .     A
C1229  H1257   1.082   .     S
C1230  H1268   1.079   .     S
C1230  C1232   1.401   .     A
C1231  C1233   1.420   .     A
C1231  C1238   1.423   .     A
C1232  C1239   1.414   .     A
C1232  C1234   1.412   .     A
C1233  C1235   1.430   .     A
C1233  C1162   1.408   1_655 S
C1234  C1237   1.419   .     A
C1235  C1249   1.427   .     A
C1235  C1254   1.434   .     A
C1236  O1291   1.287   .     A
C1236  C1251   1.431   .     S
C1236  O1289   1.301   .     A
C1237  C1247   1.417   .     A
C1238  C1244   1.541   .     S
C1238  C1175   1.410   1_655 S
C1239  C1246   1.525   .     S
C1240  H1259   1.111   .     S
C1240  C1241   1.531   .     S
C1240  C1254   1.532   .     S
C1240  H1258   1.105   .     S
C1241  H1282   1.107   .     S
C1241  H1283   1.110   .     S
C1241  H1284   1.106   .     S
C1242  H1263   1.103   .     S
C1242  H1264   1.109   .     S
C1242  C1243   1.535   .     S
C1243  H1262   1.107   .     S
C1243  H1260   1.109   .     S
C1243  H1261   1.107   .     S
C1244  H1269   1.111   .     S
C1244  H1270   1.110   .     S
C1245  H1265   1.104   .     S
C1245  H1266   1.102   .     S
C1245  H1267   1.110   .     S
C1245  C956    1.528   1_565 S
C1246  C1248   1.530   .     S
C1246  H1275   1.109   .     S
C1246  H986    1.108   1_565 S
C1247  O1296   1.371   .     S
C1248  H1272   1.109   .     S
C1248  H407    1.110   1_556 S
C1248  H409    1.106   1_556 S
C1249  O1288   1.377   .     S
C1249  C1167   1.416   1_655 S
C1251  C962    1.323   1_565 S
C1251  H991    1.088   1_565 S
C1252  O1292   1.300   .     A
C1252  O1294   1.298   .     A
C1253  O1293   1.301   .     A
C1253  O1295   1.293   .     A
Cu1255 O1287   1.972   .     S
Cu1255 Cu1256  2.703   .     S
Cu1255 O1295   1.951   .     S
Cu1255 O1291   1.961   .     S
Cu1255 N1286   2.031   .     S
Cu1255 O1292   1.962   .     S
Cu1256 O1293   1.962   .     S
Cu1256 O1294   1.951   .     S
Cu1256 O1290   1.961   .     S
Cu1256 N1285   2.031   .     S
Cu1256 O1289   1.972   .     S
H1276  O1296   0.990   .     S
H1277  O1288   0.986   .     S
H1278  C962    1.088   1_565 S
H1280  N421    1.029   1_556 S
N1286  N421    1.293   1_556 S
N1286  H417    1.029   1_556 S
