data_str_m2_o10_o17_pcu_sym.74
_audit_creation_date              2020-01-03
_audit_creation_method            'Materials Studio'
_symmetry_space_group_name_H-M    'P1'
_symmetry_Int_Tables_number       1
_symmetry_cell_setting            triclinic
loop_
_symmetry_equiv_pos_as_xyz
  x,y,z
_cell_length_a                    30.1793
_cell_length_b                    26.3297
_cell_length_c                    22.5436
_cell_angle_alpha                 103.2931
_cell_angle_beta                  93.4989
_cell_angle_gamma                 93.2472
loop_
_atom_site_label
_atom_site_type_symbol
_atom_site_fract_x
_atom_site_fract_y
_atom_site_fract_z
_atom_site_U_iso_or_equiv
_atom_site_adp_type
_atom_site_occupancy
O1     O     0.25325   0.09538   0.20659   0.00000  Uiso   1.00
O2     O     0.24674   0.23796   0.12674   0.00000  Uiso   1.00
O3     O     0.24480   0.08559   0.10279   0.00000  Uiso   1.00
O4     O     0.25520   0.24774   0.23055   0.00000  Uiso   1.00
C5     C     0.24803   0.06680   0.15128   0.00000  Uiso   1.00
C6     C     0.25197   0.26653   0.18205   0.00000  Uiso   1.00
O7     O     0.18935   0.17155   0.21857   0.00000  Uiso   1.00
O8     O     0.31064   0.16179   0.11476   0.00000  Uiso   1.00
O9     O     0.18090   0.16176   0.11477   0.00000  Uiso   1.00
O10    O     0.31910   0.17157   0.21857   0.00000  Uiso   1.00
C11    C     0.16468   0.16659   0.16773   0.00000  Uiso   1.00
C12    C     0.33531   0.16674   0.16560   0.00000  Uiso   1.00
Cu13   Cu    0.25500   0.17246   0.22813   0.00000  Uiso   1.00
Cu14   Cu    0.24499   0.16087   0.10521   0.00000  Uiso   1.00
C15    C     0.41039   0.21008   0.20204   0.00000  Uiso   1.00
C16    C     0.08961   0.12325   0.13130   0.00000  Uiso   1.00
C17    C     0.38365   0.16804   0.16387   0.00000  Uiso   1.00
C18    C     0.11635   0.16529   0.16946   0.00000  Uiso   1.00
C19    C     0.40298   0.12632   0.12604   0.00000  Uiso   1.00
C20    C     0.09702   0.20702   0.20729   0.00000  Uiso   1.00
C21    C     0.44946   0.12503   0.12836   0.00000  Uiso   1.00
C22    C     0.05053   0.20830   0.20496   0.00000  Uiso   1.00
C23    C     0.47658   0.16710   0.16605   0.00000  Uiso   1.00
C24    C     0.02342   0.16623   0.16727   0.00000  Uiso   1.00
C25    C     0.45705   0.21006   0.20236   0.00000  Uiso   1.00
C26    C     0.04295   0.12327   0.13097   0.00000  Uiso   1.00
C27    C     0.46938   0.08168   0.09495   0.00000  Uiso   1.00
C28    C     0.03062   0.25166   0.23836   0.00000  Uiso   1.00
C29    C     0.01524   0.08079   0.09619   0.00000  Uiso   1.00
C30    C     0.48476   0.25254   0.23713   0.00000  Uiso   1.00
H31    H     0.44982   0.04752   0.06806   0.00000  Uiso   1.00
H32    H     0.05018   0.28581   0.26525   0.00000  Uiso   1.00
H33    H     0.02851   0.04606   0.06990   0.00000  Uiso   1.00
H34    H     0.47149   0.28727   0.26342   0.00000  Uiso   1.00
C35    C     0.24143   0.01114   0.14451   0.00000  Uiso   1.00
C36    C     0.25856   0.32219   0.18882   0.00000  Uiso   1.00
N37    N     0.23744   0.15214   0.01284   0.00000  Uiso   1.00
N38    N     0.26255   0.18119   0.32049   0.00000  Uiso   1.00
C39    C     0.38919   0.25467   0.23979   0.00000  Uiso   1.00
O40    O     0.36383   0.27938   0.21506   0.00000  Uiso   1.00
O41    O     0.39795   0.26789   0.30329   0.00000  Uiso   1.00
H42    H     0.38135   0.29878   0.32378   0.00000  Uiso   1.00
C43    C     0.11081   0.07865   0.09357   0.00000  Uiso   1.00
O44    O     0.13615   0.05393   0.11832   0.00000  Uiso   1.00
O45    O     0.10208   0.06542   0.03007   0.00000  Uiso   1.00
H46    H     0.11867   0.03452   0.00960   0.00000  Uiso   1.00
N47    N     0.37536   0.08503   0.08559   0.00000  Uiso   1.00
O48    O     0.37952   0.07543   0.02703   0.00000  Uiso   1.00
O49    O     0.34872   0.05457   0.10750   0.00000  Uiso   1.00
N50    N     0.12463   0.24830   0.24774   0.00000  Uiso   1.00
O51    O     0.12047   0.25789   0.30629   0.00000  Uiso   1.00
O52    O     0.15127   0.27877   0.22582   0.00000  Uiso   1.00
C53    C     0.21033   0.31602   0.09199   0.00000  Uiso   1.00
O54    O     0.17781   0.28933   0.10035   0.00000  Uiso   1.00
O55    O     0.21825   0.32069   0.03316   0.00000  Uiso   1.00
H56    H     0.19700   0.29735   0.00060   0.00000  Uiso   1.00
C57    C     0.28966   0.01732   0.24134   0.00000  Uiso   1.00
O58    O     0.32220   0.04396   0.23297   0.00000  Uiso   1.00
O59    O     0.28170   0.01272   0.30019   0.00000  Uiso   1.00
H60    H     0.30296   0.03606   0.33273   0.00000  Uiso   1.00
N61    N     0.19596   0.13517   0.31629   0.00000  Uiso   1.00
O62    O     0.16259   0.16387   0.32930   0.00000  Uiso   1.00
O63    O     0.18792   0.08599   0.28927   0.00000  Uiso   1.00
N64    N     0.30404   0.19816   0.01705   0.00000  Uiso   1.00
O65    O     0.33741   0.16947   0.00403   0.00000  Uiso   1.00
O66    O     0.31207   0.24734   0.04406   0.00000  Uiso   1.00
O67    O     0.75325   0.09538   0.20659   0.00000  Uiso   1.00
O68    O     0.74674   0.23796   0.12674   0.00000  Uiso   1.00
O69    O     0.74480   0.08559   0.10279   0.00000  Uiso   1.00
O70    O     0.75520   0.24774   0.23055   0.00000  Uiso   1.00
C71    C     0.74803   0.06680   0.15128   0.00000  Uiso   1.00
C72    C     0.75197   0.26653   0.18205   0.00000  Uiso   1.00
O73    O     0.68935   0.17155   0.21857   0.00000  Uiso   1.00
O74    O     0.81064   0.16179   0.11476   0.00000  Uiso   1.00
O75    O     0.68090   0.16176   0.11477   0.00000  Uiso   1.00
O76    O     0.81910   0.17157   0.21857   0.00000  Uiso   1.00
C77    C     0.66468   0.16659   0.16773   0.00000  Uiso   1.00
C78    C     0.83531   0.16674   0.16560   0.00000  Uiso   1.00
Cu79   Cu    0.75500   0.17246   0.22813   0.00000  Uiso   1.00
Cu80   Cu    0.74499   0.16087   0.10521   0.00000  Uiso   1.00
C81    C     0.91039   0.21008   0.20204   0.00000  Uiso   1.00
C82    C     0.58961   0.12325   0.13130   0.00000  Uiso   1.00
C83    C     0.88365   0.16804   0.16387   0.00000  Uiso   1.00
C84    C     0.61635   0.16529   0.16946   0.00000  Uiso   1.00
C85    C     0.90298   0.12632   0.12604   0.00000  Uiso   1.00
C86    C     0.59702   0.20702   0.20729   0.00000  Uiso   1.00
C87    C     0.94946   0.12503   0.12836   0.00000  Uiso   1.00
C88    C     0.55053   0.20830   0.20496   0.00000  Uiso   1.00
C89    C     0.97658   0.16710   0.16605   0.00000  Uiso   1.00
C90    C     0.52342   0.16623   0.16727   0.00000  Uiso   1.00
C91    C     0.95705   0.21006   0.20236   0.00000  Uiso   1.00
C92    C     0.54295   0.12327   0.13097   0.00000  Uiso   1.00
C93    C     0.96938   0.08168   0.09495   0.00000  Uiso   1.00
C94    C     0.53062   0.25166   0.23836   0.00000  Uiso   1.00
C95    C     0.51524   0.08079   0.09619   0.00000  Uiso   1.00
C96    C     0.98476   0.25254   0.23713   0.00000  Uiso   1.00
H97    H     0.94982   0.04752   0.06806   0.00000  Uiso   1.00
H98    H     0.55018   0.28581   0.26525   0.00000  Uiso   1.00
H99    H     0.52851   0.04606   0.06990   0.00000  Uiso   1.00
H100   H     0.97149   0.28727   0.26342   0.00000  Uiso   1.00
C101   C     0.74143   0.01114   0.14451   0.00000  Uiso   1.00
C102   C     0.75856   0.32219   0.18882   0.00000  Uiso   1.00
N103   N     0.73744   0.15214   0.01284   0.00000  Uiso   1.00
N104   N     0.76255   0.18119   0.32049   0.00000  Uiso   1.00
C105   C     0.88919   0.25467   0.23979   0.00000  Uiso   1.00
O106   O     0.86383   0.27938   0.21506   0.00000  Uiso   1.00
O107   O     0.89795   0.26789   0.30329   0.00000  Uiso   1.00
H108   H     0.88135   0.29878   0.32378   0.00000  Uiso   1.00
C109   C     0.61081   0.07865   0.09357   0.00000  Uiso   1.00
O110   O     0.63615   0.05393   0.11832   0.00000  Uiso   1.00
O111   O     0.60208   0.06542   0.03007   0.00000  Uiso   1.00
H112   H     0.61867   0.03452   0.00960   0.00000  Uiso   1.00
N113   N     0.87536   0.08503   0.08559   0.00000  Uiso   1.00
O114   O     0.87952   0.07543   0.02703   0.00000  Uiso   1.00
O115   O     0.84872   0.05457   0.10750   0.00000  Uiso   1.00
N116   N     0.62463   0.24830   0.24774   0.00000  Uiso   1.00
O117   O     0.62047   0.25789   0.30629   0.00000  Uiso   1.00
O118   O     0.65127   0.27877   0.22582   0.00000  Uiso   1.00
C119   C     0.71033   0.31602   0.09199   0.00000  Uiso   1.00
O120   O     0.67781   0.28933   0.10035   0.00000  Uiso   1.00
O121   O     0.71825   0.32069   0.03316   0.00000  Uiso   1.00
H122   H     0.69700   0.29735   0.00060   0.00000  Uiso   1.00
C123   C     0.78966   0.01732   0.24134   0.00000  Uiso   1.00
O124   O     0.82220   0.04396   0.23297   0.00000  Uiso   1.00
O125   O     0.78170   0.01272   0.30019   0.00000  Uiso   1.00
H126   H     0.80296   0.03606   0.33273   0.00000  Uiso   1.00
N127   N     0.69596   0.13517   0.31629   0.00000  Uiso   1.00
O128   O     0.66259   0.16387   0.32930   0.00000  Uiso   1.00
O129   O     0.68792   0.08599   0.28927   0.00000  Uiso   1.00
N130   N     0.80404   0.19816   0.01705   0.00000  Uiso   1.00
O131   O     0.83741   0.16947   0.00403   0.00000  Uiso   1.00
O132   O     0.81207   0.24734   0.04406   0.00000  Uiso   1.00
O133   O     0.25325   0.42871   0.20659   0.00000  Uiso   1.00
O134   O     0.24674   0.57129   0.12674   0.00000  Uiso   1.00
O135   O     0.24480   0.41892   0.10279   0.00000  Uiso   1.00
O136   O     0.25520   0.58108   0.23055   0.00000  Uiso   1.00
C137   C     0.24803   0.40014   0.15128   0.00000  Uiso   1.00
C138   C     0.25197   0.59986   0.18205   0.00000  Uiso   1.00
O139   O     0.18935   0.50488   0.21857   0.00000  Uiso   1.00
O140   O     0.31064   0.49512   0.11476   0.00000  Uiso   1.00
O141   O     0.18090   0.49510   0.11477   0.00000  Uiso   1.00
O142   O     0.31910   0.50490   0.21857   0.00000  Uiso   1.00
C143   C     0.16468   0.49992   0.16773   0.00000  Uiso   1.00
C144   C     0.33531   0.50008   0.16560   0.00000  Uiso   1.00
Cu145  Cu    0.25500   0.50579   0.22813   0.00000  Uiso   1.00
Cu146  Cu    0.24499   0.49421   0.10521   0.00000  Uiso   1.00
C147   C     0.41039   0.54341   0.20204   0.00000  Uiso   1.00
C148   C     0.08961   0.45658   0.13130   0.00000  Uiso   1.00
C149   C     0.38365   0.50137   0.16387   0.00000  Uiso   1.00
C150   C     0.11635   0.49863   0.16946   0.00000  Uiso   1.00
C151   C     0.40298   0.45965   0.12604   0.00000  Uiso   1.00
C152   C     0.09702   0.54035   0.20729   0.00000  Uiso   1.00
C153   C     0.44946   0.45837   0.12836   0.00000  Uiso   1.00
C154   C     0.05053   0.54163   0.20496   0.00000  Uiso   1.00
C155   C     0.47658   0.50043   0.16605   0.00000  Uiso   1.00
C156   C     0.02342   0.49957   0.16727   0.00000  Uiso   1.00
C157   C     0.45705   0.54340   0.20236   0.00000  Uiso   1.00
C158   C     0.04295   0.45660   0.13097   0.00000  Uiso   1.00
C159   C     0.46938   0.41501   0.09495   0.00000  Uiso   1.00
C160   C     0.03062   0.58499   0.23836   0.00000  Uiso   1.00
C161   C     0.01524   0.41413   0.09619   0.00000  Uiso   1.00
C162   C     0.48476   0.58587   0.23713   0.00000  Uiso   1.00
H163   H     0.44982   0.38086   0.06806   0.00000  Uiso   1.00
H164   H     0.05018   0.61914   0.26525   0.00000  Uiso   1.00
H165   H     0.02851   0.37940   0.06990   0.00000  Uiso   1.00
H166   H     0.47149   0.62060   0.26342   0.00000  Uiso   1.00
C167   C     0.24143   0.34447   0.14451   0.00000  Uiso   1.00
C168   C     0.25856   0.65553   0.18882   0.00000  Uiso   1.00
N169   N     0.23744   0.48547   0.01284   0.00000  Uiso   1.00
N170   N     0.26255   0.51453   0.32049   0.00000  Uiso   1.00
C171   C     0.38919   0.58800   0.23979   0.00000  Uiso   1.00
O172   O     0.36383   0.61271   0.21506   0.00000  Uiso   1.00
O173   O     0.39795   0.60122   0.30329   0.00000  Uiso   1.00
H174   H     0.38135   0.63212   0.32378   0.00000  Uiso   1.00
C175   C     0.11081   0.41198   0.09357   0.00000  Uiso   1.00
O176   O     0.13615   0.38727   0.11832   0.00000  Uiso   1.00
O177   O     0.10208   0.39876   0.03007   0.00000  Uiso   1.00
H178   H     0.11867   0.36786   0.00960   0.00000  Uiso   1.00
N179   N     0.37536   0.41837   0.08559   0.00000  Uiso   1.00
O180   O     0.37952   0.40876   0.02703   0.00000  Uiso   1.00
O181   O     0.34872   0.38790   0.10750   0.00000  Uiso   1.00
N182   N     0.12463   0.58163   0.24774   0.00000  Uiso   1.00
O183   O     0.12047   0.59123   0.30629   0.00000  Uiso   1.00
O184   O     0.15127   0.61210   0.22582   0.00000  Uiso   1.00
C185   C     0.21033   0.64935   0.09199   0.00000  Uiso   1.00
O186   O     0.17781   0.62267   0.10035   0.00000  Uiso   1.00
O187   O     0.21825   0.65402   0.03316   0.00000  Uiso   1.00
H188   H     0.19700   0.63068   0.00060   0.00000  Uiso   1.00
C189   C     0.28966   0.35065   0.24134   0.00000  Uiso   1.00
O190   O     0.32220   0.37729   0.23297   0.00000  Uiso   1.00
O191   O     0.28170   0.34605   0.30019   0.00000  Uiso   1.00
H192   H     0.30296   0.36939   0.33273   0.00000  Uiso   1.00
N193   N     0.19596   0.46851   0.31629   0.00000  Uiso   1.00
O194   O     0.16259   0.49720   0.32930   0.00000  Uiso   1.00
O195   O     0.18792   0.41932   0.28927   0.00000  Uiso   1.00
N196   N     0.30404   0.53149   0.01705   0.00000  Uiso   1.00
O197   O     0.33741   0.50280   0.00403   0.00000  Uiso   1.00
O198   O     0.31207   0.58068   0.04406   0.00000  Uiso   1.00
O199   O     0.75325   0.42871   0.20659   0.00000  Uiso   1.00
O200   O     0.74674   0.57129   0.12674   0.00000  Uiso   1.00
O201   O     0.74480   0.41892   0.10279   0.00000  Uiso   1.00
O202   O     0.75520   0.58108   0.23055   0.00000  Uiso   1.00
C203   C     0.74803   0.40014   0.15128   0.00000  Uiso   1.00
C204   C     0.75197   0.59986   0.18205   0.00000  Uiso   1.00
O205   O     0.68935   0.50488   0.21857   0.00000  Uiso   1.00
O206   O     0.81064   0.49512   0.11476   0.00000  Uiso   1.00
O207   O     0.68090   0.49510   0.11477   0.00000  Uiso   1.00
O208   O     0.81910   0.50490   0.21857   0.00000  Uiso   1.00
C209   C     0.66468   0.49992   0.16773   0.00000  Uiso   1.00
C210   C     0.83531   0.50008   0.16560   0.00000  Uiso   1.00
Cu211  Cu    0.75500   0.50579   0.22813   0.00000  Uiso   1.00
Cu212  Cu    0.74499   0.49421   0.10521   0.00000  Uiso   1.00
C213   C     0.91039   0.54341   0.20204   0.00000  Uiso   1.00
C214   C     0.58961   0.45658   0.13130   0.00000  Uiso   1.00
C215   C     0.88365   0.50137   0.16387   0.00000  Uiso   1.00
C216   C     0.61635   0.49863   0.16946   0.00000  Uiso   1.00
C217   C     0.90298   0.45965   0.12604   0.00000  Uiso   1.00
C218   C     0.59702   0.54035   0.20729   0.00000  Uiso   1.00
C219   C     0.94946   0.45837   0.12836   0.00000  Uiso   1.00
C220   C     0.55053   0.54163   0.20496   0.00000  Uiso   1.00
C221   C     0.97658   0.50043   0.16605   0.00000  Uiso   1.00
C222   C     0.52342   0.49957   0.16727   0.00000  Uiso   1.00
C223   C     0.95705   0.54340   0.20236   0.00000  Uiso   1.00
C224   C     0.54295   0.45660   0.13097   0.00000  Uiso   1.00
C225   C     0.96938   0.41501   0.09495   0.00000  Uiso   1.00
C226   C     0.53062   0.58499   0.23836   0.00000  Uiso   1.00
C227   C     0.51524   0.41413   0.09619   0.00000  Uiso   1.00
C228   C     0.98476   0.58587   0.23713   0.00000  Uiso   1.00
H229   H     0.94982   0.38086   0.06806   0.00000  Uiso   1.00
H230   H     0.55018   0.61914   0.26525   0.00000  Uiso   1.00
H231   H     0.52851   0.37940   0.06990   0.00000  Uiso   1.00
H232   H     0.97149   0.62060   0.26342   0.00000  Uiso   1.00
C233   C     0.74143   0.34447   0.14451   0.00000  Uiso   1.00
C234   C     0.75856   0.65553   0.18882   0.00000  Uiso   1.00
N235   N     0.73744   0.48547   0.01284   0.00000  Uiso   1.00
N236   N     0.76255   0.51453   0.32049   0.00000  Uiso   1.00
C237   C     0.88919   0.58800   0.23979   0.00000  Uiso   1.00
O238   O     0.86383   0.61271   0.21506   0.00000  Uiso   1.00
O239   O     0.89795   0.60122   0.30329   0.00000  Uiso   1.00
H240   H     0.88135   0.63212   0.32378   0.00000  Uiso   1.00
C241   C     0.61081   0.41198   0.09357   0.00000  Uiso   1.00
O242   O     0.63615   0.38727   0.11832   0.00000  Uiso   1.00
O243   O     0.60208   0.39876   0.03007   0.00000  Uiso   1.00
H244   H     0.61867   0.36786   0.00960   0.00000  Uiso   1.00
N245   N     0.87536   0.41837   0.08559   0.00000  Uiso   1.00
O246   O     0.87952   0.40876   0.02703   0.00000  Uiso   1.00
O247   O     0.84872   0.38790   0.10750   0.00000  Uiso   1.00
N248   N     0.62463   0.58163   0.24774   0.00000  Uiso   1.00
O249   O     0.62047   0.59123   0.30629   0.00000  Uiso   1.00
O250   O     0.65127   0.61210   0.22582   0.00000  Uiso   1.00
C251   C     0.71033   0.64935   0.09199   0.00000  Uiso   1.00
O252   O     0.67781   0.62267   0.10035   0.00000  Uiso   1.00
O253   O     0.71825   0.65402   0.03316   0.00000  Uiso   1.00
H254   H     0.69700   0.63068   0.00060   0.00000  Uiso   1.00
C255   C     0.78966   0.35065   0.24134   0.00000  Uiso   1.00
O256   O     0.82220   0.37729   0.23297   0.00000  Uiso   1.00
O257   O     0.78170   0.34605   0.30019   0.00000  Uiso   1.00
H258   H     0.80296   0.36939   0.33273   0.00000  Uiso   1.00
N259   N     0.69596   0.46851   0.31629   0.00000  Uiso   1.00
O260   O     0.66259   0.49720   0.32930   0.00000  Uiso   1.00
O261   O     0.68792   0.41932   0.28927   0.00000  Uiso   1.00
N262   N     0.80404   0.53149   0.01705   0.00000  Uiso   1.00
O263   O     0.83741   0.50280   0.00403   0.00000  Uiso   1.00
O264   O     0.81207   0.58068   0.04406   0.00000  Uiso   1.00
O265   O     0.25325   0.76204   0.20659   0.00000  Uiso   1.00
O266   O     0.24674   0.90462   0.12674   0.00000  Uiso   1.00
O267   O     0.24480   0.75226   0.10279   0.00000  Uiso   1.00
O268   O     0.25520   0.91441   0.23055   0.00000  Uiso   1.00
C269   C     0.24803   0.73347   0.15128   0.00000  Uiso   1.00
C270   C     0.25197   0.93320   0.18205   0.00000  Uiso   1.00
O271   O     0.18935   0.83821   0.21857   0.00000  Uiso   1.00
O272   O     0.31064   0.82845   0.11476   0.00000  Uiso   1.00
O273   O     0.18090   0.82843   0.11477   0.00000  Uiso   1.00
O274   O     0.31910   0.83824   0.21857   0.00000  Uiso   1.00
C275   C     0.16468   0.83325   0.16773   0.00000  Uiso   1.00
C276   C     0.33531   0.83341   0.16560   0.00000  Uiso   1.00
Cu277  Cu    0.25500   0.83913   0.22813   0.00000  Uiso   1.00
Cu278  Cu    0.24499   0.82754   0.10521   0.00000  Uiso   1.00
C279   C     0.41039   0.87674   0.20204   0.00000  Uiso   1.00
C280   C     0.08961   0.78992   0.13130   0.00000  Uiso   1.00
C281   C     0.38365   0.83470   0.16387   0.00000  Uiso   1.00
C282   C     0.11635   0.83196   0.16946   0.00000  Uiso   1.00
C283   C     0.40298   0.79298   0.12604   0.00000  Uiso   1.00
C284   C     0.09702   0.87368   0.20729   0.00000  Uiso   1.00
C285   C     0.44946   0.79170   0.12836   0.00000  Uiso   1.00
C286   C     0.05053   0.87497   0.20496   0.00000  Uiso   1.00
C287   C     0.47658   0.83376   0.16605   0.00000  Uiso   1.00
C288   C     0.02342   0.83290   0.16727   0.00000  Uiso   1.00
C289   C     0.45705   0.87673   0.20236   0.00000  Uiso   1.00
C290   C     0.04295   0.78993   0.13097   0.00000  Uiso   1.00
C291   C     0.46938   0.74834   0.09495   0.00000  Uiso   1.00
C292   C     0.03062   0.91832   0.23836   0.00000  Uiso   1.00
C293   C     0.01524   0.74746   0.09619   0.00000  Uiso   1.00
C294   C     0.48476   0.91920   0.23713   0.00000  Uiso   1.00
H295   H     0.44982   0.71419   0.06806   0.00000  Uiso   1.00
H296   H     0.05018   0.95248   0.26525   0.00000  Uiso   1.00
H297   H     0.02851   0.71273   0.06990   0.00000  Uiso   1.00
H298   H     0.47149   0.95394   0.26342   0.00000  Uiso   1.00
C299   C     0.24143   0.67781   0.14451   0.00000  Uiso   1.00
C300   C     0.25856   0.98886   0.18882   0.00000  Uiso   1.00
N301   N     0.23744   0.81881   0.01284   0.00000  Uiso   1.00
N302   N     0.26255   0.84786   0.32049   0.00000  Uiso   1.00
C303   C     0.38919   0.92134   0.23979   0.00000  Uiso   1.00
O304   O     0.36383   0.94605   0.21506   0.00000  Uiso   1.00
O305   O     0.39795   0.93456   0.30329   0.00000  Uiso   1.00
H306   H     0.38135   0.96545   0.32378   0.00000  Uiso   1.00
C307   C     0.11081   0.74531   0.09357   0.00000  Uiso   1.00
O308   O     0.13615   0.72060   0.11832   0.00000  Uiso   1.00
O309   O     0.10208   0.73209   0.03007   0.00000  Uiso   1.00
H310   H     0.11867   0.70119   0.00960   0.00000  Uiso   1.00
N311   N     0.37536   0.75170   0.08559   0.00000  Uiso   1.00
O312   O     0.37952   0.74210   0.02703   0.00000  Uiso   1.00
O313   O     0.34872   0.72123   0.10750   0.00000  Uiso   1.00
N314   N     0.12463   0.91496   0.24774   0.00000  Uiso   1.00
O315   O     0.12047   0.92456   0.30629   0.00000  Uiso   1.00
O316   O     0.15127   0.94544   0.22582   0.00000  Uiso   1.00
C317   C     0.21033   0.98268   0.09199   0.00000  Uiso   1.00
O318   O     0.17781   0.95600   0.10035   0.00000  Uiso   1.00
O319   O     0.21825   0.98736   0.03316   0.00000  Uiso   1.00
H320   H     0.19700   0.96401   0.00060   0.00000  Uiso   1.00
C321   C     0.28966   0.68399   0.24134   0.00000  Uiso   1.00
O322   O     0.32220   0.71063   0.23297   0.00000  Uiso   1.00
O323   O     0.28170   0.67938   0.30019   0.00000  Uiso   1.00
H324   H     0.30296   0.70272   0.33273   0.00000  Uiso   1.00
N325   N     0.19596   0.80184   0.31629   0.00000  Uiso   1.00
O326   O     0.16259   0.83053   0.32930   0.00000  Uiso   1.00
O327   O     0.18792   0.75266   0.28927   0.00000  Uiso   1.00
N328   N     0.30404   0.86483   0.01705   0.00000  Uiso   1.00
O329   O     0.33741   0.83613   0.00403   0.00000  Uiso   1.00
O330   O     0.31207   0.91401   0.04406   0.00000  Uiso   1.00
O331   O     0.75325   0.76204   0.20659   0.00000  Uiso   1.00
O332   O     0.74674   0.90462   0.12674   0.00000  Uiso   1.00
O333   O     0.74480   0.75226   0.10279   0.00000  Uiso   1.00
O334   O     0.75520   0.91441   0.23055   0.00000  Uiso   1.00
C335   C     0.74803   0.73347   0.15128   0.00000  Uiso   1.00
C336   C     0.75197   0.93320   0.18205   0.00000  Uiso   1.00
O337   O     0.68935   0.83821   0.21857   0.00000  Uiso   1.00
O338   O     0.81064   0.82845   0.11476   0.00000  Uiso   1.00
O339   O     0.68090   0.82843   0.11477   0.00000  Uiso   1.00
O340   O     0.81910   0.83824   0.21857   0.00000  Uiso   1.00
C341   C     0.66468   0.83325   0.16773   0.00000  Uiso   1.00
C342   C     0.83531   0.83341   0.16560   0.00000  Uiso   1.00
Cu343  Cu    0.75500   0.83913   0.22813   0.00000  Uiso   1.00
Cu344  Cu    0.74499   0.82754   0.10521   0.00000  Uiso   1.00
C345   C     0.91039   0.87674   0.20204   0.00000  Uiso   1.00
C346   C     0.58961   0.78992   0.13130   0.00000  Uiso   1.00
C347   C     0.88365   0.83470   0.16387   0.00000  Uiso   1.00
C348   C     0.61635   0.83196   0.16946   0.00000  Uiso   1.00
C349   C     0.90298   0.79298   0.12604   0.00000  Uiso   1.00
C350   C     0.59702   0.87368   0.20729   0.00000  Uiso   1.00
C351   C     0.94946   0.79170   0.12836   0.00000  Uiso   1.00
C352   C     0.55053   0.87497   0.20496   0.00000  Uiso   1.00
C353   C     0.97658   0.83376   0.16605   0.00000  Uiso   1.00
C354   C     0.52342   0.83290   0.16727   0.00000  Uiso   1.00
C355   C     0.95705   0.87673   0.20236   0.00000  Uiso   1.00
C356   C     0.54295   0.78993   0.13097   0.00000  Uiso   1.00
C357   C     0.96938   0.74834   0.09495   0.00000  Uiso   1.00
C358   C     0.53062   0.91832   0.23836   0.00000  Uiso   1.00
C359   C     0.51524   0.74746   0.09619   0.00000  Uiso   1.00
C360   C     0.98476   0.91920   0.23713   0.00000  Uiso   1.00
H361   H     0.94982   0.71419   0.06806   0.00000  Uiso   1.00
H362   H     0.55018   0.95248   0.26525   0.00000  Uiso   1.00
H363   H     0.52851   0.71273   0.06990   0.00000  Uiso   1.00
H364   H     0.97149   0.95394   0.26342   0.00000  Uiso   1.00
C365   C     0.74143   0.67781   0.14451   0.00000  Uiso   1.00
C366   C     0.75856   0.98886   0.18882   0.00000  Uiso   1.00
N367   N     0.73744   0.81881   0.01284   0.00000  Uiso   1.00
N368   N     0.76255   0.84786   0.32049   0.00000  Uiso   1.00
C369   C     0.88919   0.92134   0.23979   0.00000  Uiso   1.00
O370   O     0.86383   0.94605   0.21506   0.00000  Uiso   1.00
O371   O     0.89795   0.93456   0.30329   0.00000  Uiso   1.00
H372   H     0.88135   0.96545   0.32378   0.00000  Uiso   1.00
C373   C     0.61081   0.74531   0.09357   0.00000  Uiso   1.00
O374   O     0.63615   0.72060   0.11832   0.00000  Uiso   1.00
O375   O     0.60208   0.73209   0.03007   0.00000  Uiso   1.00
H376   H     0.61867   0.70119   0.00960   0.00000  Uiso   1.00
N377   N     0.87536   0.75170   0.08559   0.00000  Uiso   1.00
O378   O     0.87952   0.74210   0.02703   0.00000  Uiso   1.00
O379   O     0.84872   0.72123   0.10750   0.00000  Uiso   1.00
N380   N     0.62463   0.91496   0.24774   0.00000  Uiso   1.00
O381   O     0.62047   0.92456   0.30629   0.00000  Uiso   1.00
O382   O     0.65127   0.94544   0.22582   0.00000  Uiso   1.00
C383   C     0.71033   0.98268   0.09199   0.00000  Uiso   1.00
O384   O     0.67781   0.95600   0.10035   0.00000  Uiso   1.00
O385   O     0.71825   0.98736   0.03316   0.00000  Uiso   1.00
H386   H     0.69700   0.96401   0.00060   0.00000  Uiso   1.00
C387   C     0.78966   0.68399   0.24134   0.00000  Uiso   1.00
O388   O     0.82220   0.71063   0.23297   0.00000  Uiso   1.00
O389   O     0.78170   0.67938   0.30019   0.00000  Uiso   1.00
H390   H     0.80296   0.70272   0.33273   0.00000  Uiso   1.00
N391   N     0.69596   0.80184   0.31629   0.00000  Uiso   1.00
O392   O     0.66259   0.83053   0.32930   0.00000  Uiso   1.00
O393   O     0.68792   0.75266   0.28927   0.00000  Uiso   1.00
N394   N     0.80404   0.86483   0.01705   0.00000  Uiso   1.00
O395   O     0.83741   0.83613   0.00403   0.00000  Uiso   1.00
O396   O     0.81207   0.91401   0.04406   0.00000  Uiso   1.00
O397   O     0.25325   0.09538   0.53992   0.00000  Uiso   1.00
O398   O     0.24674   0.23796   0.46008   0.00000  Uiso   1.00
O399   O     0.24480   0.08559   0.43612   0.00000  Uiso   1.00
O400   O     0.25520   0.24774   0.56388   0.00000  Uiso   1.00
C401   C     0.24803   0.06680   0.48461   0.00000  Uiso   1.00
C402   C     0.25197   0.26653   0.51539   0.00000  Uiso   1.00
O403   O     0.18935   0.17155   0.55191   0.00000  Uiso   1.00
O404   O     0.31064   0.16179   0.44809   0.00000  Uiso   1.00
O405   O     0.18090   0.16176   0.44810   0.00000  Uiso   1.00
O406   O     0.31910   0.17157   0.55190   0.00000  Uiso   1.00
C407   C     0.16468   0.16659   0.50106   0.00000  Uiso   1.00
C408   C     0.33531   0.16674   0.49894   0.00000  Uiso   1.00
Cu409  Cu    0.25500   0.17246   0.56146   0.00000  Uiso   1.00
Cu410  Cu    0.24499   0.16087   0.43854   0.00000  Uiso   1.00
C411   C     0.41039   0.21008   0.53537   0.00000  Uiso   1.00
C412   C     0.08961   0.12325   0.46463   0.00000  Uiso   1.00
C413   C     0.38365   0.16804   0.49720   0.00000  Uiso   1.00
C414   C     0.11635   0.16529   0.50279   0.00000  Uiso   1.00
C415   C     0.40298   0.12632   0.45937   0.00000  Uiso   1.00
C416   C     0.09702   0.20702   0.54062   0.00000  Uiso   1.00
C417   C     0.44946   0.12503   0.46170   0.00000  Uiso   1.00
C418   C     0.05053   0.20830   0.53829   0.00000  Uiso   1.00
C419   C     0.47658   0.16710   0.49938   0.00000  Uiso   1.00
C420   C     0.02342   0.16623   0.50061   0.00000  Uiso   1.00
C421   C     0.45705   0.21006   0.53569   0.00000  Uiso   1.00
C422   C     0.04295   0.12327   0.46430   0.00000  Uiso   1.00
C423   C     0.46938   0.08168   0.42829   0.00000  Uiso   1.00
C424   C     0.03062   0.25166   0.57170   0.00000  Uiso   1.00
C425   C     0.01524   0.08079   0.42952   0.00000  Uiso   1.00
C426   C     0.48476   0.25254   0.57047   0.00000  Uiso   1.00
H427   H     0.44982   0.04752   0.40140   0.00000  Uiso   1.00
H428   H     0.05018   0.28581   0.59859   0.00000  Uiso   1.00
H429   H     0.02851   0.04606   0.40324   0.00000  Uiso   1.00
H430   H     0.47149   0.28727   0.59675   0.00000  Uiso   1.00
C431   C     0.24143   0.01114   0.47784   0.00000  Uiso   1.00
C432   C     0.25856   0.32219   0.52216   0.00000  Uiso   1.00
N433   N     0.23744   0.15214   0.34617   0.00000  Uiso   1.00
N434   N     0.26255   0.18119   0.65383   0.00000  Uiso   1.00
C435   C     0.38919   0.25467   0.57312   0.00000  Uiso   1.00
O436   O     0.36383   0.27938   0.54839   0.00000  Uiso   1.00
O437   O     0.39795   0.26789   0.63662   0.00000  Uiso   1.00
H438   H     0.38135   0.29878   0.65711   0.00000  Uiso   1.00
C439   C     0.11081   0.07865   0.42690   0.00000  Uiso   1.00
O440   O     0.13615   0.05393   0.45165   0.00000  Uiso   1.00
O441   O     0.10208   0.06542   0.36340   0.00000  Uiso   1.00
H442   H     0.11867   0.03452   0.34293   0.00000  Uiso   1.00
N443   N     0.37536   0.08503   0.41892   0.00000  Uiso   1.00
O444   O     0.37952   0.07543   0.36036   0.00000  Uiso   1.00
O445   O     0.34872   0.05457   0.44084   0.00000  Uiso   1.00
N446   N     0.12463   0.24830   0.58107   0.00000  Uiso   1.00
O447   O     0.12047   0.25789   0.63963   0.00000  Uiso   1.00
O448   O     0.15127   0.27877   0.55916   0.00000  Uiso   1.00
C449   C     0.21033   0.31602   0.42532   0.00000  Uiso   1.00
O450   O     0.17781   0.28933   0.43368   0.00000  Uiso   1.00
O451   O     0.21825   0.32069   0.36649   0.00000  Uiso   1.00
H452   H     0.19700   0.29735   0.33394   0.00000  Uiso   1.00
C453   C     0.28966   0.01732   0.57468   0.00000  Uiso   1.00
O454   O     0.32220   0.04396   0.56631   0.00000  Uiso   1.00
O455   O     0.28170   0.01272   0.63352   0.00000  Uiso   1.00
H456   H     0.30296   0.03606   0.66607   0.00000  Uiso   1.00
N457   N     0.19596   0.13517   0.64962   0.00000  Uiso   1.00
O458   O     0.16259   0.16387   0.66264   0.00000  Uiso   1.00
O459   O     0.18792   0.08599   0.62260   0.00000  Uiso   1.00
N460   N     0.30404   0.19816   0.35038   0.00000  Uiso   1.00
O461   O     0.33741   0.16947   0.33736   0.00000  Uiso   1.00
O462   O     0.31207   0.24734   0.37740   0.00000  Uiso   1.00
O463   O     0.75325   0.09538   0.53992   0.00000  Uiso   1.00
O464   O     0.74674   0.23796   0.46008   0.00000  Uiso   1.00
O465   O     0.74480   0.08559   0.43612   0.00000  Uiso   1.00
O466   O     0.75520   0.24774   0.56388   0.00000  Uiso   1.00
C467   C     0.74803   0.06680   0.48461   0.00000  Uiso   1.00
C468   C     0.75197   0.26653   0.51539   0.00000  Uiso   1.00
O469   O     0.68935   0.17155   0.55191   0.00000  Uiso   1.00
O470   O     0.81064   0.16179   0.44809   0.00000  Uiso   1.00
O471   O     0.68090   0.16176   0.44810   0.00000  Uiso   1.00
O472   O     0.81910   0.17157   0.55190   0.00000  Uiso   1.00
C473   C     0.66468   0.16659   0.50106   0.00000  Uiso   1.00
C474   C     0.83531   0.16674   0.49894   0.00000  Uiso   1.00
Cu475  Cu    0.75500   0.17246   0.56146   0.00000  Uiso   1.00
Cu476  Cu    0.74499   0.16087   0.43854   0.00000  Uiso   1.00
C477   C     0.91039   0.21008   0.53537   0.00000  Uiso   1.00
C478   C     0.58961   0.12325   0.46463   0.00000  Uiso   1.00
C479   C     0.88365   0.16804   0.49720   0.00000  Uiso   1.00
C480   C     0.61635   0.16529   0.50279   0.00000  Uiso   1.00
C481   C     0.90298   0.12632   0.45937   0.00000  Uiso   1.00
C482   C     0.59702   0.20702   0.54062   0.00000  Uiso   1.00
C483   C     0.94946   0.12503   0.46170   0.00000  Uiso   1.00
C484   C     0.55053   0.20830   0.53829   0.00000  Uiso   1.00
C485   C     0.97658   0.16710   0.49938   0.00000  Uiso   1.00
C486   C     0.52342   0.16623   0.50061   0.00000  Uiso   1.00
C487   C     0.95705   0.21006   0.53569   0.00000  Uiso   1.00
C488   C     0.54295   0.12327   0.46430   0.00000  Uiso   1.00
C489   C     0.96938   0.08168   0.42829   0.00000  Uiso   1.00
C490   C     0.53062   0.25166   0.57170   0.00000  Uiso   1.00
C491   C     0.51524   0.08079   0.42952   0.00000  Uiso   1.00
C492   C     0.98476   0.25254   0.57047   0.00000  Uiso   1.00
H493   H     0.94982   0.04752   0.40140   0.00000  Uiso   1.00
H494   H     0.55018   0.28581   0.59859   0.00000  Uiso   1.00
H495   H     0.52851   0.04606   0.40324   0.00000  Uiso   1.00
H496   H     0.97149   0.28727   0.59675   0.00000  Uiso   1.00
C497   C     0.74143   0.01114   0.47784   0.00000  Uiso   1.00
C498   C     0.75856   0.32219   0.52216   0.00000  Uiso   1.00
N499   N     0.73744   0.15214   0.34617   0.00000  Uiso   1.00
N500   N     0.76255   0.18119   0.65383   0.00000  Uiso   1.00
C501   C     0.88919   0.25467   0.57312   0.00000  Uiso   1.00
O502   O     0.86383   0.27938   0.54839   0.00000  Uiso   1.00
O503   O     0.89795   0.26789   0.63662   0.00000  Uiso   1.00
H504   H     0.88135   0.29878   0.65711   0.00000  Uiso   1.00
C505   C     0.61081   0.07865   0.42690   0.00000  Uiso   1.00
O506   O     0.63615   0.05393   0.45165   0.00000  Uiso   1.00
O507   O     0.60208   0.06542   0.36340   0.00000  Uiso   1.00
H508   H     0.61867   0.03452   0.34293   0.00000  Uiso   1.00
N509   N     0.87536   0.08503   0.41892   0.00000  Uiso   1.00
O510   O     0.87952   0.07543   0.36036   0.00000  Uiso   1.00
O511   O     0.84872   0.05457   0.44084   0.00000  Uiso   1.00
N512   N     0.62463   0.24830   0.58107   0.00000  Uiso   1.00
O513   O     0.62047   0.25789   0.63963   0.00000  Uiso   1.00
O514   O     0.65127   0.27877   0.55916   0.00000  Uiso   1.00
C515   C     0.71033   0.31602   0.42532   0.00000  Uiso   1.00
O516   O     0.67781   0.28933   0.43368   0.00000  Uiso   1.00
O517   O     0.71825   0.32069   0.36649   0.00000  Uiso   1.00
H518   H     0.69700   0.29735   0.33394   0.00000  Uiso   1.00
C519   C     0.78966   0.01732   0.57468   0.00000  Uiso   1.00
O520   O     0.82220   0.04396   0.56631   0.00000  Uiso   1.00
O521   O     0.78170   0.01272   0.63352   0.00000  Uiso   1.00
H522   H     0.80296   0.03606   0.66607   0.00000  Uiso   1.00
N523   N     0.69596   0.13517   0.64962   0.00000  Uiso   1.00
O524   O     0.66259   0.16387   0.66264   0.00000  Uiso   1.00
O525   O     0.68792   0.08599   0.62260   0.00000  Uiso   1.00
N526   N     0.80404   0.19816   0.35038   0.00000  Uiso   1.00
O527   O     0.83741   0.16947   0.33736   0.00000  Uiso   1.00
O528   O     0.81207   0.24734   0.37740   0.00000  Uiso   1.00
O529   O     0.25325   0.42871   0.53992   0.00000  Uiso   1.00
O530   O     0.24674   0.57129   0.46008   0.00000  Uiso   1.00
O531   O     0.24480   0.41892   0.43612   0.00000  Uiso   1.00
O532   O     0.25520   0.58108   0.56388   0.00000  Uiso   1.00
C533   C     0.24803   0.40014   0.48461   0.00000  Uiso   1.00
C534   C     0.25197   0.59986   0.51539   0.00000  Uiso   1.00
O535   O     0.18935   0.50488   0.55191   0.00000  Uiso   1.00
O536   O     0.31064   0.49512   0.44809   0.00000  Uiso   1.00
O537   O     0.18090   0.49510   0.44810   0.00000  Uiso   1.00
O538   O     0.31910   0.50490   0.55190   0.00000  Uiso   1.00
C539   C     0.16468   0.49992   0.50106   0.00000  Uiso   1.00
C540   C     0.33531   0.50008   0.49894   0.00000  Uiso   1.00
Cu541  Cu    0.25500   0.50579   0.56146   0.00000  Uiso   1.00
Cu542  Cu    0.24499   0.49421   0.43854   0.00000  Uiso   1.00
C543   C     0.41039   0.54341   0.53537   0.00000  Uiso   1.00
C544   C     0.08961   0.45658   0.46463   0.00000  Uiso   1.00
C545   C     0.38365   0.50137   0.49720   0.00000  Uiso   1.00
C546   C     0.11635   0.49863   0.50279   0.00000  Uiso   1.00
C547   C     0.40298   0.45965   0.45937   0.00000  Uiso   1.00
C548   C     0.09702   0.54035   0.54062   0.00000  Uiso   1.00
C549   C     0.44946   0.45837   0.46170   0.00000  Uiso   1.00
C550   C     0.05053   0.54163   0.53829   0.00000  Uiso   1.00
C551   C     0.47658   0.50043   0.49938   0.00000  Uiso   1.00
C552   C     0.02342   0.49957   0.50061   0.00000  Uiso   1.00
C553   C     0.45705   0.54340   0.53569   0.00000  Uiso   1.00
C554   C     0.04295   0.45660   0.46430   0.00000  Uiso   1.00
C555   C     0.46938   0.41501   0.42829   0.00000  Uiso   1.00
C556   C     0.03062   0.58499   0.57170   0.00000  Uiso   1.00
C557   C     0.01524   0.41413   0.42952   0.00000  Uiso   1.00
C558   C     0.48476   0.58587   0.57047   0.00000  Uiso   1.00
H559   H     0.44982   0.38086   0.40140   0.00000  Uiso   1.00
H560   H     0.05018   0.61914   0.59859   0.00000  Uiso   1.00
H561   H     0.02851   0.37940   0.40324   0.00000  Uiso   1.00
H562   H     0.47149   0.62060   0.59675   0.00000  Uiso   1.00
C563   C     0.24143   0.34447   0.47784   0.00000  Uiso   1.00
C564   C     0.25856   0.65553   0.52216   0.00000  Uiso   1.00
N565   N     0.23744   0.48547   0.34617   0.00000  Uiso   1.00
N566   N     0.26255   0.51453   0.65383   0.00000  Uiso   1.00
C567   C     0.38919   0.58800   0.57312   0.00000  Uiso   1.00
O568   O     0.36383   0.61271   0.54839   0.00000  Uiso   1.00
O569   O     0.39795   0.60122   0.63662   0.00000  Uiso   1.00
H570   H     0.38135   0.63212   0.65711   0.00000  Uiso   1.00
C571   C     0.11081   0.41198   0.42690   0.00000  Uiso   1.00
O572   O     0.13615   0.38727   0.45165   0.00000  Uiso   1.00
O573   O     0.10208   0.39876   0.36340   0.00000  Uiso   1.00
H574   H     0.11867   0.36786   0.34293   0.00000  Uiso   1.00
N575   N     0.37536   0.41837   0.41892   0.00000  Uiso   1.00
O576   O     0.37952   0.40876   0.36036   0.00000  Uiso   1.00
O577   O     0.34872   0.38790   0.44084   0.00000  Uiso   1.00
N578   N     0.12463   0.58163   0.58107   0.00000  Uiso   1.00
O579   O     0.12047   0.59123   0.63963   0.00000  Uiso   1.00
O580   O     0.15127   0.61210   0.55916   0.00000  Uiso   1.00
C581   C     0.21033   0.64935   0.42532   0.00000  Uiso   1.00
O582   O     0.17781   0.62267   0.43368   0.00000  Uiso   1.00
O583   O     0.21825   0.65402   0.36649   0.00000  Uiso   1.00
H584   H     0.19700   0.63068   0.33394   0.00000  Uiso   1.00
C585   C     0.28966   0.35065   0.57468   0.00000  Uiso   1.00
O586   O     0.32220   0.37729   0.56631   0.00000  Uiso   1.00
O587   O     0.28170   0.34605   0.63352   0.00000  Uiso   1.00
H588   H     0.30296   0.36939   0.66607   0.00000  Uiso   1.00
N589   N     0.19596   0.46851   0.64962   0.00000  Uiso   1.00
O590   O     0.16259   0.49720   0.66264   0.00000  Uiso   1.00
O591   O     0.18792   0.41932   0.62260   0.00000  Uiso   1.00
N592   N     0.30404   0.53149   0.35038   0.00000  Uiso   1.00
O593   O     0.33741   0.50280   0.33736   0.00000  Uiso   1.00
O594   O     0.31207   0.58068   0.37740   0.00000  Uiso   1.00
O595   O     0.75325   0.42871   0.53992   0.00000  Uiso   1.00
O596   O     0.74674   0.57129   0.46008   0.00000  Uiso   1.00
O597   O     0.74480   0.41892   0.43612   0.00000  Uiso   1.00
O598   O     0.75520   0.58108   0.56388   0.00000  Uiso   1.00
C599   C     0.74803   0.40014   0.48461   0.00000  Uiso   1.00
C600   C     0.75197   0.59986   0.51539   0.00000  Uiso   1.00
O601   O     0.68935   0.50488   0.55191   0.00000  Uiso   1.00
O602   O     0.81064   0.49512   0.44809   0.00000  Uiso   1.00
O603   O     0.68090   0.49510   0.44810   0.00000  Uiso   1.00
O604   O     0.81910   0.50490   0.55190   0.00000  Uiso   1.00
C605   C     0.66468   0.49992   0.50106   0.00000  Uiso   1.00
C606   C     0.83531   0.50008   0.49894   0.00000  Uiso   1.00
Cu607  Cu    0.75500   0.50579   0.56146   0.00000  Uiso   1.00
Cu608  Cu    0.74499   0.49421   0.43854   0.00000  Uiso   1.00
C609   C     0.91039   0.54341   0.53537   0.00000  Uiso   1.00
C610   C     0.58961   0.45658   0.46463   0.00000  Uiso   1.00
C611   C     0.88365   0.50137   0.49720   0.00000  Uiso   1.00
C612   C     0.61635   0.49863   0.50279   0.00000  Uiso   1.00
C613   C     0.90298   0.45965   0.45937   0.00000  Uiso   1.00
C614   C     0.59702   0.54035   0.54062   0.00000  Uiso   1.00
C615   C     0.94946   0.45837   0.46170   0.00000  Uiso   1.00
C616   C     0.55053   0.54163   0.53829   0.00000  Uiso   1.00
C617   C     0.97658   0.50043   0.49938   0.00000  Uiso   1.00
C618   C     0.52342   0.49957   0.50061   0.00000  Uiso   1.00
C619   C     0.95705   0.54340   0.53569   0.00000  Uiso   1.00
C620   C     0.54295   0.45660   0.46430   0.00000  Uiso   1.00
C621   C     0.96938   0.41501   0.42829   0.00000  Uiso   1.00
C622   C     0.53062   0.58499   0.57170   0.00000  Uiso   1.00
C623   C     0.51524   0.41413   0.42952   0.00000  Uiso   1.00
C624   C     0.98476   0.58587   0.57047   0.00000  Uiso   1.00
H625   H     0.94982   0.38086   0.40140   0.00000  Uiso   1.00
H626   H     0.55018   0.61914   0.59859   0.00000  Uiso   1.00
H627   H     0.52851   0.37940   0.40324   0.00000  Uiso   1.00
H628   H     0.97149   0.62060   0.59675   0.00000  Uiso   1.00
C629   C     0.74143   0.34447   0.47784   0.00000  Uiso   1.00
C630   C     0.75856   0.65553   0.52216   0.00000  Uiso   1.00
N631   N     0.73744   0.48547   0.34617   0.00000  Uiso   1.00
N632   N     0.76255   0.51453   0.65383   0.00000  Uiso   1.00
C633   C     0.88919   0.58800   0.57312   0.00000  Uiso   1.00
O634   O     0.86383   0.61271   0.54839   0.00000  Uiso   1.00
O635   O     0.89795   0.60122   0.63662   0.00000  Uiso   1.00
H636   H     0.88135   0.63212   0.65711   0.00000  Uiso   1.00
C637   C     0.61081   0.41198   0.42690   0.00000  Uiso   1.00
O638   O     0.63615   0.38727   0.45165   0.00000  Uiso   1.00
O639   O     0.60208   0.39876   0.36340   0.00000  Uiso   1.00
H640   H     0.61867   0.36786   0.34293   0.00000  Uiso   1.00
N641   N     0.87536   0.41837   0.41892   0.00000  Uiso   1.00
O642   O     0.87952   0.40876   0.36036   0.00000  Uiso   1.00
O643   O     0.84872   0.38790   0.44084   0.00000  Uiso   1.00
N644   N     0.62463   0.58163   0.58107   0.00000  Uiso   1.00
O645   O     0.62047   0.59123   0.63963   0.00000  Uiso   1.00
O646   O     0.65127   0.61210   0.55916   0.00000  Uiso   1.00
C647   C     0.71033   0.64935   0.42532   0.00000  Uiso   1.00
O648   O     0.67781   0.62267   0.43368   0.00000  Uiso   1.00
O649   O     0.71825   0.65402   0.36649   0.00000  Uiso   1.00
H650   H     0.69700   0.63068   0.33394   0.00000  Uiso   1.00
C651   C     0.78966   0.35065   0.57468   0.00000  Uiso   1.00
O652   O     0.82220   0.37729   0.56631   0.00000  Uiso   1.00
O653   O     0.78170   0.34605   0.63352   0.00000  Uiso   1.00
H654   H     0.80296   0.36939   0.66607   0.00000  Uiso   1.00
N655   N     0.69596   0.46851   0.64962   0.00000  Uiso   1.00
O656   O     0.66259   0.49720   0.66264   0.00000  Uiso   1.00
O657   O     0.68792   0.41932   0.62260   0.00000  Uiso   1.00
N658   N     0.80404   0.53149   0.35038   0.00000  Uiso   1.00
O659   O     0.83741   0.50280   0.33736   0.00000  Uiso   1.00
O660   O     0.81207   0.58068   0.37740   0.00000  Uiso   1.00
O661   O     0.25325   0.76204   0.53992   0.00000  Uiso   1.00
O662   O     0.24674   0.90462   0.46008   0.00000  Uiso   1.00
O663   O     0.24480   0.75226   0.43612   0.00000  Uiso   1.00
O664   O     0.25520   0.91441   0.56388   0.00000  Uiso   1.00
C665   C     0.24803   0.73347   0.48461   0.00000  Uiso   1.00
C666   C     0.25197   0.93320   0.51539   0.00000  Uiso   1.00
O667   O     0.18935   0.83821   0.55191   0.00000  Uiso   1.00
O668   O     0.31064   0.82845   0.44809   0.00000  Uiso   1.00
O669   O     0.18090   0.82843   0.44810   0.00000  Uiso   1.00
O670   O     0.31910   0.83824   0.55190   0.00000  Uiso   1.00
C671   C     0.16468   0.83325   0.50106   0.00000  Uiso   1.00
C672   C     0.33531   0.83341   0.49894   0.00000  Uiso   1.00
Cu673  Cu    0.25500   0.83913   0.56146   0.00000  Uiso   1.00
Cu674  Cu    0.24499   0.82754   0.43854   0.00000  Uiso   1.00
C675   C     0.41039   0.87674   0.53537   0.00000  Uiso   1.00
C676   C     0.08961   0.78992   0.46463   0.00000  Uiso   1.00
C677   C     0.38365   0.83470   0.49720   0.00000  Uiso   1.00
C678   C     0.11635   0.83196   0.50279   0.00000  Uiso   1.00
C679   C     0.40298   0.79298   0.45937   0.00000  Uiso   1.00
C680   C     0.09702   0.87368   0.54062   0.00000  Uiso   1.00
C681   C     0.44946   0.79170   0.46170   0.00000  Uiso   1.00
C682   C     0.05053   0.87497   0.53829   0.00000  Uiso   1.00
C683   C     0.47658   0.83376   0.49938   0.00000  Uiso   1.00
C684   C     0.02342   0.83290   0.50061   0.00000  Uiso   1.00
C685   C     0.45705   0.87673   0.53569   0.00000  Uiso   1.00
C686   C     0.04295   0.78993   0.46430   0.00000  Uiso   1.00
C687   C     0.46938   0.74834   0.42829   0.00000  Uiso   1.00
C688   C     0.03062   0.91832   0.57170   0.00000  Uiso   1.00
C689   C     0.01524   0.74746   0.42952   0.00000  Uiso   1.00
C690   C     0.48476   0.91920   0.57047   0.00000  Uiso   1.00
H691   H     0.44982   0.71419   0.40140   0.00000  Uiso   1.00
H692   H     0.05018   0.95248   0.59859   0.00000  Uiso   1.00
H693   H     0.02851   0.71273   0.40324   0.00000  Uiso   1.00
H694   H     0.47149   0.95394   0.59675   0.00000  Uiso   1.00
C695   C     0.24143   0.67781   0.47784   0.00000  Uiso   1.00
C696   C     0.25856   0.98886   0.52216   0.00000  Uiso   1.00
N697   N     0.23744   0.81881   0.34617   0.00000  Uiso   1.00
N698   N     0.26255   0.84786   0.65383   0.00000  Uiso   1.00
C699   C     0.38919   0.92134   0.57312   0.00000  Uiso   1.00
O700   O     0.36383   0.94605   0.54839   0.00000  Uiso   1.00
O701   O     0.39795   0.93456   0.63662   0.00000  Uiso   1.00
H702   H     0.38135   0.96545   0.65711   0.00000  Uiso   1.00
C703   C     0.11081   0.74531   0.42690   0.00000  Uiso   1.00
O704   O     0.13615   0.72060   0.45165   0.00000  Uiso   1.00
O705   O     0.10208   0.73209   0.36340   0.00000  Uiso   1.00
H706   H     0.11867   0.70119   0.34293   0.00000  Uiso   1.00
N707   N     0.37536   0.75170   0.41892   0.00000  Uiso   1.00
O708   O     0.37952   0.74210   0.36036   0.00000  Uiso   1.00
O709   O     0.34872   0.72123   0.44084   0.00000  Uiso   1.00
N710   N     0.12463   0.91496   0.58107   0.00000  Uiso   1.00
O711   O     0.12047   0.92456   0.63963   0.00000  Uiso   1.00
O712   O     0.15127   0.94544   0.55916   0.00000  Uiso   1.00
C713   C     0.21033   0.98268   0.42532   0.00000  Uiso   1.00
O714   O     0.17781   0.95600   0.43368   0.00000  Uiso   1.00
O715   O     0.21825   0.98736   0.36649   0.00000  Uiso   1.00
H716   H     0.19700   0.96401   0.33394   0.00000  Uiso   1.00
C717   C     0.28966   0.68399   0.57468   0.00000  Uiso   1.00
O718   O     0.32220   0.71063   0.56631   0.00000  Uiso   1.00
O719   O     0.28170   0.67938   0.63352   0.00000  Uiso   1.00
H720   H     0.30296   0.70272   0.66607   0.00000  Uiso   1.00
N721   N     0.19596   0.80184   0.64962   0.00000  Uiso   1.00
O722   O     0.16259   0.83053   0.66264   0.00000  Uiso   1.00
O723   O     0.18792   0.75266   0.62260   0.00000  Uiso   1.00
N724   N     0.30404   0.86483   0.35038   0.00000  Uiso   1.00
O725   O     0.33741   0.83613   0.33736   0.00000  Uiso   1.00
O726   O     0.31207   0.91401   0.37740   0.00000  Uiso   1.00
O727   O     0.75325   0.76204   0.53992   0.00000  Uiso   1.00
O728   O     0.74674   0.90462   0.46008   0.00000  Uiso   1.00
O729   O     0.74480   0.75226   0.43612   0.00000  Uiso   1.00
O730   O     0.75520   0.91441   0.56388   0.00000  Uiso   1.00
C731   C     0.74803   0.73347   0.48461   0.00000  Uiso   1.00
C732   C     0.75197   0.93320   0.51539   0.00000  Uiso   1.00
O733   O     0.68935   0.83821   0.55191   0.00000  Uiso   1.00
O734   O     0.81064   0.82845   0.44809   0.00000  Uiso   1.00
O735   O     0.68090   0.82843   0.44810   0.00000  Uiso   1.00
O736   O     0.81910   0.83824   0.55190   0.00000  Uiso   1.00
C737   C     0.66468   0.83325   0.50106   0.00000  Uiso   1.00
C738   C     0.83531   0.83341   0.49894   0.00000  Uiso   1.00
Cu739  Cu    0.75500   0.83913   0.56146   0.00000  Uiso   1.00
Cu740  Cu    0.74499   0.82754   0.43854   0.00000  Uiso   1.00
C741   C     0.91039   0.87674   0.53537   0.00000  Uiso   1.00
C742   C     0.58961   0.78992   0.46463   0.00000  Uiso   1.00
C743   C     0.88365   0.83470   0.49720   0.00000  Uiso   1.00
C744   C     0.61635   0.83196   0.50279   0.00000  Uiso   1.00
C745   C     0.90298   0.79298   0.45937   0.00000  Uiso   1.00
C746   C     0.59702   0.87368   0.54062   0.00000  Uiso   1.00
C747   C     0.94946   0.79170   0.46170   0.00000  Uiso   1.00
C748   C     0.55053   0.87497   0.53829   0.00000  Uiso   1.00
C749   C     0.97658   0.83376   0.49938   0.00000  Uiso   1.00
C750   C     0.52342   0.83290   0.50061   0.00000  Uiso   1.00
C751   C     0.95705   0.87673   0.53569   0.00000  Uiso   1.00
C752   C     0.54295   0.78993   0.46430   0.00000  Uiso   1.00
C753   C     0.96938   0.74834   0.42829   0.00000  Uiso   1.00
C754   C     0.53062   0.91832   0.57170   0.00000  Uiso   1.00
C755   C     0.51524   0.74746   0.42952   0.00000  Uiso   1.00
C756   C     0.98476   0.91920   0.57047   0.00000  Uiso   1.00
H757   H     0.94982   0.71419   0.40140   0.00000  Uiso   1.00
H758   H     0.55018   0.95248   0.59859   0.00000  Uiso   1.00
H759   H     0.52851   0.71273   0.40324   0.00000  Uiso   1.00
H760   H     0.97149   0.95394   0.59675   0.00000  Uiso   1.00
C761   C     0.74143   0.67781   0.47784   0.00000  Uiso   1.00
C762   C     0.75856   0.98886   0.52216   0.00000  Uiso   1.00
N763   N     0.73744   0.81881   0.34617   0.00000  Uiso   1.00
N764   N     0.76255   0.84786   0.65383   0.00000  Uiso   1.00
C765   C     0.88919   0.92134   0.57312   0.00000  Uiso   1.00
O766   O     0.86383   0.94605   0.54839   0.00000  Uiso   1.00
O767   O     0.89795   0.93456   0.63662   0.00000  Uiso   1.00
H768   H     0.88135   0.96545   0.65711   0.00000  Uiso   1.00
C769   C     0.61081   0.74531   0.42690   0.00000  Uiso   1.00
O770   O     0.63615   0.72060   0.45165   0.00000  Uiso   1.00
O771   O     0.60208   0.73209   0.36340   0.00000  Uiso   1.00
H772   H     0.61867   0.70119   0.34293   0.00000  Uiso   1.00
N773   N     0.87536   0.75170   0.41892   0.00000  Uiso   1.00
O774   O     0.87952   0.74210   0.36036   0.00000  Uiso   1.00
O775   O     0.84872   0.72123   0.44084   0.00000  Uiso   1.00
N776   N     0.62463   0.91496   0.58107   0.00000  Uiso   1.00
O777   O     0.62047   0.92456   0.63963   0.00000  Uiso   1.00
O778   O     0.65127   0.94544   0.55916   0.00000  Uiso   1.00
C779   C     0.71033   0.98268   0.42532   0.00000  Uiso   1.00
O780   O     0.67781   0.95600   0.43368   0.00000  Uiso   1.00
O781   O     0.71825   0.98736   0.36649   0.00000  Uiso   1.00
H782   H     0.69700   0.96401   0.33394   0.00000  Uiso   1.00
C783   C     0.78966   0.68399   0.57468   0.00000  Uiso   1.00
O784   O     0.82220   0.71063   0.56631   0.00000  Uiso   1.00
O785   O     0.78170   0.67938   0.63352   0.00000  Uiso   1.00
H786   H     0.80296   0.70272   0.66607   0.00000  Uiso   1.00
N787   N     0.69596   0.80184   0.64962   0.00000  Uiso   1.00
O788   O     0.66259   0.83053   0.66264   0.00000  Uiso   1.00
O789   O     0.68792   0.75266   0.62260   0.00000  Uiso   1.00
N790   N     0.80404   0.86483   0.35038   0.00000  Uiso   1.00
O791   O     0.83741   0.83613   0.33736   0.00000  Uiso   1.00
O792   O     0.81207   0.91401   0.37740   0.00000  Uiso   1.00
O793   O     0.25325   0.09538   0.87326   0.00000  Uiso   1.00
O794   O     0.24674   0.23796   0.79341   0.00000  Uiso   1.00
O795   O     0.24480   0.08559   0.76945   0.00000  Uiso   1.00
O796   O     0.25520   0.24774   0.89721   0.00000  Uiso   1.00
C797   C     0.24803   0.06680   0.81795   0.00000  Uiso   1.00
C798   C     0.25197   0.26653   0.84872   0.00000  Uiso   1.00
O799   O     0.18935   0.17155   0.88524   0.00000  Uiso   1.00
O800   O     0.31064   0.16179   0.78143   0.00000  Uiso   1.00
O801   O     0.18090   0.16176   0.78143   0.00000  Uiso   1.00
O802   O     0.31910   0.17157   0.88523   0.00000  Uiso   1.00
C803   C     0.16468   0.16659   0.83440   0.00000  Uiso   1.00
C804   C     0.33531   0.16674   0.83227   0.00000  Uiso   1.00
Cu805  Cu    0.25500   0.17246   0.89479   0.00000  Uiso   1.00
Cu806  Cu    0.24499   0.16087   0.77187   0.00000  Uiso   1.00
C807   C     0.41039   0.21008   0.86871   0.00000  Uiso   1.00
C808   C     0.08961   0.12325   0.79796   0.00000  Uiso   1.00
C809   C     0.38365   0.16804   0.83054   0.00000  Uiso   1.00
C810   C     0.11635   0.16529   0.83613   0.00000  Uiso   1.00
C811   C     0.40298   0.12632   0.79270   0.00000  Uiso   1.00
C812   C     0.09702   0.20702   0.87395   0.00000  Uiso   1.00
C813   C     0.44946   0.12503   0.79503   0.00000  Uiso   1.00
C814   C     0.05053   0.20830   0.87162   0.00000  Uiso   1.00
C815   C     0.47658   0.16710   0.83272   0.00000  Uiso   1.00
C816   C     0.02342   0.16623   0.83394   0.00000  Uiso   1.00
C817   C     0.45705   0.21006   0.86903   0.00000  Uiso   1.00
C818   C     0.04295   0.12327   0.79763   0.00000  Uiso   1.00
C819   C     0.46938   0.08168   0.76162   0.00000  Uiso   1.00
C820   C     0.03062   0.25166   0.90503   0.00000  Uiso   1.00
C821   C     0.01524   0.08079   0.76285   0.00000  Uiso   1.00
C822   C     0.48476   0.25254   0.90380   0.00000  Uiso   1.00
H823   H     0.44982   0.04752   0.73473   0.00000  Uiso   1.00
H824   H     0.05018   0.28581   0.93192   0.00000  Uiso   1.00
H825   H     0.02851   0.04606   0.73657   0.00000  Uiso   1.00
H826   H     0.47149   0.28727   0.93008   0.00000  Uiso   1.00
C827   C     0.24143   0.01114   0.81118   0.00000  Uiso   1.00
C828   C     0.25856   0.32219   0.85549   0.00000  Uiso   1.00
N829   N     0.23744   0.15214   0.67951   0.00000  Uiso   1.00
N830   N     0.26255   0.18119   0.98716   0.00000  Uiso   1.00
C831   C     0.38919   0.25467   0.90646   0.00000  Uiso   1.00
O832   O     0.36383   0.27938   0.88173   0.00000  Uiso   1.00
O833   O     0.39795   0.26789   0.96996   0.00000  Uiso   1.00
H834   H     0.38135   0.29878   0.99044   0.00000  Uiso   1.00
C835   C     0.11081   0.07865   0.76024   0.00000  Uiso   1.00
O836   O     0.13615   0.05393   0.78499   0.00000  Uiso   1.00
O837   O     0.10208   0.06542   0.69673   0.00000  Uiso   1.00
H838   H     0.11867   0.03452   0.67626   0.00000  Uiso   1.00
N839   N     0.37536   0.08503   0.75226   0.00000  Uiso   1.00
O840   O     0.37952   0.07543   0.69370   0.00000  Uiso   1.00
O841   O     0.34872   0.05457   0.77417   0.00000  Uiso   1.00
N842   N     0.12463   0.24830   0.91440   0.00000  Uiso   1.00
O843   O     0.12047   0.25789   0.97296   0.00000  Uiso   1.00
O844   O     0.15127   0.27877   0.89249   0.00000  Uiso   1.00
C845   C     0.21033   0.31602   0.75865   0.00000  Uiso   1.00
O846   O     0.17781   0.28933   0.76701   0.00000  Uiso   1.00
O847   O     0.21825   0.32069   0.69982   0.00000  Uiso   1.00
H848   H     0.19700   0.29735   0.66727   0.00000  Uiso   1.00
C849   C     0.28966   0.01732   0.90801   0.00000  Uiso   1.00
O850   O     0.32220   0.04396   0.89964   0.00000  Uiso   1.00
O851   O     0.28170   0.01272   0.96685   0.00000  Uiso   1.00
H852   H     0.30296   0.03606   0.99940   0.00000  Uiso   1.00
N853   N     0.19596   0.13517   0.98295   0.00000  Uiso   1.00
O854   O     0.16259   0.16387   0.99597   0.00000  Uiso   1.00
O855   O     0.18792   0.08599   0.95594   0.00000  Uiso   1.00
N856   N     0.30404   0.19816   0.68371   0.00000  Uiso   1.00
O857   O     0.33741   0.16947   0.67070   0.00000  Uiso   1.00
O858   O     0.31207   0.24734   0.71073   0.00000  Uiso   1.00
O859   O     0.75325   0.09538   0.87326   0.00000  Uiso   1.00
O860   O     0.74674   0.23796   0.79341   0.00000  Uiso   1.00
O861   O     0.74480   0.08559   0.76945   0.00000  Uiso   1.00
O862   O     0.75520   0.24774   0.89721   0.00000  Uiso   1.00
C863   C     0.74803   0.06680   0.81795   0.00000  Uiso   1.00
C864   C     0.75197   0.26653   0.84872   0.00000  Uiso   1.00
O865   O     0.68935   0.17155   0.88524   0.00000  Uiso   1.00
O866   O     0.81064   0.16179   0.78143   0.00000  Uiso   1.00
O867   O     0.68090   0.16176   0.78143   0.00000  Uiso   1.00
O868   O     0.81910   0.17157   0.88523   0.00000  Uiso   1.00
C869   C     0.66468   0.16659   0.83440   0.00000  Uiso   1.00
C870   C     0.83531   0.16674   0.83227   0.00000  Uiso   1.00
Cu871  Cu    0.75500   0.17246   0.89479   0.00000  Uiso   1.00
Cu872  Cu    0.74499   0.16087   0.77187   0.00000  Uiso   1.00
C873   C     0.91039   0.21008   0.86871   0.00000  Uiso   1.00
C874   C     0.58961   0.12325   0.79796   0.00000  Uiso   1.00
C875   C     0.88365   0.16804   0.83054   0.00000  Uiso   1.00
C876   C     0.61635   0.16529   0.83613   0.00000  Uiso   1.00
C877   C     0.90298   0.12632   0.79270   0.00000  Uiso   1.00
C878   C     0.59702   0.20702   0.87395   0.00000  Uiso   1.00
C879   C     0.94946   0.12503   0.79503   0.00000  Uiso   1.00
C880   C     0.55053   0.20830   0.87162   0.00000  Uiso   1.00
C881   C     0.97658   0.16710   0.83272   0.00000  Uiso   1.00
C882   C     0.52342   0.16623   0.83394   0.00000  Uiso   1.00
C883   C     0.95705   0.21006   0.86903   0.00000  Uiso   1.00
C884   C     0.54295   0.12327   0.79763   0.00000  Uiso   1.00
C885   C     0.96938   0.08168   0.76162   0.00000  Uiso   1.00
C886   C     0.53062   0.25166   0.90503   0.00000  Uiso   1.00
C887   C     0.51524   0.08079   0.76285   0.00000  Uiso   1.00
C888   C     0.98476   0.25254   0.90380   0.00000  Uiso   1.00
H889   H     0.94982   0.04752   0.73473   0.00000  Uiso   1.00
H890   H     0.55018   0.28581   0.93192   0.00000  Uiso   1.00
H891   H     0.52851   0.04606   0.73657   0.00000  Uiso   1.00
H892   H     0.97149   0.28727   0.93008   0.00000  Uiso   1.00
C893   C     0.74143   0.01114   0.81118   0.00000  Uiso   1.00
C894   C     0.75856   0.32219   0.85549   0.00000  Uiso   1.00
N895   N     0.73744   0.15214   0.67951   0.00000  Uiso   1.00
N896   N     0.76255   0.18119   0.98716   0.00000  Uiso   1.00
C897   C     0.88919   0.25467   0.90646   0.00000  Uiso   1.00
O898   O     0.86383   0.27938   0.88173   0.00000  Uiso   1.00
O899   O     0.89795   0.26789   0.96996   0.00000  Uiso   1.00
H900   H     0.88135   0.29878   0.99044   0.00000  Uiso   1.00
C901   C     0.61081   0.07865   0.76024   0.00000  Uiso   1.00
O902   O     0.63615   0.05393   0.78499   0.00000  Uiso   1.00
O903   O     0.60208   0.06542   0.69673   0.00000  Uiso   1.00
H904   H     0.61867   0.03452   0.67626   0.00000  Uiso   1.00
N905   N     0.87536   0.08503   0.75226   0.00000  Uiso   1.00
O906   O     0.87952   0.07543   0.69370   0.00000  Uiso   1.00
O907   O     0.84872   0.05457   0.77417   0.00000  Uiso   1.00
N908   N     0.62463   0.24830   0.91440   0.00000  Uiso   1.00
O909   O     0.62047   0.25789   0.97296   0.00000  Uiso   1.00
O910   O     0.65127   0.27877   0.89249   0.00000  Uiso   1.00
C911   C     0.71033   0.31602   0.75865   0.00000  Uiso   1.00
O912   O     0.67781   0.28933   0.76701   0.00000  Uiso   1.00
O913   O     0.71825   0.32069   0.69982   0.00000  Uiso   1.00
H914   H     0.69700   0.29735   0.66727   0.00000  Uiso   1.00
C915   C     0.78966   0.01732   0.90801   0.00000  Uiso   1.00
O916   O     0.82220   0.04396   0.89964   0.00000  Uiso   1.00
O917   O     0.78170   0.01272   0.96685   0.00000  Uiso   1.00
H918   H     0.80296   0.03606   0.99940   0.00000  Uiso   1.00
N919   N     0.69596   0.13517   0.98295   0.00000  Uiso   1.00
O920   O     0.66259   0.16387   0.99597   0.00000  Uiso   1.00
O921   O     0.68792   0.08599   0.95594   0.00000  Uiso   1.00
N922   N     0.80404   0.19816   0.68371   0.00000  Uiso   1.00
O923   O     0.83741   0.16947   0.67070   0.00000  Uiso   1.00
O924   O     0.81207   0.24734   0.71073   0.00000  Uiso   1.00
O925   O     0.25325   0.42871   0.87326   0.00000  Uiso   1.00
O926   O     0.24674   0.57129   0.79341   0.00000  Uiso   1.00
O927   O     0.24480   0.41892   0.76945   0.00000  Uiso   1.00
O928   O     0.25520   0.58108   0.89721   0.00000  Uiso   1.00
C929   C     0.24803   0.40014   0.81795   0.00000  Uiso   1.00
C930   C     0.25197   0.59986   0.84872   0.00000  Uiso   1.00
O931   O     0.18935   0.50488   0.88524   0.00000  Uiso   1.00
O932   O     0.31064   0.49512   0.78143   0.00000  Uiso   1.00
O933   O     0.18090   0.49510   0.78143   0.00000  Uiso   1.00
O934   O     0.31910   0.50490   0.88523   0.00000  Uiso   1.00
C935   C     0.16468   0.49992   0.83440   0.00000  Uiso   1.00
C936   C     0.33531   0.50008   0.83227   0.00000  Uiso   1.00
Cu937  Cu    0.25500   0.50579   0.89479   0.00000  Uiso   1.00
Cu938  Cu    0.24499   0.49421   0.77187   0.00000  Uiso   1.00
C939   C     0.41039   0.54341   0.86871   0.00000  Uiso   1.00
C940   C     0.08961   0.45658   0.79796   0.00000  Uiso   1.00
C941   C     0.38365   0.50137   0.83054   0.00000  Uiso   1.00
C942   C     0.11635   0.49863   0.83613   0.00000  Uiso   1.00
C943   C     0.40298   0.45965   0.79270   0.00000  Uiso   1.00
C944   C     0.09702   0.54035   0.87395   0.00000  Uiso   1.00
C945   C     0.44946   0.45837   0.79503   0.00000  Uiso   1.00
C946   C     0.05053   0.54163   0.87162   0.00000  Uiso   1.00
C947   C     0.47658   0.50043   0.83272   0.00000  Uiso   1.00
C948   C     0.02342   0.49957   0.83394   0.00000  Uiso   1.00
C949   C     0.45705   0.54340   0.86903   0.00000  Uiso   1.00
C950   C     0.04295   0.45660   0.79763   0.00000  Uiso   1.00
C951   C     0.46938   0.41501   0.76162   0.00000  Uiso   1.00
C952   C     0.03062   0.58499   0.90503   0.00000  Uiso   1.00
C953   C     0.01524   0.41413   0.76285   0.00000  Uiso   1.00
C954   C     0.48476   0.58587   0.90380   0.00000  Uiso   1.00
H955   H     0.44982   0.38086   0.73473   0.00000  Uiso   1.00
H956   H     0.05018   0.61914   0.93192   0.00000  Uiso   1.00
H957   H     0.02851   0.37940   0.73657   0.00000  Uiso   1.00
H958   H     0.47149   0.62060   0.93008   0.00000  Uiso   1.00
C959   C     0.24143   0.34447   0.81118   0.00000  Uiso   1.00
C960   C     0.25856   0.65553   0.85549   0.00000  Uiso   1.00
N961   N     0.23744   0.48547   0.67951   0.00000  Uiso   1.00
N962   N     0.26255   0.51453   0.98716   0.00000  Uiso   1.00
C963   C     0.38919   0.58800   0.90646   0.00000  Uiso   1.00
O964   O     0.36383   0.61271   0.88173   0.00000  Uiso   1.00
O965   O     0.39795   0.60122   0.96996   0.00000  Uiso   1.00
H966   H     0.38135   0.63212   0.99044   0.00000  Uiso   1.00
C967   C     0.11081   0.41198   0.76024   0.00000  Uiso   1.00
O968   O     0.13615   0.38727   0.78499   0.00000  Uiso   1.00
O969   O     0.10208   0.39876   0.69673   0.00000  Uiso   1.00
H970   H     0.11867   0.36786   0.67626   0.00000  Uiso   1.00
N971   N     0.37536   0.41837   0.75226   0.00000  Uiso   1.00
O972   O     0.37952   0.40876   0.69370   0.00000  Uiso   1.00
O973   O     0.34872   0.38790   0.77417   0.00000  Uiso   1.00
N974   N     0.12463   0.58163   0.91440   0.00000  Uiso   1.00
O975   O     0.12047   0.59123   0.97296   0.00000  Uiso   1.00
O976   O     0.15127   0.61210   0.89249   0.00000  Uiso   1.00
C977   C     0.21033   0.64935   0.75865   0.00000  Uiso   1.00
O978   O     0.17781   0.62267   0.76701   0.00000  Uiso   1.00
O979   O     0.21825   0.65402   0.69982   0.00000  Uiso   1.00
H980   H     0.19700   0.63068   0.66727   0.00000  Uiso   1.00
C981   C     0.28966   0.35065   0.90801   0.00000  Uiso   1.00
O982   O     0.32220   0.37729   0.89964   0.00000  Uiso   1.00
O983   O     0.28170   0.34605   0.96685   0.00000  Uiso   1.00
H984   H     0.30296   0.36939   0.99940   0.00000  Uiso   1.00
N985   N     0.19596   0.46851   0.98295   0.00000  Uiso   1.00
O986   O     0.16259   0.49720   0.99597   0.00000  Uiso   1.00
O987   O     0.18792   0.41932   0.95594   0.00000  Uiso   1.00
N988   N     0.30404   0.53149   0.68371   0.00000  Uiso   1.00
O989   O     0.33741   0.50280   0.67070   0.00000  Uiso   1.00
O990   O     0.31207   0.58068   0.71073   0.00000  Uiso   1.00
O991   O     0.75325   0.42871   0.87326   0.00000  Uiso   1.00
O992   O     0.74674   0.57129   0.79341   0.00000  Uiso   1.00
O993   O     0.74480   0.41892   0.76945   0.00000  Uiso   1.00
O994   O     0.75520   0.58108   0.89721   0.00000  Uiso   1.00
C995   C     0.74803   0.40014   0.81795   0.00000  Uiso   1.00
C996   C     0.75197   0.59986   0.84872   0.00000  Uiso   1.00
O997   O     0.68935   0.50488   0.88524   0.00000  Uiso   1.00
O998   O     0.81064   0.49512   0.78143   0.00000  Uiso   1.00
O999   O     0.68090   0.49510   0.78143   0.00000  Uiso   1.00
O1000  O     0.81910   0.50490   0.88523   0.00000  Uiso   1.00
C1001  C     0.66468   0.49992   0.83440   0.00000  Uiso   1.00
C1002  C     0.83531   0.50008   0.83227   0.00000  Uiso   1.00
Cu1003 Cu    0.75500   0.50579   0.89479   0.00000  Uiso   1.00
Cu1004 Cu    0.74499   0.49421   0.77187   0.00000  Uiso   1.00
C1005  C     0.91039   0.54341   0.86871   0.00000  Uiso   1.00
C1006  C     0.58961   0.45658   0.79796   0.00000  Uiso   1.00
C1007  C     0.88365   0.50137   0.83054   0.00000  Uiso   1.00
C1008  C     0.61635   0.49863   0.83613   0.00000  Uiso   1.00
C1009  C     0.90298   0.45965   0.79270   0.00000  Uiso   1.00
C1010  C     0.59702   0.54035   0.87395   0.00000  Uiso   1.00
C1011  C     0.94946   0.45837   0.79503   0.00000  Uiso   1.00
C1012  C     0.55053   0.54163   0.87162   0.00000  Uiso   1.00
C1013  C     0.97658   0.50043   0.83272   0.00000  Uiso   1.00
C1014  C     0.52342   0.49957   0.83394   0.00000  Uiso   1.00
C1015  C     0.95705   0.54340   0.86903   0.00000  Uiso   1.00
C1016  C     0.54295   0.45660   0.79763   0.00000  Uiso   1.00
C1017  C     0.96938   0.41501   0.76162   0.00000  Uiso   1.00
C1018  C     0.53062   0.58499   0.90503   0.00000  Uiso   1.00
C1019  C     0.51524   0.41413   0.76285   0.00000  Uiso   1.00
C1020  C     0.98476   0.58587   0.90380   0.00000  Uiso   1.00
H1021  H     0.94982   0.38086   0.73473   0.00000  Uiso   1.00
H1022  H     0.55018   0.61914   0.93192   0.00000  Uiso   1.00
H1023  H     0.52851   0.37940   0.73657   0.00000  Uiso   1.00
H1024  H     0.97149   0.62060   0.93008   0.00000  Uiso   1.00
C1025  C     0.74143   0.34447   0.81118   0.00000  Uiso   1.00
C1026  C     0.75856   0.65553   0.85549   0.00000  Uiso   1.00
N1027  N     0.73744   0.48547   0.67951   0.00000  Uiso   1.00
N1028  N     0.76255   0.51453   0.98716   0.00000  Uiso   1.00
C1029  C     0.88919   0.58800   0.90646   0.00000  Uiso   1.00
O1030  O     0.86383   0.61271   0.88173   0.00000  Uiso   1.00
O1031  O     0.89795   0.60122   0.96996   0.00000  Uiso   1.00
H1032  H     0.88135   0.63212   0.99044   0.00000  Uiso   1.00
C1033  C     0.61081   0.41198   0.76024   0.00000  Uiso   1.00
O1034  O     0.63615   0.38727   0.78499   0.00000  Uiso   1.00
O1035  O     0.60208   0.39876   0.69673   0.00000  Uiso   1.00
H1036  H     0.61867   0.36786   0.67626   0.00000  Uiso   1.00
N1037  N     0.87536   0.41837   0.75226   0.00000  Uiso   1.00
O1038  O     0.87952   0.40876   0.69370   0.00000  Uiso   1.00
O1039  O     0.84872   0.38790   0.77417   0.00000  Uiso   1.00
N1040  N     0.62463   0.58163   0.91440   0.00000  Uiso   1.00
O1041  O     0.62047   0.59123   0.97296   0.00000  Uiso   1.00
O1042  O     0.65127   0.61210   0.89249   0.00000  Uiso   1.00
C1043  C     0.71033   0.64935   0.75865   0.00000  Uiso   1.00
O1044  O     0.67781   0.62267   0.76701   0.00000  Uiso   1.00
O1045  O     0.71825   0.65402   0.69982   0.00000  Uiso   1.00
H1046  H     0.69700   0.63068   0.66727   0.00000  Uiso   1.00
C1047  C     0.78966   0.35065   0.90801   0.00000  Uiso   1.00
O1048  O     0.82220   0.37729   0.89964   0.00000  Uiso   1.00
O1049  O     0.78170   0.34605   0.96685   0.00000  Uiso   1.00
H1050  H     0.80296   0.36939   0.99940   0.00000  Uiso   1.00
N1051  N     0.69596   0.46851   0.98295   0.00000  Uiso   1.00
O1052  O     0.66259   0.49720   0.99597   0.00000  Uiso   1.00
O1053  O     0.68792   0.41932   0.95594   0.00000  Uiso   1.00
N1054  N     0.80404   0.53149   0.68371   0.00000  Uiso   1.00
O1055  O     0.83741   0.50280   0.67070   0.00000  Uiso   1.00
O1056  O     0.81207   0.58068   0.71073   0.00000  Uiso   1.00
O1057  O     0.25325   0.76204   0.87326   0.00000  Uiso   1.00
O1058  O     0.24674   0.90462   0.79341   0.00000  Uiso   1.00
O1059  O     0.24480   0.75226   0.76945   0.00000  Uiso   1.00
O1060  O     0.25520   0.91441   0.89721   0.00000  Uiso   1.00
C1061  C     0.24803   0.73347   0.81795   0.00000  Uiso   1.00
C1062  C     0.25197   0.93320   0.84872   0.00000  Uiso   1.00
O1063  O     0.18935   0.83821   0.88524   0.00000  Uiso   1.00
O1064  O     0.31064   0.82845   0.78143   0.00000  Uiso   1.00
O1065  O     0.18090   0.82843   0.78143   0.00000  Uiso   1.00
O1066  O     0.31910   0.83824   0.88523   0.00000  Uiso   1.00
C1067  C     0.16468   0.83325   0.83440   0.00000  Uiso   1.00
C1068  C     0.33531   0.83341   0.83227   0.00000  Uiso   1.00
Cu1069 Cu    0.25500   0.83913   0.89479   0.00000  Uiso   1.00
Cu1070 Cu    0.24499   0.82754   0.77187   0.00000  Uiso   1.00
C1071  C     0.41039   0.87674   0.86871   0.00000  Uiso   1.00
C1072  C     0.08961   0.78992   0.79796   0.00000  Uiso   1.00
C1073  C     0.38365   0.83470   0.83054   0.00000  Uiso   1.00
C1074  C     0.11635   0.83196   0.83613   0.00000  Uiso   1.00
C1075  C     0.40298   0.79298   0.79270   0.00000  Uiso   1.00
C1076  C     0.09702   0.87368   0.87395   0.00000  Uiso   1.00
C1077  C     0.44946   0.79170   0.79503   0.00000  Uiso   1.00
C1078  C     0.05053   0.87497   0.87162   0.00000  Uiso   1.00
C1079  C     0.47658   0.83376   0.83272   0.00000  Uiso   1.00
C1080  C     0.02342   0.83290   0.83394   0.00000  Uiso   1.00
C1081  C     0.45705   0.87673   0.86903   0.00000  Uiso   1.00
C1082  C     0.04295   0.78993   0.79763   0.00000  Uiso   1.00
C1083  C     0.46938   0.74834   0.76162   0.00000  Uiso   1.00
C1084  C     0.03062   0.91832   0.90503   0.00000  Uiso   1.00
C1085  C     0.01524   0.74746   0.76285   0.00000  Uiso   1.00
C1086  C     0.48476   0.91920   0.90380   0.00000  Uiso   1.00
H1087  H     0.44982   0.71419   0.73473   0.00000  Uiso   1.00
H1088  H     0.05018   0.95248   0.93192   0.00000  Uiso   1.00
H1089  H     0.02851   0.71273   0.73657   0.00000  Uiso   1.00
H1090  H     0.47149   0.95394   0.93008   0.00000  Uiso   1.00
C1091  C     0.24143   0.67781   0.81118   0.00000  Uiso   1.00
C1092  C     0.25856   0.98886   0.85549   0.00000  Uiso   1.00
N1093  N     0.23744   0.81881   0.67951   0.00000  Uiso   1.00
N1094  N     0.26255   0.84786   0.98716   0.00000  Uiso   1.00
C1095  C     0.38919   0.92134   0.90646   0.00000  Uiso   1.00
O1096  O     0.36383   0.94605   0.88173   0.00000  Uiso   1.00
O1097  O     0.39795   0.93456   0.96996   0.00000  Uiso   1.00
H1098  H     0.38135   0.96545   0.99044   0.00000  Uiso   1.00
C1099  C     0.11081   0.74531   0.76024   0.00000  Uiso   1.00
O1100  O     0.13615   0.72060   0.78499   0.00000  Uiso   1.00
O1101  O     0.10208   0.73209   0.69673   0.00000  Uiso   1.00
H1102  H     0.11867   0.70119   0.67626   0.00000  Uiso   1.00
N1103  N     0.37536   0.75170   0.75226   0.00000  Uiso   1.00
O1104  O     0.37952   0.74210   0.69370   0.00000  Uiso   1.00
O1105  O     0.34872   0.72123   0.77417   0.00000  Uiso   1.00
N1106  N     0.12463   0.91496   0.91440   0.00000  Uiso   1.00
O1107  O     0.12047   0.92456   0.97296   0.00000  Uiso   1.00
O1108  O     0.15127   0.94544   0.89249   0.00000  Uiso   1.00
C1109  C     0.21033   0.98268   0.75865   0.00000  Uiso   1.00
O1110  O     0.17781   0.95600   0.76701   0.00000  Uiso   1.00
O1111  O     0.21825   0.98736   0.69982   0.00000  Uiso   1.00
H1112  H     0.19700   0.96401   0.66727   0.00000  Uiso   1.00
C1113  C     0.28966   0.68399   0.90801   0.00000  Uiso   1.00
O1114  O     0.32220   0.71063   0.89964   0.00000  Uiso   1.00
O1115  O     0.28170   0.67938   0.96685   0.00000  Uiso   1.00
H1116  H     0.30296   0.70272   0.99940   0.00000  Uiso   1.00
N1117  N     0.19596   0.80184   0.98295   0.00000  Uiso   1.00
O1118  O     0.16259   0.83053   0.99597   0.00000  Uiso   1.00
O1119  O     0.18792   0.75266   0.95594   0.00000  Uiso   1.00
N1120  N     0.30404   0.86483   0.68371   0.00000  Uiso   1.00
O1121  O     0.33741   0.83613   0.67070   0.00000  Uiso   1.00
O1122  O     0.31207   0.91401   0.71073   0.00000  Uiso   1.00
O1123  O     0.75325   0.76204   0.87326   0.00000  Uiso   1.00
O1124  O     0.74674   0.90462   0.79341   0.00000  Uiso   1.00
O1125  O     0.74480   0.75226   0.76945   0.00000  Uiso   1.00
O1126  O     0.75520   0.91441   0.89721   0.00000  Uiso   1.00
C1127  C     0.74803   0.73347   0.81795   0.00000  Uiso   1.00
C1128  C     0.75197   0.93320   0.84872   0.00000  Uiso   1.00
O1129  O     0.68935   0.83821   0.88524   0.00000  Uiso   1.00
O1130  O     0.81064   0.82845   0.78143   0.00000  Uiso   1.00
O1131  O     0.68090   0.82843   0.78143   0.00000  Uiso   1.00
O1132  O     0.81910   0.83824   0.88523   0.00000  Uiso   1.00
C1133  C     0.66468   0.83325   0.83440   0.00000  Uiso   1.00
C1134  C     0.83531   0.83341   0.83227   0.00000  Uiso   1.00
Cu1135 Cu    0.75500   0.83913   0.89479   0.00000  Uiso   1.00
Cu1136 Cu    0.74499   0.82754   0.77187   0.00000  Uiso   1.00
C1137  C     0.91039   0.87674   0.86871   0.00000  Uiso   1.00
C1138  C     0.58961   0.78992   0.79796   0.00000  Uiso   1.00
C1139  C     0.88365   0.83470   0.83054   0.00000  Uiso   1.00
C1140  C     0.61635   0.83196   0.83613   0.00000  Uiso   1.00
C1141  C     0.90298   0.79298   0.79270   0.00000  Uiso   1.00
C1142  C     0.59702   0.87368   0.87395   0.00000  Uiso   1.00
C1143  C     0.94946   0.79170   0.79503   0.00000  Uiso   1.00
C1144  C     0.55053   0.87497   0.87162   0.00000  Uiso   1.00
C1145  C     0.97658   0.83376   0.83272   0.00000  Uiso   1.00
C1146  C     0.52342   0.83290   0.83394   0.00000  Uiso   1.00
C1147  C     0.95705   0.87673   0.86903   0.00000  Uiso   1.00
C1148  C     0.54295   0.78993   0.79763   0.00000  Uiso   1.00
C1149  C     0.96938   0.74834   0.76162   0.00000  Uiso   1.00
C1150  C     0.53062   0.91832   0.90503   0.00000  Uiso   1.00
C1151  C     0.51524   0.74746   0.76285   0.00000  Uiso   1.00
C1152  C     0.98476   0.91920   0.90380   0.00000  Uiso   1.00
H1153  H     0.94982   0.71419   0.73473   0.00000  Uiso   1.00
H1154  H     0.55018   0.95248   0.93192   0.00000  Uiso   1.00
H1155  H     0.52851   0.71273   0.73657   0.00000  Uiso   1.00
H1156  H     0.97149   0.95394   0.93008   0.00000  Uiso   1.00
C1157  C     0.74143   0.67781   0.81118   0.00000  Uiso   1.00
C1158  C     0.75856   0.98886   0.85549   0.00000  Uiso   1.00
N1159  N     0.73744   0.81881   0.67951   0.00000  Uiso   1.00
N1160  N     0.76255   0.84786   0.98716   0.00000  Uiso   1.00
C1161  C     0.88919   0.92134   0.90646   0.00000  Uiso   1.00
O1162  O     0.86383   0.94605   0.88173   0.00000  Uiso   1.00
O1163  O     0.89795   0.93456   0.96996   0.00000  Uiso   1.00
H1164  H     0.88135   0.96545   0.99044   0.00000  Uiso   1.00
C1165  C     0.61081   0.74531   0.76024   0.00000  Uiso   1.00
O1166  O     0.63615   0.72060   0.78499   0.00000  Uiso   1.00
O1167  O     0.60208   0.73209   0.69673   0.00000  Uiso   1.00
H1168  H     0.61867   0.70119   0.67626   0.00000  Uiso   1.00
N1169  N     0.87536   0.75170   0.75226   0.00000  Uiso   1.00
O1170  O     0.87952   0.74210   0.69370   0.00000  Uiso   1.00
O1171  O     0.84872   0.72123   0.77417   0.00000  Uiso   1.00
N1172  N     0.62463   0.91496   0.91440   0.00000  Uiso   1.00
O1173  O     0.62047   0.92456   0.97296   0.00000  Uiso   1.00
O1174  O     0.65127   0.94544   0.89249   0.00000  Uiso   1.00
C1175  C     0.71033   0.98268   0.75865   0.00000  Uiso   1.00
O1176  O     0.67781   0.95600   0.76701   0.00000  Uiso   1.00
O1177  O     0.71825   0.98736   0.69982   0.00000  Uiso   1.00
H1178  H     0.69700   0.96401   0.66727   0.00000  Uiso   1.00
C1179  C     0.78966   0.68399   0.90801   0.00000  Uiso   1.00
O1180  O     0.82220   0.71063   0.89964   0.00000  Uiso   1.00
O1181  O     0.78170   0.67938   0.96685   0.00000  Uiso   1.00
H1182  H     0.80296   0.70272   0.99940   0.00000  Uiso   1.00
N1183  N     0.69596   0.80184   0.98295   0.00000  Uiso   1.00
O1184  O     0.66259   0.83053   0.99597   0.00000  Uiso   1.00
O1185  O     0.68792   0.75266   0.95594   0.00000  Uiso   1.00
N1186  N     0.80404   0.86483   0.68371   0.00000  Uiso   1.00
O1187  O     0.83741   0.83613   0.67070   0.00000  Uiso   1.00
O1188  O     0.81207   0.91401   0.71073   0.00000  Uiso   1.00
loop_
_geom_bond_atom_site_label_1
_geom_bond_atom_site_label_2
_geom_bond_distance
_geom_bond_site_symmetry_2
_ccdc_geom_bond_type
O1     C5      1.295   .     A
O1     Cu13    1.972   .     S
O2     C6      1.295   .     A
O2     Cu14    1.972   .     S
O3     C5      1.300   .     A
O3     Cu14    1.970   .     S
O4     C6      1.300   .     A
O4     Cu13    1.970   .     S
C5     C35     1.439   .     S
C6     C36     1.439   .     S
O7     C11     1.304   .     A
O7     Cu13    1.978   .     S
O8     C12     1.304   .     A
O8     Cu14    1.978   .     S
O9     Cu14    1.960   .     S
O9     C11     1.300   .     A
O10    C12     1.300   .     A
O10    Cu13    1.960   .     S
C11    C18     1.460   .     S
C12    C17     1.460   .     S
Cu13   Cu14    2.713   .     S
Cu13   N38     2.039   .     S
Cu14   N37     2.039   .     S
C15    C39     1.485   .     S
C15    C25     1.408   .     A
C15    C17     1.412   .     A
C16    C43     1.485   .     S
C16    C26     1.408   .     A
C16    C18     1.412   .     A
C17    C19     1.406   .     A
C18    C20     1.406   .     A
C19    C21     1.403   .     A
C19    N47     1.434   .     S
C20    N50     1.434   .     S
C20    C22     1.403   .     A
C21    C27     1.403   .     A
C21    C23     1.413   .     A
C22    C28     1.403   .     A
C22    C24     1.413   .     A
C23    C25     1.416   .     A
C23    C90     1.414   .     S
C24    C26     1.416   .     A
C24    C89     1.414   1_455 S
C25    C30     1.406   .     A
C26    C29     1.406   .     A
C27    H31     1.082   .     S
C27    C95     1.384   .     S
C28    H32     1.082   .     S
C28    C96     1.384   1_455 S
C29    H33     1.081   .     S
C29    C93     1.384   1_455 S
C30    H34     1.081   .     S
C30    C94     1.384   .     S
C35    C300    1.360   1_545 S
C35    C317    1.490   1_545 S
C36    C167    1.360   .     S
C36    C189    1.490   .     S
N37    N830    1.299   1_554 S
N37    N853    1.384   1_554 S
N38    N433    1.299   .     S
N38    N460    1.384   .     S
C39    O41     1.398   .     S
C39    O40     1.221   .     D
O41    H42     1.014   .     S
C43    O45     1.398   .     S
C43    O44     1.221   .     D
O45    H46     1.014   .     S
N47    O49     1.301   .     A
N47    O48     1.301   .     A
N50    O52     1.301   .     A
N50    O51     1.301   .     A
C53    O54     1.224   .     D
C53    O55     1.393   .     S
C53    C167    1.490   .     S
O55    H56     1.009   .     S
C57    O58     1.224   .     D
C57    O59     1.393   .     S
C57    C300    1.490   1_545 S
O59    H60     1.009   .     S
N61    O62     1.301   .     A
N61    O63     1.300   .     A
N61    N433    1.384   .     S
N64    O65     1.301   .     A
N64    O66     1.300   .     A
N64    N830    1.384   1_554 S
O67    C71     1.295   .     A
O67    Cu79    1.972   .     S
O68    C72     1.295   .     A
O68    Cu80    1.972   .     S
O69    C71     1.300   .     A
O69    Cu80    1.970   .     S
O70    C72     1.300   .     A
O70    Cu79    1.970   .     S
C71    C101    1.439   .     S
C72    C102    1.439   .     S
O73    C77     1.304   .     A
O73    Cu79    1.978   .     S
O74    C78     1.304   .     A
O74    Cu80    1.978   .     S
O75    Cu80    1.960   .     S
O75    C77     1.300   .     A
O76    C78     1.300   .     A
O76    Cu79    1.960   .     S
C77    C84     1.460   .     S
C78    C83     1.460   .     S
Cu79   Cu80    2.713   .     S
Cu79   N104    2.039   .     S
Cu80   N103    2.039   .     S
C81    C105    1.485   .     S
C81    C91     1.408   .     A
C81    C83     1.412   .     A
C82    C109    1.485   .     S
C82    C92     1.408   .     A
C82    C84     1.412   .     A
C83    C85     1.406   .     A
C84    C86     1.406   .     A
C85    C87     1.403   .     A
C85    N113    1.434   .     S
C86    N116    1.434   .     S
C86    C88     1.403   .     A
C87    C93     1.403   .     A
C87    C89     1.413   .     A
C88    C94     1.403   .     A
C88    C90     1.413   .     A
C89    C91     1.416   .     A
C89    C24     1.414   1_655 S
C90    C92     1.416   .     A
C91    C96     1.406   .     A
C92    C95     1.406   .     A
C93    H97     1.082   .     S
C93    C29     1.384   1_655 S
C94    H98     1.082   .     S
C95    H99     1.081   .     S
C96    H100    1.081   .     S
C96    C28     1.384   1_655 S
C101   C366    1.360   1_545 S
C101   C383    1.490   1_545 S
C102   C233    1.360   .     S
C102   C255    1.490   .     S
N103   N896    1.299   1_554 S
N103   N919    1.384   1_554 S
N104   N499    1.299   .     S
N104   N526    1.384   .     S
C105   O107    1.398   .     S
C105   O106    1.221   .     D
O107   H108    1.014   .     S
C109   O111    1.398   .     S
C109   O110    1.221   .     D
O111   H112    1.014   .     S
N113   O115    1.301   .     A
N113   O114    1.301   .     A
N116   O118    1.301   .     A
N116   O117    1.301   .     A
C119   O120    1.224   .     D
C119   O121    1.393   .     S
C119   C233    1.490   .     S
O121   H122    1.009   .     S
C123   O124    1.224   .     D
C123   O125    1.393   .     S
C123   C366    1.490   1_545 S
O125   H126    1.009   .     S
N127   O128    1.301   .     A
N127   O129    1.300   .     A
N127   N499    1.384   .     S
N130   O131    1.301   .     A
N130   O132    1.300   .     A
N130   N896    1.384   1_554 S
O133   C137    1.295   .     A
O133   Cu145   1.972   .     S
O134   C138    1.295   .     A
O134   Cu146   1.972   .     S
O135   C137    1.300   .     A
O135   Cu146   1.970   .     S
O136   C138    1.300   .     A
O136   Cu145   1.970   .     S
C137   C167    1.439   .     S
C138   C168    1.439   .     S
O139   C143    1.304   .     A
O139   Cu145   1.978   .     S
O140   C144    1.304   .     A
O140   Cu146   1.978   .     S
O141   Cu146   1.960   .     S
O141   C143    1.300   .     A
O142   C144    1.300   .     A
O142   Cu145   1.960   .     S
C143   C150    1.460   .     S
C144   C149    1.460   .     S
Cu145  Cu146   2.713   .     S
Cu145  N170    2.039   .     S
Cu146  N169    2.039   .     S
C147   C171    1.485   .     S
C147   C157    1.408   .     A
C147   C149    1.412   .     A
C148   C175    1.485   .     S
C148   C158    1.408   .     A
C148   C150    1.412   .     A
C149   C151    1.406   .     A
C150   C152    1.406   .     A
C151   C153    1.403   .     A
C151   N179    1.434   .     S
C152   N182    1.434   .     S
C152   C154    1.403   .     A
C153   C159    1.403   .     A
C153   C155    1.413   .     A
C154   C160    1.403   .     A
C154   C156    1.413   .     A
C155   C157    1.416   .     A
C155   C222    1.414   .     S
C156   C158    1.416   .     A
C156   C221    1.414   1_455 S
C157   C162    1.406   .     A
C158   C161    1.406   .     A
C159   H163    1.082   .     S
C159   C227    1.384   .     S
C160   H164    1.082   .     S
C160   C228    1.384   1_455 S
C161   H165    1.081   .     S
C161   C225    1.384   1_455 S
C162   H166    1.081   .     S
C162   C226    1.384   .     S
C168   C299    1.360   .     S
C168   C321    1.490   .     S
N169   N962    1.299   1_554 S
N169   N985    1.384   1_554 S
N170   N565    1.299   .     S
N170   N592    1.384   .     S
C171   O173    1.398   .     S
C171   O172    1.221   .     D
O173   H174    1.014   .     S
C175   O177    1.398   .     S
C175   O176    1.221   .     D
O177   H178    1.014   .     S
N179   O181    1.301   .     A
N179   O180    1.301   .     A
N182   O184    1.301   .     A
N182   O183    1.301   .     A
C185   O186    1.224   .     D
C185   O187    1.393   .     S
C185   C299    1.490   .     S
O187   H188    1.009   .     S
C189   O190    1.224   .     D
C189   O191    1.393   .     S
O191   H192    1.009   .     S
N193   O194    1.301   .     A
N193   O195    1.300   .     A
N193   N565    1.384   .     S
N196   O197    1.301   .     A
N196   O198    1.300   .     A
N196   N962    1.384   1_554 S
O199   C203    1.295   .     A
O199   Cu211   1.972   .     S
O200   C204    1.295   .     A
O200   Cu212   1.972   .     S
O201   C203    1.300   .     A
O201   Cu212   1.970   .     S
O202   C204    1.300   .     A
O202   Cu211   1.970   .     S
C203   C233    1.439   .     S
C204   C234    1.439   .     S
O205   C209    1.304   .     A
O205   Cu211   1.978   .     S
O206   C210    1.304   .     A
O206   Cu212   1.978   .     S
O207   Cu212   1.960   .     S
O207   C209    1.300   .     A
O208   C210    1.300   .     A
O208   Cu211   1.960   .     S
C209   C216    1.460   .     S
C210   C215    1.460   .     S
Cu211  Cu212   2.713   .     S
Cu211  N236    2.039   .     S
Cu212  N235    2.039   .     S
C213   C237    1.485   .     S
C213   C223    1.408   .     A
C213   C215    1.412   .     A
C214   C241    1.485   .     S
C214   C224    1.408   .     A
C214   C216    1.412   .     A
C215   C217    1.406   .     A
C216   C218    1.406   .     A
C217   C219    1.403   .     A
C217   N245    1.434   .     S
C218   N248    1.434   .     S
C218   C220    1.403   .     A
C219   C225    1.403   .     A
C219   C221    1.413   .     A
C220   C226    1.403   .     A
C220   C222    1.413   .     A
C221   C223    1.416   .     A
C221   C156    1.414   1_655 S
C222   C224    1.416   .     A
C223   C228    1.406   .     A
C224   C227    1.406   .     A
C225   H229    1.082   .     S
C225   C161    1.384   1_655 S
C226   H230    1.082   .     S
C227   H231    1.081   .     S
C228   H232    1.081   .     S
C228   C160    1.384   1_655 S
C234   C365    1.360   .     S
C234   C387    1.490   .     S
N235   N1028   1.299   1_554 S
N235   N1051   1.384   1_554 S
N236   N631    1.299   .     S
N236   N658    1.384   .     S
C237   O239    1.398   .     S
C237   O238    1.221   .     D
O239   H240    1.014   .     S
C241   O243    1.398   .     S
C241   O242    1.221   .     D
O243   H244    1.014   .     S
N245   O247    1.301   .     A
N245   O246    1.301   .     A
N248   O250    1.301   .     A
N248   O249    1.301   .     A
C251   O252    1.224   .     D
C251   O253    1.393   .     S
C251   C365    1.490   .     S
O253   H254    1.009   .     S
C255   O256    1.224   .     D
C255   O257    1.393   .     S
O257   H258    1.009   .     S
N259   O260    1.301   .     A
N259   O261    1.300   .     A
N259   N631    1.384   .     S
N262   O263    1.301   .     A
N262   O264    1.300   .     A
N262   N1028   1.384   1_554 S
O265   C269    1.295   .     A
O265   Cu277   1.972   .     S
O266   C270    1.295   .     A
O266   Cu278   1.972   .     S
O267   C269    1.300   .     A
O267   Cu278   1.970   .     S
O268   C270    1.300   .     A
O268   Cu277   1.970   .     S
C269   C299    1.439   .     S
C270   C300    1.439   .     S
O271   C275    1.304   .     A
O271   Cu277   1.978   .     S
O272   C276    1.304   .     A
O272   Cu278   1.978   .     S
O273   Cu278   1.960   .     S
O273   C275    1.300   .     A
O274   C276    1.300   .     A
O274   Cu277   1.960   .     S
C275   C282    1.460   .     S
C276   C281    1.460   .     S
Cu277  Cu278   2.713   .     S
Cu277  N302    2.039   .     S
Cu278  N301    2.039   .     S
C279   C303    1.485   .     S
C279   C289    1.408   .     A
C279   C281    1.412   .     A
C280   C307    1.485   .     S
C280   C290    1.408   .     A
C280   C282    1.412   .     A
C281   C283    1.406   .     A
C282   C284    1.406   .     A
C283   C285    1.403   .     A
C283   N311    1.434   .     S
C284   N314    1.434   .     S
C284   C286    1.403   .     A
C285   C291    1.403   .     A
C285   C287    1.413   .     A
C286   C292    1.403   .     A
C286   C288    1.413   .     A
C287   C289    1.416   .     A
C287   C354    1.414   .     S
C288   C290    1.416   .     A
C288   C353    1.414   1_455 S
C289   C294    1.406   .     A
C290   C293    1.406   .     A
C291   H295    1.082   .     S
C291   C359    1.384   .     S
C292   H296    1.082   .     S
C292   C360    1.384   1_455 S
C293   H297    1.081   .     S
C293   C357    1.384   1_455 S
C294   H298    1.081   .     S
C294   C358    1.384   .     S
C300   C35     1.360   1_565 S
C300   C57     1.490   1_565 S
N301   N1094   1.299   1_554 S
N301   N1117   1.384   1_554 S
N302   N697    1.299   .     S
N302   N724    1.384   .     S
C303   O305    1.398   .     S
C303   O304    1.221   .     D
O305   H306    1.014   .     S
C307   O309    1.398   .     S
C307   O308    1.221   .     D
O309   H310    1.014   .     S
N311   O313    1.301   .     A
N311   O312    1.301   .     A
N314   O316    1.301   .     A
N314   O315    1.301   .     A
C317   O318    1.224   .     D
C317   O319    1.393   .     S
C317   C35     1.490   1_565 S
O319   H320    1.009   .     S
C321   O322    1.224   .     D
C321   O323    1.393   .     S
O323   H324    1.009   .     S
N325   O326    1.301   .     A
N325   O327    1.300   .     A
N325   N697    1.384   .     S
N328   O329    1.301   .     A
N328   O330    1.300   .     A
N328   N1094   1.384   1_554 S
O331   C335    1.295   .     A
O331   Cu343   1.972   .     S
O332   C336    1.295   .     A
O332   Cu344   1.972   .     S
O333   C335    1.300   .     A
O333   Cu344   1.970   .     S
O334   C336    1.300   .     A
O334   Cu343   1.970   .     S
C335   C365    1.439   .     S
C336   C366    1.439   .     S
O337   C341    1.304   .     A
O337   Cu343   1.978   .     S
O338   C342    1.304   .     A
O338   Cu344   1.978   .     S
O339   Cu344   1.960   .     S
O339   C341    1.300   .     A
O340   C342    1.300   .     A
O340   Cu343   1.960   .     S
C341   C348    1.460   .     S
C342   C347    1.460   .     S
Cu343  Cu344   2.713   .     S
Cu343  N368    2.039   .     S
Cu344  N367    2.039   .     S
C345   C369    1.485   .     S
C345   C355    1.408   .     A
C345   C347    1.412   .     A
C346   C373    1.485   .     S
C346   C356    1.408   .     A
C346   C348    1.412   .     A
C347   C349    1.406   .     A
C348   C350    1.406   .     A
C349   C351    1.403   .     A
C349   N377    1.434   .     S
C350   N380    1.434   .     S
C350   C352    1.403   .     A
C351   C357    1.403   .     A
C351   C353    1.413   .     A
C352   C358    1.403   .     A
C352   C354    1.413   .     A
C353   C355    1.416   .     A
C353   C288    1.414   1_655 S
C354   C356    1.416   .     A
C355   C360    1.406   .     A
C356   C359    1.406   .     A
C357   H361    1.082   .     S
C357   C293    1.384   1_655 S
C358   H362    1.082   .     S
C359   H363    1.081   .     S
C360   H364    1.081   .     S
C360   C292    1.384   1_655 S
C366   C101    1.360   1_565 S
C366   C123    1.490   1_565 S
N367   N1160   1.299   1_554 S
N367   N1183   1.384   1_554 S
N368   N763    1.299   .     S
N368   N790    1.384   .     S
C369   O371    1.398   .     S
C369   O370    1.221   .     D
O371   H372    1.014   .     S
C373   O375    1.398   .     S
C373   O374    1.221   .     D
O375   H376    1.014   .     S
N377   O379    1.301   .     A
N377   O378    1.301   .     A
N380   O382    1.301   .     A
N380   O381    1.301   .     A
C383   O384    1.224   .     D
C383   O385    1.393   .     S
C383   C101    1.490   1_565 S
O385   H386    1.009   .     S
C387   O388    1.224   .     D
C387   O389    1.393   .     S
O389   H390    1.009   .     S
N391   O392    1.301   .     A
N391   O393    1.300   .     A
N391   N763    1.384   .     S
N394   O395    1.301   .     A
N394   O396    1.300   .     A
N394   N1160   1.384   1_554 S
O397   C401    1.295   .     A
O397   Cu409   1.972   .     S
O398   C402    1.295   .     A
O398   Cu410   1.972   .     S
O399   C401    1.300   .     A
O399   Cu410   1.970   .     S
O400   C402    1.300   .     A
O400   Cu409   1.970   .     S
C401   C431    1.439   .     S
C402   C432    1.439   .     S
O403   C407    1.304   .     A
O403   Cu409   1.978   .     S
O404   C408    1.304   .     A
O404   Cu410   1.978   .     S
O405   Cu410   1.960   .     S
O405   C407    1.300   .     A
O406   C408    1.300   .     A
O406   Cu409   1.960   .     S
C407   C414    1.460   .     S
C408   C413    1.460   .     S
Cu409  Cu410   2.713   .     S
Cu409  N434    2.039   .     S
Cu410  N433    2.039   .     S
C411   C435    1.485   .     S
C411   C421    1.408   .     A
C411   C413    1.412   .     A
C412   C439    1.485   .     S
C412   C422    1.408   .     A
C412   C414    1.412   .     A
C413   C415    1.406   .     A
C414   C416    1.406   .     A
C415   C417    1.403   .     A
C415   N443    1.434   .     S
C416   N446    1.434   .     S
C416   C418    1.403   .     A
C417   C423    1.403   .     A
C417   C419    1.413   .     A
C418   C424    1.403   .     A
C418   C420    1.413   .     A
C419   C421    1.416   .     A
C419   C486    1.414   .     S
C420   C422    1.416   .     A
C420   C485    1.414   1_455 S
C421   C426    1.406   .     A
C422   C425    1.406   .     A
C423   H427    1.082   .     S
C423   C491    1.384   .     S
C424   H428    1.082   .     S
C424   C492    1.384   1_455 S
C425   H429    1.081   .     S
C425   C489    1.384   1_455 S
C426   H430    1.081   .     S
C426   C490    1.384   .     S
C431   C696    1.360   1_545 S
C431   C713    1.490   1_545 S
C432   C563    1.360   .     S
C432   C585    1.490   .     S
N434   N829    1.299   .     S
N434   N856    1.384   .     S
C435   O437    1.398   .     S
C435   O436    1.221   .     D
O437   H438    1.014   .     S
C439   O441    1.398   .     S
C439   O440    1.221   .     D
O441   H442    1.014   .     S
N443   O445    1.301   .     A
N443   O444    1.301   .     A
N446   O448    1.301   .     A
N446   O447    1.301   .     A
C449   O450    1.224   .     D
C449   O451    1.393   .     S
C449   C563    1.490   .     S
O451   H452    1.009   .     S
C453   O454    1.224   .     D
C453   O455    1.393   .     S
C453   C696    1.490   1_545 S
O455   H456    1.009   .     S
N457   O458    1.301   .     A
N457   O459    1.300   .     A
N457   N829    1.384   .     S
N460   O461    1.301   .     A
N460   O462    1.300   .     A
O463   C467    1.295   .     A
O463   Cu475   1.972   .     S
O464   C468    1.295   .     A
O464   Cu476   1.972   .     S
O465   C467    1.300   .     A
O465   Cu476   1.970   .     S
O466   C468    1.300   .     A
O466   Cu475   1.970   .     S
C467   C497    1.439   .     S
C468   C498    1.439   .     S
O469   C473    1.304   .     A
O469   Cu475   1.978   .     S
O470   C474    1.304   .     A
O470   Cu476   1.978   .     S
O471   Cu476   1.960   .     S
O471   C473    1.300   .     A
O472   C474    1.300   .     A
O472   Cu475   1.960   .     S
C473   C480    1.460   .     S
C474   C479    1.460   .     S
Cu475  Cu476   2.713   .     S
Cu475  N500    2.039   .     S
Cu476  N499    2.039   .     S
C477   C501    1.485   .     S
C477   C487    1.408   .     A
C477   C479    1.412   .     A
C478   C505    1.485   .     S
C478   C488    1.408   .     A
C478   C480    1.412   .     A
C479   C481    1.406   .     A
C480   C482    1.406   .     A
C481   C483    1.403   .     A
C481   N509    1.434   .     S
C482   N512    1.434   .     S
C482   C484    1.403   .     A
C483   C489    1.403   .     A
C483   C485    1.413   .     A
C484   C490    1.403   .     A
C484   C486    1.413   .     A
C485   C487    1.416   .     A
C485   C420    1.414   1_655 S
C486   C488    1.416   .     A
C487   C492    1.406   .     A
C488   C491    1.406   .     A
C489   H493    1.082   .     S
C489   C425    1.384   1_655 S
C490   H494    1.082   .     S
C491   H495    1.081   .     S
C492   H496    1.081   .     S
C492   C424    1.384   1_655 S
C497   C762    1.360   1_545 S
C497   C779    1.490   1_545 S
C498   C629    1.360   .     S
C498   C651    1.490   .     S
N500   N895    1.299   .     S
N500   N922    1.384   .     S
C501   O503    1.398   .     S
C501   O502    1.221   .     D
O503   H504    1.014   .     S
C505   O507    1.398   .     S
C505   O506    1.221   .     D
O507   H508    1.014   .     S
N509   O511    1.301   .     A
N509   O510    1.301   .     A
N512   O514    1.301   .     A
N512   O513    1.301   .     A
C515   O516    1.224   .     D
C515   O517    1.393   .     S
C515   C629    1.490   .     S
O517   H518    1.009   .     S
C519   O520    1.224   .     D
C519   O521    1.393   .     S
C519   C762    1.490   1_545 S
O521   H522    1.009   .     S
N523   O524    1.301   .     A
N523   O525    1.300   .     A
N523   N895    1.384   .     S
N526   O527    1.301   .     A
N526   O528    1.300   .     A
O529   C533    1.295   .     A
O529   Cu541   1.972   .     S
O530   C534    1.295   .     A
O530   Cu542   1.972   .     S
O531   C533    1.300   .     A
O531   Cu542   1.970   .     S
O532   C534    1.300   .     A
O532   Cu541   1.970   .     S
C533   C563    1.439   .     S
C534   C564    1.439   .     S
O535   C539    1.304   .     A
O535   Cu541   1.978   .     S
O536   C540    1.304   .     A
O536   Cu542   1.978   .     S
O537   Cu542   1.960   .     S
O537   C539    1.300   .     A
O538   C540    1.300   .     A
O538   Cu541   1.960   .     S
C539   C546    1.460   .     S
C540   C545    1.460   .     S
Cu541  Cu542   2.713   .     S
Cu541  N566    2.039   .     S
Cu542  N565    2.039   .     S
C543   C567    1.485   .     S
C543   C553    1.408   .     A
C543   C545    1.412   .     A
C544   C571    1.485   .     S
C544   C554    1.408   .     A
C544   C546    1.412   .     A
C545   C547    1.406   .     A
C546   C548    1.406   .     A
C547   C549    1.403   .     A
C547   N575    1.434   .     S
C548   N578    1.434   .     S
C548   C550    1.403   .     A
C549   C555    1.403   .     A
C549   C551    1.413   .     A
C550   C556    1.403   .     A
C550   C552    1.413   .     A
C551   C553    1.416   .     A
C551   C618    1.414   .     S
C552   C554    1.416   .     A
C552   C617    1.414   1_455 S
C553   C558    1.406   .     A
C554   C557    1.406   .     A
C555   H559    1.082   .     S
C555   C623    1.384   .     S
C556   H560    1.082   .     S
C556   C624    1.384   1_455 S
C557   H561    1.081   .     S
C557   C621    1.384   1_455 S
C558   H562    1.081   .     S
C558   C622    1.384   .     S
C564   C695    1.360   .     S
C564   C717    1.490   .     S
N566   N961    1.299   .     S
N566   N988    1.384   .     S
C567   O569    1.398   .     S
C567   O568    1.221   .     D
O569   H570    1.014   .     S
C571   O573    1.398   .     S
C571   O572    1.221   .     D
O573   H574    1.014   .     S
N575   O577    1.301   .     A
N575   O576    1.301   .     A
N578   O580    1.301   .     A
N578   O579    1.301   .     A
C581   O582    1.224   .     D
C581   O583    1.393   .     S
C581   C695    1.490   .     S
O583   H584    1.009   .     S
C585   O586    1.224   .     D
C585   O587    1.393   .     S
O587   H588    1.009   .     S
N589   O590    1.301   .     A
N589   O591    1.300   .     A
N589   N961    1.384   .     S
N592   O593    1.301   .     A
N592   O594    1.300   .     A
O595   C599    1.295   .     A
O595   Cu607   1.972   .     S
O596   C600    1.295   .     A
O596   Cu608   1.972   .     S
O597   C599    1.300   .     A
O597   Cu608   1.970   .     S
O598   C600    1.300   .     A
O598   Cu607   1.970   .     S
C599   C629    1.439   .     S
C600   C630    1.439   .     S
O601   C605    1.304   .     A
O601   Cu607   1.978   .     S
O602   C606    1.304   .     A
O602   Cu608   1.978   .     S
O603   Cu608   1.960   .     S
O603   C605    1.300   .     A
O604   C606    1.300   .     A
O604   Cu607   1.960   .     S
C605   C612    1.460   .     S
C606   C611    1.460   .     S
Cu607  Cu608   2.713   .     S
Cu607  N632    2.039   .     S
Cu608  N631    2.039   .     S
C609   C633    1.485   .     S
C609   C619    1.408   .     A
C609   C611    1.412   .     A
C610   C637    1.485   .     S
C610   C620    1.408   .     A
C610   C612    1.412   .     A
C611   C613    1.406   .     A
C612   C614    1.406   .     A
C613   C615    1.403   .     A
C613   N641    1.434   .     S
C614   N644    1.434   .     S
C614   C616    1.403   .     A
C615   C621    1.403   .     A
C615   C617    1.413   .     A
C616   C622    1.403   .     A
C616   C618    1.413   .     A
C617   C619    1.416   .     A
C617   C552    1.414   1_655 S
C618   C620    1.416   .     A
C619   C624    1.406   .     A
C620   C623    1.406   .     A
C621   H625    1.082   .     S
C621   C557    1.384   1_655 S
C622   H626    1.082   .     S
C623   H627    1.081   .     S
C624   H628    1.081   .     S
C624   C556    1.384   1_655 S
C630   C761    1.360   .     S
C630   C783    1.490   .     S
N632   N1027   1.299   .     S
N632   N1054   1.384   .     S
C633   O635    1.398   .     S
C633   O634    1.221   .     D
O635   H636    1.014   .     S
C637   O639    1.398   .     S
C637   O638    1.221   .     D
O639   H640    1.014   .     S
N641   O643    1.301   .     A
N641   O642    1.301   .     A
N644   O646    1.301   .     A
N644   O645    1.301   .     A
C647   O648    1.224   .     D
C647   O649    1.393   .     S
C647   C761    1.490   .     S
O649   H650    1.009   .     S
C651   O652    1.224   .     D
C651   O653    1.393   .     S
O653   H654    1.009   .     S
N655   O656    1.301   .     A
N655   O657    1.300   .     A
N655   N1027   1.384   .     S
N658   O659    1.301   .     A
N658   O660    1.300   .     A
O661   C665    1.295   .     A
O661   Cu673   1.972   .     S
O662   C666    1.295   .     A
O662   Cu674   1.972   .     S
O663   C665    1.300   .     A
O663   Cu674   1.970   .     S
O664   C666    1.300   .     A
O664   Cu673   1.970   .     S
C665   C695    1.439   .     S
C666   C696    1.439   .     S
O667   C671    1.304   .     A
O667   Cu673   1.978   .     S
O668   C672    1.304   .     A
O668   Cu674   1.978   .     S
O669   Cu674   1.960   .     S
O669   C671    1.300   .     A
O670   C672    1.300   .     A
O670   Cu673   1.960   .     S
C671   C678    1.460   .     S
C672   C677    1.460   .     S
Cu673  Cu674   2.713   .     S
Cu673  N698    2.039   .     S
Cu674  N697    2.039   .     S
C675   C699    1.485   .     S
C675   C685    1.408   .     A
C675   C677    1.412   .     A
C676   C703    1.485   .     S
C676   C686    1.408   .     A
C676   C678    1.412   .     A
C677   C679    1.406   .     A
C678   C680    1.406   .     A
C679   C681    1.403   .     A
C679   N707    1.434   .     S
C680   N710    1.434   .     S
C680   C682    1.403   .     A
C681   C687    1.403   .     A
C681   C683    1.413   .     A
C682   C688    1.403   .     A
C682   C684    1.413   .     A
C683   C685    1.416   .     A
C683   C750    1.414   .     S
C684   C686    1.416   .     A
C684   C749    1.414   1_455 S
C685   C690    1.406   .     A
C686   C689    1.406   .     A
C687   H691    1.082   .     S
C687   C755    1.384   .     S
C688   H692    1.082   .     S
C688   C756    1.384   1_455 S
C689   H693    1.081   .     S
C689   C753    1.384   1_455 S
C690   H694    1.081   .     S
C690   C754    1.384   .     S
C696   C431    1.360   1_565 S
C696   C453    1.490   1_565 S
N698   N1093   1.299   .     S
N698   N1120   1.384   .     S
C699   O701    1.398   .     S
C699   O700    1.221   .     D
O701   H702    1.014   .     S
C703   O705    1.398   .     S
C703   O704    1.221   .     D
O705   H706    1.014   .     S
N707   O709    1.301   .     A
N707   O708    1.301   .     A
N710   O712    1.301   .     A
N710   O711    1.301   .     A
C713   O714    1.224   .     D
C713   O715    1.393   .     S
C713   C431    1.490   1_565 S
O715   H716    1.009   .     S
C717   O718    1.224   .     D
C717   O719    1.393   .     S
O719   H720    1.009   .     S
N721   O722    1.301   .     A
N721   O723    1.300   .     A
N721   N1093   1.384   .     S
N724   O725    1.301   .     A
N724   O726    1.300   .     A
O727   C731    1.295   .     A
O727   Cu739   1.972   .     S
O728   C732    1.295   .     A
O728   Cu740   1.972   .     S
O729   C731    1.300   .     A
O729   Cu740   1.970   .     S
O730   C732    1.300   .     A
O730   Cu739   1.970   .     S
C731   C761    1.439   .     S
C732   C762    1.439   .     S
O733   C737    1.304   .     A
O733   Cu739   1.978   .     S
O734   C738    1.304   .     A
O734   Cu740   1.978   .     S
O735   Cu740   1.960   .     S
O735   C737    1.300   .     A
O736   C738    1.300   .     A
O736   Cu739   1.960   .     S
C737   C744    1.460   .     S
C738   C743    1.460   .     S
Cu739  Cu740   2.713   .     S
Cu739  N764    2.039   .     S
Cu740  N763    2.039   .     S
C741   C765    1.485   .     S
C741   C751    1.408   .     A
C741   C743    1.412   .     A
C742   C769    1.485   .     S
C742   C752    1.408   .     A
C742   C744    1.412   .     A
C743   C745    1.406   .     A
C744   C746    1.406   .     A
C745   C747    1.403   .     A
C745   N773    1.434   .     S
C746   N776    1.434   .     S
C746   C748    1.403   .     A
C747   C753    1.403   .     A
C747   C749    1.413   .     A
C748   C754    1.403   .     A
C748   C750    1.413   .     A
C749   C751    1.416   .     A
C749   C684    1.414   1_655 S
C750   C752    1.416   .     A
C751   C756    1.406   .     A
C752   C755    1.406   .     A
C753   H757    1.082   .     S
C753   C689    1.384   1_655 S
C754   H758    1.082   .     S
C755   H759    1.081   .     S
C756   H760    1.081   .     S
C756   C688    1.384   1_655 S
C762   C497    1.360   1_565 S
C762   C519    1.490   1_565 S
N764   N1159   1.299   .     S
N764   N1186   1.384   .     S
C765   O767    1.398   .     S
C765   O766    1.221   .     D
O767   H768    1.014   .     S
C769   O771    1.398   .     S
C769   O770    1.221   .     D
O771   H772    1.014   .     S
N773   O775    1.301   .     A
N773   O774    1.301   .     A
N776   O778    1.301   .     A
N776   O777    1.301   .     A
C779   O780    1.224   .     D
C779   O781    1.393   .     S
C779   C497    1.490   1_565 S
O781   H782    1.009   .     S
C783   O784    1.224   .     D
C783   O785    1.393   .     S
O785   H786    1.009   .     S
N787   O788    1.301   .     A
N787   O789    1.300   .     A
N787   N1159   1.384   .     S
N790   O791    1.301   .     A
N790   O792    1.300   .     A
O793   C797    1.295   .     A
O793   Cu805   1.972   .     S
O794   C798    1.295   .     A
O794   Cu806   1.972   .     S
O795   C797    1.300   .     A
O795   Cu806   1.970   .     S
O796   C798    1.300   .     A
O796   Cu805   1.970   .     S
C797   C827    1.439   .     S
C798   C828    1.439   .     S
O799   C803    1.304   .     A
O799   Cu805   1.978   .     S
O800   C804    1.304   .     A
O800   Cu806   1.978   .     S
O801   Cu806   1.960   .     S
O801   C803    1.300   .     A
O802   C804    1.300   .     A
O802   Cu805   1.960   .     S
C803   C810    1.460   .     S
C804   C809    1.460   .     S
Cu805  Cu806   2.713   .     S
Cu805  N830    2.039   .     S
Cu806  N829    2.039   .     S
C807   C831    1.485   .     S
C807   C817    1.408   .     A
C807   C809    1.412   .     A
C808   C835    1.485   .     S
C808   C818    1.408   .     A
C808   C810    1.412   .     A
C809   C811    1.406   .     A
C810   C812    1.406   .     A
C811   C813    1.403   .     A
C811   N839    1.434   .     S
C812   N842    1.434   .     S
C812   C814    1.403   .     A
C813   C819    1.403   .     A
C813   C815    1.413   .     A
C814   C820    1.403   .     A
C814   C816    1.413   .     A
C815   C817    1.416   .     A
C815   C882    1.414   .     S
C816   C818    1.416   .     A
C816   C881    1.414   1_455 S
C817   C822    1.406   .     A
C818   C821    1.406   .     A
C819   H823    1.082   .     S
C819   C887    1.384   .     S
C820   H824    1.082   .     S
C820   C888    1.384   1_455 S
C821   H825    1.081   .     S
C821   C885    1.384   1_455 S
C822   H826    1.081   .     S
C822   C886    1.384   .     S
C827   C1092   1.360   1_545 S
C827   C1109   1.490   1_545 S
C828   C959    1.360   .     S
C828   C981    1.490   .     S
N830   N37     1.299   1_556 S
N830   N64     1.384   1_556 S
C831   O833    1.398   .     S
C831   O832    1.221   .     D
O833   H834    1.014   .     S
C835   O837    1.398   .     S
C835   O836    1.221   .     D
O837   H838    1.014   .     S
N839   O841    1.301   .     A
N839   O840    1.301   .     A
N842   O844    1.301   .     A
N842   O843    1.301   .     A
C845   O846    1.224   .     D
C845   O847    1.393   .     S
C845   C959    1.490   .     S
O847   H848    1.009   .     S
C849   O850    1.224   .     D
C849   O851    1.393   .     S
C849   C1092   1.490   1_545 S
O851   H852    1.009   .     S
N853   O854    1.301   .     A
N853   O855    1.300   .     A
N853   N37     1.384   1_556 S
N856   O857    1.301   .     A
N856   O858    1.300   .     A
O859   C863    1.295   .     A
O859   Cu871   1.972   .     S
O860   C864    1.295   .     A
O860   Cu872   1.972   .     S
O861   C863    1.300   .     A
O861   Cu872   1.970   .     S
O862   C864    1.300   .     A
O862   Cu871   1.970   .     S
C863   C893    1.439   .     S
C864   C894    1.439   .     S
O865   C869    1.304   .     A
O865   Cu871   1.978   .     S
O866   C870    1.304   .     A
O866   Cu872   1.978   .     S
O867   Cu872   1.960   .     S
O867   C869    1.300   .     A
O868   C870    1.300   .     A
O868   Cu871   1.960   .     S
C869   C876    1.460   .     S
C870   C875    1.460   .     S
Cu871  Cu872   2.713   .     S
Cu871  N896    2.039   .     S
Cu872  N895    2.039   .     S
C873   C897    1.485   .     S
C873   C883    1.408   .     A
C873   C875    1.412   .     A
C874   C901    1.485   .     S
C874   C884    1.408   .     A
C874   C876    1.412   .     A
C875   C877    1.406   .     A
C876   C878    1.406   .     A
C877   C879    1.403   .     A
C877   N905    1.434   .     S
C878   N908    1.434   .     S
C878   C880    1.403   .     A
C879   C885    1.403   .     A
C879   C881    1.413   .     A
C880   C886    1.403   .     A
C880   C882    1.413   .     A
C881   C883    1.416   .     A
C881   C816    1.414   1_655 S
C882   C884    1.416   .     A
C883   C888    1.406   .     A
C884   C887    1.406   .     A
C885   H889    1.082   .     S
C885   C821    1.384   1_655 S
C886   H890    1.082   .     S
C887   H891    1.081   .     S
C888   H892    1.081   .     S
C888   C820    1.384   1_655 S
C893   C1158   1.360   1_545 S
C893   C1175   1.490   1_545 S
C894   C1025   1.360   .     S
C894   C1047   1.490   .     S
N896   N103    1.299   1_556 S
N896   N130    1.384   1_556 S
C897   O899    1.398   .     S
C897   O898    1.221   .     D
O899   H900    1.014   .     S
C901   O903    1.398   .     S
C901   O902    1.221   .     D
O903   H904    1.014   .     S
N905   O907    1.301   .     A
N905   O906    1.301   .     A
N908   O910    1.301   .     A
N908   O909    1.301   .     A
C911   O912    1.224   .     D
C911   O913    1.393   .     S
C911   C1025   1.490   .     S
O913   H914    1.009   .     S
C915   O916    1.224   .     D
C915   O917    1.393   .     S
C915   C1158   1.490   1_545 S
O917   H918    1.009   .     S
N919   O920    1.301   .     A
N919   O921    1.300   .     A
N919   N103    1.384   1_556 S
N922   O923    1.301   .     A
N922   O924    1.300   .     A
O925   C929    1.295   .     A
O925   Cu937   1.972   .     S
O926   C930    1.295   .     A
O926   Cu938   1.972   .     S
O927   C929    1.300   .     A
O927   Cu938   1.970   .     S
O928   C930    1.300   .     A
O928   Cu937   1.970   .     S
C929   C959    1.439   .     S
C930   C960    1.439   .     S
O931   C935    1.304   .     A
O931   Cu937   1.978   .     S
O932   C936    1.304   .     A
O932   Cu938   1.978   .     S
O933   Cu938   1.960   .     S
O933   C935    1.300   .     A
O934   C936    1.300   .     A
O934   Cu937   1.960   .     S
C935   C942    1.460   .     S
C936   C941    1.460   .     S
Cu937  Cu938   2.713   .     S
Cu937  N962    2.039   .     S
Cu938  N961    2.039   .     S
C939   C963    1.485   .     S
C939   C949    1.408   .     A
C939   C941    1.412   .     A
C940   C967    1.485   .     S
C940   C950    1.408   .     A
C940   C942    1.412   .     A
C941   C943    1.406   .     A
C942   C944    1.406   .     A
C943   C945    1.403   .     A
C943   N971    1.434   .     S
C944   N974    1.434   .     S
C944   C946    1.403   .     A
C945   C951    1.403   .     A
C945   C947    1.413   .     A
C946   C952    1.403   .     A
C946   C948    1.413   .     A
C947   C949    1.416   .     A
C947   C1014   1.414   .     S
C948   C950    1.416   .     A
C948   C1013   1.414   1_455 S
C949   C954    1.406   .     A
C950   C953    1.406   .     A
C951   H955    1.082   .     S
C951   C1019   1.384   .     S
C952   H956    1.082   .     S
C952   C1020   1.384   1_455 S
C953   H957    1.081   .     S
C953   C1017   1.384   1_455 S
C954   H958    1.081   .     S
C954   C1018   1.384   .     S
C960   C1091   1.360   .     S
C960   C1113   1.490   .     S
N962   N169    1.299   1_556 S
N962   N196    1.384   1_556 S
C963   O965    1.398   .     S
C963   O964    1.221   .     D
O965   H966    1.014   .     S
C967   O969    1.398   .     S
C967   O968    1.221   .     D
O969   H970    1.014   .     S
N971   O973    1.301   .     A
N971   O972    1.301   .     A
N974   O976    1.301   .     A
N974   O975    1.301   .     A
C977   O978    1.224   .     D
C977   O979    1.393   .     S
C977   C1091   1.490   .     S
O979   H980    1.009   .     S
C981   O982    1.224   .     D
C981   O983    1.393   .     S
O983   H984    1.009   .     S
N985   O986    1.301   .     A
N985   O987    1.300   .     A
N985   N169    1.384   1_556 S
N988   O989    1.301   .     A
N988   O990    1.300   .     A
O991   C995    1.295   .     A
O991   Cu1003  1.972   .     S
O992   C996    1.295   .     A
O992   Cu1004  1.972   .     S
O993   C995    1.300   .     A
O993   Cu1004  1.970   .     S
O994   C996    1.300   .     A
O994   Cu1003  1.970   .     S
C995   C1025   1.439   .     S
C996   C1026   1.439   .     S
O997   C1001   1.304   .     A
O997   Cu1003  1.978   .     S
O998   C1002   1.304   .     A
O998   Cu1004  1.978   .     S
O999   Cu1004  1.960   .     S
O999   C1001   1.300   .     A
O1000  C1002   1.300   .     A
O1000  Cu1003  1.960   .     S
C1001  C1008   1.460   .     S
C1002  C1007   1.460   .     S
Cu1003 Cu1004  2.713   .     S
Cu1003 N1028   2.039   .     S
Cu1004 N1027   2.039   .     S
C1005  C1029   1.485   .     S
C1005  C1015   1.408   .     A
C1005  C1007   1.412   .     A
C1006  C1033   1.485   .     S
C1006  C1016   1.408   .     A
C1006  C1008   1.412   .     A
C1007  C1009   1.406   .     A
C1008  C1010   1.406   .     A
C1009  C1011   1.403   .     A
C1009  N1037   1.434   .     S
C1010  N1040   1.434   .     S
C1010  C1012   1.403   .     A
C1011  C1017   1.403   .     A
C1011  C1013   1.413   .     A
C1012  C1018   1.403   .     A
C1012  C1014   1.413   .     A
C1013  C1015   1.416   .     A
C1013  C948    1.414   1_655 S
C1014  C1016   1.416   .     A
C1015  C1020   1.406   .     A
C1016  C1019   1.406   .     A
C1017  H1021   1.082   .     S
C1017  C953    1.384   1_655 S
C1018  H1022   1.082   .     S
C1019  H1023   1.081   .     S
C1020  H1024   1.081   .     S
C1020  C952    1.384   1_655 S
C1026  C1157   1.360   .     S
C1026  C1179   1.490   .     S
N1028  N235    1.299   1_556 S
N1028  N262    1.384   1_556 S
C1029  O1031   1.398   .     S
C1029  O1030   1.221   .     D
O1031  H1032   1.014   .     S
C1033  O1035   1.398   .     S
C1033  O1034   1.221   .     D
O1035  H1036   1.014   .     S
N1037  O1039   1.301   .     A
N1037  O1038   1.301   .     A
N1040  O1042   1.301   .     A
N1040  O1041   1.301   .     A
C1043  O1044   1.224   .     D
C1043  O1045   1.393   .     S
C1043  C1157   1.490   .     S
O1045  H1046   1.009   .     S
C1047  O1048   1.224   .     D
C1047  O1049   1.393   .     S
O1049  H1050   1.009   .     S
N1051  O1052   1.301   .     A
N1051  O1053   1.300   .     A
N1051  N235    1.384   1_556 S
N1054  O1055   1.301   .     A
N1054  O1056   1.300   .     A
O1057  C1061   1.295   .     A
O1057  Cu1069  1.972   .     S
O1058  C1062   1.295   .     A
O1058  Cu1070  1.972   .     S
O1059  C1061   1.300   .     A
O1059  Cu1070  1.970   .     S
O1060  C1062   1.300   .     A
O1060  Cu1069  1.970   .     S
C1061  C1091   1.439   .     S
C1062  C1092   1.439   .     S
O1063  C1067   1.304   .     A
O1063  Cu1069  1.978   .     S
O1064  C1068   1.304   .     A
O1064  Cu1070  1.978   .     S
O1065  Cu1070  1.960   .     S
O1065  C1067   1.300   .     A
O1066  C1068   1.300   .     A
O1066  Cu1069  1.960   .     S
C1067  C1074   1.460   .     S
C1068  C1073   1.460   .     S
Cu1069 Cu1070  2.713   .     S
Cu1069 N1094   2.039   .     S
Cu1070 N1093   2.039   .     S
C1071  C1095   1.485   .     S
C1071  C1081   1.408   .     A
C1071  C1073   1.412   .     A
C1072  C1099   1.485   .     S
C1072  C1082   1.408   .     A
C1072  C1074   1.412   .     A
C1073  C1075   1.406   .     A
C1074  C1076   1.406   .     A
C1075  C1077   1.403   .     A
C1075  N1103   1.434   .     S
C1076  N1106   1.434   .     S
C1076  C1078   1.403   .     A
C1077  C1083   1.403   .     A
C1077  C1079   1.413   .     A
C1078  C1084   1.403   .     A
C1078  C1080   1.413   .     A
C1079  C1081   1.416   .     A
C1079  C1146   1.414   .     S
C1080  C1082   1.416   .     A
C1080  C1145   1.414   1_455 S
C1081  C1086   1.406   .     A
C1082  C1085   1.406   .     A
C1083  H1087   1.082   .     S
C1083  C1151   1.384   .     S
C1084  H1088   1.082   .     S
C1084  C1152   1.384   1_455 S
C1085  H1089   1.081   .     S
C1085  C1149   1.384   1_455 S
C1086  H1090   1.081   .     S
C1086  C1150   1.384   .     S
C1092  C827    1.360   1_565 S
C1092  C849    1.490   1_565 S
N1094  N301    1.299   1_556 S
N1094  N328    1.384   1_556 S
C1095  O1097   1.398   .     S
C1095  O1096   1.221   .     D
O1097  H1098   1.014   .     S
C1099  O1101   1.398   .     S
C1099  O1100   1.221   .     D
O1101  H1102   1.014   .     S
N1103  O1105   1.301   .     A
N1103  O1104   1.301   .     A
N1106  O1108   1.301   .     A
N1106  O1107   1.301   .     A
C1109  O1110   1.224   .     D
C1109  O1111   1.393   .     S
C1109  C827    1.490   1_565 S
O1111  H1112   1.009   .     S
C1113  O1114   1.224   .     D
C1113  O1115   1.393   .     S
O1115  H1116   1.009   .     S
N1117  O1118   1.301   .     A
N1117  O1119   1.300   .     A
N1117  N301    1.384   1_556 S
N1120  O1121   1.301   .     A
N1120  O1122   1.300   .     A
O1123  C1127   1.295   .     A
O1123  Cu1135  1.972   .     S
O1124  C1128   1.295   .     A
O1124  Cu1136  1.972   .     S
O1125  C1127   1.300   .     A
O1125  Cu1136  1.970   .     S
O1126  C1128   1.300   .     A
O1126  Cu1135  1.970   .     S
C1127  C1157   1.439   .     S
C1128  C1158   1.439   .     S
O1129  C1133   1.304   .     A
O1129  Cu1135  1.978   .     S
O1130  C1134   1.304   .     A
O1130  Cu1136  1.978   .     S
O1131  Cu1136  1.960   .     S
O1131  C1133   1.300   .     A
O1132  C1134   1.300   .     A
O1132  Cu1135  1.960   .     S
C1133  C1140   1.460   .     S
C1134  C1139   1.460   .     S
Cu1135 Cu1136  2.713   .     S
Cu1135 N1160   2.039   .     S
Cu1136 N1159   2.039   .     S
C1137  C1161   1.485   .     S
C1137  C1147   1.408   .     A
C1137  C1139   1.412   .     A
C1138  C1165   1.485   .     S
C1138  C1148   1.408   .     A
C1138  C1140   1.412   .     A
C1139  C1141   1.406   .     A
C1140  C1142   1.406   .     A
C1141  C1143   1.403   .     A
C1141  N1169   1.434   .     S
C1142  N1172   1.434   .     S
C1142  C1144   1.403   .     A
C1143  C1149   1.403   .     A
C1143  C1145   1.413   .     A
C1144  C1150   1.403   .     A
C1144  C1146   1.413   .     A
C1145  C1147   1.416   .     A
C1145  C1080   1.414   1_655 S
C1146  C1148   1.416   .     A
C1147  C1152   1.406   .     A
C1148  C1151   1.406   .     A
C1149  H1153   1.082   .     S
C1149  C1085   1.384   1_655 S
C1150  H1154   1.082   .     S
C1151  H1155   1.081   .     S
C1152  H1156   1.081   .     S
C1152  C1084   1.384   1_655 S
C1158  C893    1.360   1_565 S
C1158  C915    1.490   1_565 S
N1160  N367    1.299   1_556 S
N1160  N394    1.384   1_556 S
C1161  O1163   1.398   .     S
C1161  O1162   1.221   .     D
O1163  H1164   1.014   .     S
C1165  O1167   1.398   .     S
C1165  O1166   1.221   .     D
O1167  H1168   1.014   .     S
N1169  O1171   1.301   .     A
N1169  O1170   1.301   .     A
N1172  O1174   1.301   .     A
N1172  O1173   1.301   .     A
C1175  O1176   1.224   .     D
C1175  O1177   1.393   .     S
C1175  C893    1.490   1_565 S
O1177  H1178   1.009   .     S
C1179  O1180   1.224   .     D
C1179  O1181   1.393   .     S
O1181  H1182   1.009   .     S
N1183  O1184   1.301   .     A
N1183  O1185   1.300   .     A
N1183  N367    1.384   1_556 S
N1186  O1187   1.301   .     A
N1186  O1188   1.300   .     A
