data_str_m2_o1_o1_pcu_sym.48
_audit_creation_date              2020-01-03
_audit_creation_method            'Materials Studio'
_symmetry_space_group_name_H-M    'P1'
_symmetry_Int_Tables_number       1
_symmetry_cell_setting            triclinic
loop_
_symmetry_equiv_pos_as_xyz
  x,y,z
_cell_length_a                    31.6765
_cell_length_b                    30.0240
_cell_length_c                    28.7667
_cell_angle_alpha                 92.2953
_cell_angle_beta                  89.8294
_cell_angle_gamma                 90.3215
loop_
_atom_site_label
_atom_site_type_symbol
_atom_site_fract_x
_atom_site_fract_y
_atom_site_fract_z
_atom_site_U_iso_or_equiv
_atom_site_adp_type
_atom_site_occupancy
C1     C     0.05957   0.19009   0.16613   0.00000  Uiso   1.00
C2     C     0.49475   0.28894   0.31033   0.00000  Uiso   1.00
C3     C     0.49891   0.28910   0.02676   0.00000  Uiso   1.00
C4     C     0.00276   0.21117   0.30617   0.00000  Uiso   1.00
C5     C     0.24830   0.46071   0.02250   0.00000  Uiso   1.00
C6     C     0.24514   0.03907   0.31028   0.00000  Uiso   1.00
C7     C     0.24853   0.03924   0.02679   0.00000  Uiso   1.00
C8     C     0.25222   0.46101   0.30636   0.00000  Uiso   1.00
C9     C     0.38504   0.14481   0.12404   0.00000  Uiso   1.00
C10    C     0.11062   0.36156   0.20940   0.00000  Uiso   1.00
C11    C     0.11794   0.34986   0.12482   0.00000  Uiso   1.00
C12    C     0.43838   0.30703   0.16686   0.00000  Uiso   1.00
C13    C     0.38270   0.15170   0.20825   0.00000  Uiso   1.00
C14    C     0.12091   0.15210   0.20304   0.00000  Uiso   1.00
C15    C     0.37442   0.34181   0.12743   0.00000  Uiso   1.00
C16    C     0.38933   0.35922   0.20898   0.00000  Uiso   1.00
C17    C     0.08974   0.11657   0.13283   0.00000  Uiso   1.00
C18    C     0.13823   0.39158   0.12279   0.00000  Uiso   1.00
C19    C     0.36130   0.11057   0.20987   0.00000  Uiso   1.00
C20    C     0.36501   0.10309   0.12474   0.00000  Uiso   1.00
C21    C     0.13157   0.40282   0.20677   0.00000  Uiso   1.00
C22    C     0.36852   0.39986   0.20455   0.00000  Uiso   1.00
C23    C     0.43791   0.19373   0.16633   0.00000  Uiso   1.00
C24    C     0.12049   0.08259   0.13417   0.00000  Uiso   1.00
C25    C     0.14219   0.11218   0.20973   0.00000  Uiso   1.00
C26    C     0.33742   0.36664   0.13469   0.00000  Uiso   1.00
C27    C     0.09879   0.33805   0.16750   0.00000  Uiso   1.00
C28    C     0.40092   0.16371   0.16591   0.00000  Uiso   1.00
C29    C     0.40057   0.33579   0.16723   0.00000  Uiso   1.00
C30    C     0.09160   0.15373   0.16576   0.00000  Uiso   1.00
C31    C     0.34798   0.08887   0.16751   0.00000  Uiso   1.00
C32    C     0.15101   0.41354   0.16471   0.00000  Uiso   1.00
C33    C     0.15038   0.08463   0.17012   0.00000  Uiso   1.00
C34    C     0.06202   0.30688   0.16703   0.00000  Uiso   1.00
C35    C     0.33933   0.40295   0.16743   0.00000  Uiso   1.00
C36    C     0.37957   0.17305   0.08167   0.00000  Uiso   1.00
C37    C     0.35716   0.21697   0.09397   0.00000  Uiso   1.00
C38    C     0.11385   0.33744   0.25482   0.00000  Uiso   1.00
C39    C     0.08493   0.35530   0.29363   0.00000  Uiso   1.00
C40    C     0.11968   0.31806   0.08182   0.00000  Uiso   1.00
C41    C     0.13767   0.27246   0.09241   0.00000  Uiso   1.00
C42    C     0.37045   0.18925   0.24286   0.00000  Uiso   1.00
C43    C     0.39665   0.19254   0.28731   0.00000  Uiso   1.00
C44    C     0.13196   0.19177   0.23545   0.00000  Uiso   1.00
C45    C     0.30904   0.43999   0.16646   0.00000  Uiso   1.00
C46    C     0.15243   0.22911   0.20879   0.00000  Uiso   1.00
C47    C     0.38556   0.33034   0.07653   0.00000  Uiso   1.00
C48    C     0.39530   0.37328   0.05151   0.00000  Uiso   1.00
C49    C     0.37959   0.33444   0.25284   0.00000  Uiso   1.00
C50    C     0.33674   0.31094   0.24885   0.00000  Uiso   1.00
C51    C     0.05476   0.11199   0.09753   0.00000  Uiso   1.00
C52    C     0.01306   0.09908   0.12080   0.00000  Uiso   1.00
C53    C     0.13240   0.41810   0.07901   0.00000  Uiso   1.00
C54    C     0.08584   0.42979   0.07359   0.00000  Uiso   1.00
C55    C     0.36536   0.08462   0.25401   0.00000  Uiso   1.00
C56    C     0.18858   0.05693   0.16757   0.00000  Uiso   1.00
C57    C     0.33748   0.10129   0.29425   0.00000  Uiso   1.00
C58    C     0.36784   0.07255   0.08100   0.00000  Uiso   1.00
C59    C     0.38820   0.02774   0.09040   0.00000  Uiso   1.00
C60    C     0.11923   0.44114   0.24042   0.00000  Uiso   1.00
C61    C     0.14587   0.44588   0.28449   0.00000  Uiso   1.00
C62    C     0.38053   0.43828   0.23793   0.00000  Uiso   1.00
C63    C     0.40356   0.47471   0.21221   0.00000  Uiso   1.00
C64    C     0.11634   0.03991   0.10397   0.00000  Uiso   1.00
C65    C     0.13255   0.04506   0.05421   0.00000  Uiso   1.00
C66    C     0.13442   0.09077   0.25625   0.00000  Uiso   1.00
C67    C     0.18771   0.44397   0.16611   0.00000  Uiso   1.00
C68    C     0.09043   0.06955   0.25727   0.00000  Uiso   1.00
C69    C     0.29780   0.35146   0.10925   0.00000  Uiso   1.00
C70    C     0.25851   0.34965   0.14022   0.00000  Uiso   1.00
C71    C     0.31187   0.05703   0.16703   0.00000  Uiso   1.00
C72    C     0.49875   0.21073   0.02209   0.00000  Uiso   1.00
Cu73   Cu    0.00000   0.25000   0.21355   0.00000  Uiso   1.00
Cu74   Cu    0.00000   0.25000   0.11978   0.00000  Uiso   1.00
Cu75   Cu    0.25000  -0.00000   0.21355   0.00000  Uiso   1.00
Cu76   Cu    0.25000  -0.00000   0.11978   0.00000  Uiso   1.00
H77    H     0.49517   0.17062   0.07560   0.00000  Uiso   1.00
H78    H     0.24824   0.39263   0.02537   0.00000  Uiso   1.00
H79    H     0.25602   0.08576   0.26232   0.00000  Uiso   1.00
H80    H     0.23196   0.10696   0.30964   0.00000  Uiso   1.00
H81    H     0.21871   0.09547   0.05047   0.00000  Uiso   1.00
H82    H     0.27175   0.10120   0.04250   0.00000  Uiso   1.00
H83    H     0.23075   0.39957   0.28404   0.00000  Uiso   1.00
H84    H     0.28403   0.40434   0.28971   0.00000  Uiso   1.00
H85    H     0.32692   0.21051   0.11224   0.00000  Uiso   1.00
H86    H     0.37715   0.23919   0.11648   0.00000  Uiso   1.00
H87    H     0.35007   0.23430   0.06159   0.00000  Uiso   1.00
H88    H     0.00332   0.14326   0.02619   0.00000  Uiso   1.00
H89    H     0.40991   0.17936   0.06417   0.00000  Uiso   1.00
H90    H     0.35897   0.15572   0.05573   0.00000  Uiso   1.00
H91    H     0.10270   0.37636   0.31910   0.00000  Uiso   1.00
H92    H     0.05884   0.37532   0.28019   0.00000  Uiso   1.00
H93    H     0.07221   0.32692   0.31275   0.00000  Uiso   1.00
H94    H     0.10798   0.30128   0.24937   0.00000  Uiso   1.00
H95    H     0.14706   0.33934   0.26715   0.00000  Uiso   1.00
H96    H     0.16710   0.27629   0.11312   0.00000  Uiso   1.00
H97    H     0.11443   0.25238   0.11131   0.00000  Uiso   1.00
H98    H     0.14517   0.25382   0.05930   0.00000  Uiso   1.00
H99    H     0.00407   0.33558   0.26209   0.00000  Uiso   1.00
H100   H     0.08861   0.31441   0.06471   0.00000  Uiso   1.00
H101   H     0.14115   0.33090   0.05504   0.00000  Uiso   1.00
H102   H     0.37588   0.20174   0.31724   0.00000  Uiso   1.00
H103   H     0.41261   0.16086   0.29425   0.00000  Uiso   1.00
H104   H     0.42036   0.21952   0.28499   0.00000  Uiso   1.00
H105   H     0.37256   0.22179   0.22591   0.00000  Uiso   1.00
H106   H     0.33653   0.18604   0.25195   0.00000  Uiso   1.00
H107   H     0.17728   0.21570   0.18483   0.00000  Uiso   1.00
H108   H     0.12831   0.24640   0.18869   0.00000  Uiso   1.00
H109   H     0.16737   0.25370   0.23356   0.00000  Uiso   1.00
H110   H     0.48060   0.35654   0.31002   0.00000  Uiso   1.00
H111   H     0.10435   0.20411   0.25573   0.00000  Uiso   1.00
H112   H     0.15564   0.18215   0.26157   0.00000  Uiso   1.00
H113   H     0.36585   0.39198   0.04522   0.00000  Uiso   1.00
H114   H     0.41708   0.39507   0.07252   0.00000  Uiso   1.00
H115   H     0.41055   0.36517   0.01762   0.00000  Uiso   1.00
H116   H     0.41133   0.30675   0.07028   0.00000  Uiso   1.00
H117   H     0.35917   0.31332   0.05795   0.00000  Uiso   1.00
H118   H     0.31108   0.33580   0.24666   0.00000  Uiso   1.00
H119   H     0.33560   0.28846   0.21729   0.00000  Uiso   1.00
H120   H     0.33120   0.29097   0.27999   0.00000  Uiso   1.00
H121   H     0.47388   0.34688   0.05237   0.00000  Uiso   1.00
H122   H     0.40354   0.30954   0.26121   0.00000  Uiso   1.00
H123   H     0.37791   0.35820   0.28313   0.00000  Uiso   1.00
H124   H     0.01712   0.06779   0.13961   0.00000  Uiso   1.00
H125   H     0.00219   0.12548   0.14597   0.00000  Uiso   1.00
H126   H     0.48820   0.09308   0.09414   0.00000  Uiso   1.00
H127   H     0.05480   0.14261   0.07819   0.00000  Uiso   1.00
H128   H     0.06043   0.08696   0.06912   0.00000  Uiso   1.00
H129   H     0.06671   0.39923   0.06930   0.00000  Uiso   1.00
H130   H     0.07440   0.44873   0.10504   0.00000  Uiso   1.00
H131   H     0.08098   0.45022   0.04287   0.00000  Uiso   1.00
H132   H     0.02530   0.34932   0.03870   0.00000  Uiso   1.00
H133   H     0.14933   0.45005   0.07947   0.00000  Uiso   1.00
H134   H     0.14446   0.40024   0.04749   0.00000  Uiso   1.00
H135   H     0.35658   0.12020   0.32019   0.00000  Uiso   1.00
H136   H     0.31193   0.12314   0.28274   0.00000  Uiso   1.00
H137   H     0.32397   0.07249   0.31210   0.00000  Uiso   1.00
H138   H     0.35907   0.04871   0.24724   0.00000  Uiso   1.00
H139   H     0.39888   0.08578   0.26539   0.00000  Uiso   1.00
H140   H     0.41854   0.03294   0.10919   0.00000  Uiso   1.00
H141   H     0.36700   0.00673   0.11103   0.00000  Uiso   1.00
H142   H     0.39463   0.00939   0.05686   0.00000  Uiso   1.00
H143   H     0.48229   0.14919   0.28448   0.00000  Uiso   1.00
H144   H     0.33674   0.06754   0.06424   0.00000  Uiso   1.00
H145   H     0.38844   0.08776   0.05457   0.00000  Uiso   1.00
H146   H     0.12554   0.45646   0.31416   0.00000  Uiso   1.00
H147   H     0.16148   0.41433   0.29269   0.00000  Uiso   1.00
H148   H     0.16975   0.47254   0.28109   0.00000  Uiso   1.00
H149   H     0.12082   0.47317   0.22241   0.00000  Uiso   1.00
H150   H     0.08545   0.43782   0.25002   0.00000  Uiso   1.00
H151   H     0.42966   0.46024   0.19070   0.00000  Uiso   1.00
H152   H     0.38142   0.49207   0.18947   0.00000  Uiso   1.00
H153   H     0.41737   0.49936   0.23770   0.00000  Uiso   1.00
H154   H     0.03545   0.15548   0.28935   0.00000  Uiso   1.00
H155   H     0.35300   0.45195   0.25742   0.00000  Uiso   1.00
H156   H     0.40278   0.42679   0.26470   0.00000  Uiso   1.00
H157   H     0.13145   0.08022   0.04363   0.00000  Uiso   1.00
H158   H     0.16535   0.03299   0.05090   0.00000  Uiso   1.00
H159   H     0.11295   0.02445   0.02968   0.00000  Uiso   1.00
H160   H     0.13269   0.01198   0.12004   0.00000  Uiso   1.00
H161   H     0.08297   0.02848   0.10353   0.00000  Uiso   1.00
H162   H     0.06579   0.09475   0.25140   0.00000  Uiso   1.00
H163   H     0.08756   0.04287   0.22963   0.00000  Uiso   1.00
H164   H     0.08470   0.05486   0.29151   0.00000  Uiso   1.00
H165   H     0.24826   0.41988   0.07565   0.00000  Uiso   1.00
H166   H     0.15714   0.06438   0.26360   0.00000  Uiso   1.00
H167   H     0.13690   0.11558   0.28575   0.00000  Uiso   1.00
H168   H     0.26420   0.32763   0.16966   0.00000  Uiso   1.00
H169   H     0.24941   0.38287   0.15430   0.00000  Uiso   1.00
H170   H     0.23152   0.33594   0.11954   0.00000  Uiso   1.00
H171   H     0.29430   0.37144   0.07855   0.00000  Uiso   1.00
H172   H     0.30133   0.31655   0.09570   0.00000  Uiso   1.00
N173   N     0.00000   0.25000   0.28402   0.00000  Uiso   1.00
N174   N     0.23358   0.07886   0.28731   0.00000  Uiso   1.00
N175   N     0.24797   0.08012   0.05422   0.00000  Uiso   1.00
N176   N     0.25671   0.42036   0.27902   0.00000  Uiso   1.00
N177   N     0.00000   0.25000   0.04931   0.00000  Uiso   1.00
N178   N     0.25000  -0.00000   0.28402   0.00000  Uiso   1.00
N179   N     0.25000  -0.00000   0.04931   0.00000  Uiso   1.00
N180   N     0.48626   0.16963   0.04145   0.00000  Uiso   1.00
N181   N     0.48215   0.32849   0.28760   0.00000  Uiso   1.00
N182   N     0.00219   0.32986   0.05383   0.00000  Uiso   1.00
N183   N     0.00766   0.17063   0.27883   0.00000  Uiso   1.00
N184   N     0.23518   0.42025   0.04305   0.00000  Uiso   1.00
O185   O     0.04509   0.20491   0.20625   0.00000  Uiso   1.00
O186   O     0.20492   0.04509   0.12709   0.00000  Uiso   1.00
O187   O     0.20492   0.04509   0.20625   0.00000  Uiso   1.00
O188   O     0.29509   0.45491   0.12709   0.00000  Uiso   1.00
O189   O     0.20492   0.45491   0.12709   0.00000  Uiso   1.00
O190   O     0.29509   0.04509   0.20625   0.00000  Uiso   1.00
O191   O     0.29509   0.04509   0.12709   0.00000  Uiso   1.00
O192   O     0.20492   0.45491   0.20625   0.00000  Uiso   1.00
O193   O     0.45492   0.29509   0.12709   0.00000  Uiso   1.00
O194   O     0.45492   0.29509   0.20625   0.00000  Uiso   1.00
O195   O     0.04509   0.20491   0.12709   0.00000  Uiso   1.00
O196   O     0.45492   0.20491   0.12709   0.00000  Uiso   1.00
O197   O     0.04509   0.29509   0.20625   0.00000  Uiso   1.00
O198   O     0.04509   0.29509   0.12709   0.00000  Uiso   1.00
O199   O     0.45492   0.20491   0.20625   0.00000  Uiso   1.00
O200   O     0.29509   0.45491   0.20625   0.00000  Uiso   1.00
C201   C     0.55957   0.19009   0.16613   0.00000  Uiso   1.00
C202   C     0.99475   0.28894   0.31033   0.00000  Uiso   1.00
C203   C     0.99891   0.28910   0.02676   0.00000  Uiso   1.00
C204   C     0.50276   0.21117   0.30617   0.00000  Uiso   1.00
C205   C     0.74830   0.46071   0.02250   0.00000  Uiso   1.00
C206   C     0.74514   0.03907   0.31028   0.00000  Uiso   1.00
C207   C     0.74853   0.03924   0.02679   0.00000  Uiso   1.00
C208   C     0.75222   0.46101   0.30636   0.00000  Uiso   1.00
C209   C     0.88504   0.14481   0.12404   0.00000  Uiso   1.00
C210   C     0.61062   0.36156   0.20940   0.00000  Uiso   1.00
C211   C     0.61794   0.34986   0.12482   0.00000  Uiso   1.00
C212   C     0.93838   0.30703   0.16686   0.00000  Uiso   1.00
C213   C     0.88270   0.15170   0.20825   0.00000  Uiso   1.00
C214   C     0.62091   0.15210   0.20304   0.00000  Uiso   1.00
C215   C     0.87442   0.34181   0.12743   0.00000  Uiso   1.00
C216   C     0.88933   0.35922   0.20898   0.00000  Uiso   1.00
C217   C     0.58974   0.11657   0.13283   0.00000  Uiso   1.00
C218   C     0.63823   0.39158   0.12279   0.00000  Uiso   1.00
C219   C     0.86130   0.11057   0.20987   0.00000  Uiso   1.00
C220   C     0.86501   0.10309   0.12474   0.00000  Uiso   1.00
C221   C     0.63157   0.40282   0.20677   0.00000  Uiso   1.00
C222   C     0.86852   0.39986   0.20455   0.00000  Uiso   1.00
C223   C     0.93791   0.19373   0.16633   0.00000  Uiso   1.00
C224   C     0.62049   0.08259   0.13417   0.00000  Uiso   1.00
C225   C     0.64219   0.11218   0.20973   0.00000  Uiso   1.00
C226   C     0.83742   0.36664   0.13469   0.00000  Uiso   1.00
C227   C     0.59879   0.33805   0.16750   0.00000  Uiso   1.00
C228   C     0.90092   0.16371   0.16591   0.00000  Uiso   1.00
C229   C     0.90057   0.33579   0.16723   0.00000  Uiso   1.00
C230   C     0.59160   0.15373   0.16576   0.00000  Uiso   1.00
C231   C     0.84798   0.08887   0.16751   0.00000  Uiso   1.00
C232   C     0.65101   0.41354   0.16471   0.00000  Uiso   1.00
C233   C     0.65038   0.08463   0.17012   0.00000  Uiso   1.00
C234   C     0.56202   0.30688   0.16703   0.00000  Uiso   1.00
C235   C     0.83933   0.40295   0.16743   0.00000  Uiso   1.00
C236   C     0.87957   0.17305   0.08167   0.00000  Uiso   1.00
C237   C     0.85716   0.21697   0.09397   0.00000  Uiso   1.00
C238   C     0.61385   0.33744   0.25482   0.00000  Uiso   1.00
C239   C     0.58493   0.35530   0.29363   0.00000  Uiso   1.00
C240   C     0.61968   0.31806   0.08182   0.00000  Uiso   1.00
C241   C     0.63767   0.27246   0.09241   0.00000  Uiso   1.00
C242   C     0.87045   0.18925   0.24286   0.00000  Uiso   1.00
C243   C     0.89665   0.19254   0.28731   0.00000  Uiso   1.00
C244   C     0.63196   0.19177   0.23545   0.00000  Uiso   1.00
C245   C     0.80904   0.43999   0.16646   0.00000  Uiso   1.00
C246   C     0.65243   0.22911   0.20879   0.00000  Uiso   1.00
C247   C     0.88556   0.33034   0.07653   0.00000  Uiso   1.00
C248   C     0.89530   0.37328   0.05151   0.00000  Uiso   1.00
C249   C     0.87959   0.33444   0.25284   0.00000  Uiso   1.00
C250   C     0.83674   0.31094   0.24885   0.00000  Uiso   1.00
C251   C     0.55476   0.11199   0.09753   0.00000  Uiso   1.00
C252   C     0.51306   0.09908   0.12080   0.00000  Uiso   1.00
C253   C     0.63240   0.41810   0.07901   0.00000  Uiso   1.00
C254   C     0.58584   0.42979   0.07359   0.00000  Uiso   1.00
C255   C     0.86536   0.08462   0.25401   0.00000  Uiso   1.00
C256   C     0.68858   0.05693   0.16757   0.00000  Uiso   1.00
C257   C     0.83748   0.10129   0.29425   0.00000  Uiso   1.00
C258   C     0.86784   0.07255   0.08100   0.00000  Uiso   1.00
C259   C     0.88820   0.02774   0.09040   0.00000  Uiso   1.00
C260   C     0.61923   0.44114   0.24042   0.00000  Uiso   1.00
C261   C     0.64587   0.44588   0.28449   0.00000  Uiso   1.00
C262   C     0.88053   0.43828   0.23793   0.00000  Uiso   1.00
C263   C     0.90356   0.47471   0.21221   0.00000  Uiso   1.00
C264   C     0.61634   0.03991   0.10397   0.00000  Uiso   1.00
C265   C     0.63255   0.04506   0.05421   0.00000  Uiso   1.00
C266   C     0.63442   0.09077   0.25625   0.00000  Uiso   1.00
C267   C     0.68771   0.44397   0.16611   0.00000  Uiso   1.00
C268   C     0.59043   0.06955   0.25727   0.00000  Uiso   1.00
C269   C     0.79780   0.35146   0.10925   0.00000  Uiso   1.00
C270   C     0.75851   0.34965   0.14022   0.00000  Uiso   1.00
C271   C     0.81187   0.05703   0.16703   0.00000  Uiso   1.00
C272   C     0.99875   0.21073   0.02209   0.00000  Uiso   1.00
Cu273  Cu    0.50000   0.25000   0.21355   0.00000  Uiso   1.00
Cu274  Cu    0.50000   0.25000   0.11978   0.00000  Uiso   1.00
Cu275  Cu    0.75000  -0.00000   0.21355   0.00000  Uiso   1.00
Cu276  Cu    0.75000  -0.00000   0.11978   0.00000  Uiso   1.00
H277   H     0.99517   0.17062   0.07560   0.00000  Uiso   1.00
H278   H     0.74824   0.39263   0.02537   0.00000  Uiso   1.00
H279   H     0.75602   0.08576   0.26232   0.00000  Uiso   1.00
H280   H     0.73196   0.10696   0.30964   0.00000  Uiso   1.00
H281   H     0.71871   0.09547   0.05047   0.00000  Uiso   1.00
H282   H     0.77175   0.10120   0.04250   0.00000  Uiso   1.00
H283   H     0.73075   0.39957   0.28404   0.00000  Uiso   1.00
H284   H     0.78403   0.40434   0.28971   0.00000  Uiso   1.00
H285   H     0.82692   0.21051   0.11224   0.00000  Uiso   1.00
H286   H     0.87715   0.23919   0.11648   0.00000  Uiso   1.00
H287   H     0.85007   0.23430   0.06159   0.00000  Uiso   1.00
H288   H     0.50332   0.14326   0.02619   0.00000  Uiso   1.00
H289   H     0.90991   0.17936   0.06417   0.00000  Uiso   1.00
H290   H     0.85897   0.15572   0.05573   0.00000  Uiso   1.00
H291   H     0.60270   0.37636   0.31910   0.00000  Uiso   1.00
H292   H     0.55884   0.37532   0.28019   0.00000  Uiso   1.00
H293   H     0.57221   0.32692   0.31275   0.00000  Uiso   1.00
H294   H     0.60798   0.30128   0.24937   0.00000  Uiso   1.00
H295   H     0.64706   0.33934   0.26715   0.00000  Uiso   1.00
H296   H     0.66710   0.27629   0.11312   0.00000  Uiso   1.00
H297   H     0.61443   0.25238   0.11131   0.00000  Uiso   1.00
H298   H     0.64517   0.25382   0.05930   0.00000  Uiso   1.00
H299   H     0.50407   0.33558   0.26209   0.00000  Uiso   1.00
H300   H     0.58861   0.31441   0.06471   0.00000  Uiso   1.00
H301   H     0.64115   0.33090   0.05504   0.00000  Uiso   1.00
H302   H     0.87588   0.20174   0.31724   0.00000  Uiso   1.00
H303   H     0.91261   0.16086   0.29425   0.00000  Uiso   1.00
H304   H     0.92036   0.21952   0.28499   0.00000  Uiso   1.00
H305   H     0.87256   0.22179   0.22591   0.00000  Uiso   1.00
H306   H     0.83653   0.18604   0.25195   0.00000  Uiso   1.00
H307   H     0.67728   0.21570   0.18483   0.00000  Uiso   1.00
H308   H     0.62831   0.24640   0.18869   0.00000  Uiso   1.00
H309   H     0.66737   0.25370   0.23356   0.00000  Uiso   1.00
H310   H     0.98060   0.35654   0.31002   0.00000  Uiso   1.00
H311   H     0.60435   0.20411   0.25573   0.00000  Uiso   1.00
H312   H     0.65564   0.18215   0.26157   0.00000  Uiso   1.00
H313   H     0.86585   0.39198   0.04522   0.00000  Uiso   1.00
H314   H     0.91708   0.39507   0.07252   0.00000  Uiso   1.00
H315   H     0.91055   0.36517   0.01762   0.00000  Uiso   1.00
H316   H     0.91133   0.30675   0.07028   0.00000  Uiso   1.00
H317   H     0.85917   0.31332   0.05795   0.00000  Uiso   1.00
H318   H     0.81108   0.33580   0.24666   0.00000  Uiso   1.00
H319   H     0.83560   0.28846   0.21729   0.00000  Uiso   1.00
H320   H     0.83120   0.29097   0.27999   0.00000  Uiso   1.00
H321   H     0.97388   0.34688   0.05237   0.00000  Uiso   1.00
H322   H     0.90354   0.30954   0.26121   0.00000  Uiso   1.00
H323   H     0.87791   0.35820   0.28313   0.00000  Uiso   1.00
H324   H     0.51712   0.06779   0.13961   0.00000  Uiso   1.00
H325   H     0.50219   0.12548   0.14597   0.00000  Uiso   1.00
H326   H     0.98820   0.09308   0.09414   0.00000  Uiso   1.00
H327   H     0.55480   0.14261   0.07819   0.00000  Uiso   1.00
H328   H     0.56043   0.08696   0.06912   0.00000  Uiso   1.00
H329   H     0.56671   0.39923   0.06930   0.00000  Uiso   1.00
H330   H     0.57440   0.44873   0.10504   0.00000  Uiso   1.00
H331   H     0.58098   0.45022   0.04287   0.00000  Uiso   1.00
H332   H     0.52530   0.34932   0.03870   0.00000  Uiso   1.00
H333   H     0.64933   0.45005   0.07947   0.00000  Uiso   1.00
H334   H     0.64446   0.40024   0.04749   0.00000  Uiso   1.00
H335   H     0.85658   0.12020   0.32019   0.00000  Uiso   1.00
H336   H     0.81193   0.12314   0.28274   0.00000  Uiso   1.00
H337   H     0.82397   0.07249   0.31210   0.00000  Uiso   1.00
H338   H     0.85907   0.04871   0.24724   0.00000  Uiso   1.00
H339   H     0.89888   0.08578   0.26539   0.00000  Uiso   1.00
H340   H     0.91854   0.03294   0.10919   0.00000  Uiso   1.00
H341   H     0.86700   0.00673   0.11103   0.00000  Uiso   1.00
H342   H     0.89463   0.00939   0.05686   0.00000  Uiso   1.00
H343   H     0.98229   0.14919   0.28448   0.00000  Uiso   1.00
H344   H     0.83674   0.06754   0.06424   0.00000  Uiso   1.00
H345   H     0.88844   0.08776   0.05457   0.00000  Uiso   1.00
H346   H     0.62554   0.45646   0.31416   0.00000  Uiso   1.00
H347   H     0.66148   0.41433   0.29269   0.00000  Uiso   1.00
H348   H     0.66975   0.47254   0.28109   0.00000  Uiso   1.00
H349   H     0.62082   0.47317   0.22241   0.00000  Uiso   1.00
H350   H     0.58545   0.43782   0.25002   0.00000  Uiso   1.00
H351   H     0.92966   0.46024   0.19070   0.00000  Uiso   1.00
H352   H     0.88142   0.49207   0.18947   0.00000  Uiso   1.00
H353   H     0.91737   0.49936   0.23770   0.00000  Uiso   1.00
H354   H     0.53545   0.15548   0.28935   0.00000  Uiso   1.00
H355   H     0.85300   0.45195   0.25742   0.00000  Uiso   1.00
H356   H     0.90278   0.42679   0.26470   0.00000  Uiso   1.00
H357   H     0.63145   0.08022   0.04363   0.00000  Uiso   1.00
H358   H     0.66535   0.03299   0.05090   0.00000  Uiso   1.00
H359   H     0.61295   0.02445   0.02968   0.00000  Uiso   1.00
H360   H     0.63269   0.01198   0.12004   0.00000  Uiso   1.00
H361   H     0.58297   0.02848   0.10353   0.00000  Uiso   1.00
H362   H     0.56579   0.09475   0.25140   0.00000  Uiso   1.00
H363   H     0.58756   0.04287   0.22963   0.00000  Uiso   1.00
H364   H     0.58470   0.05486   0.29151   0.00000  Uiso   1.00
H365   H     0.74826   0.41988   0.07565   0.00000  Uiso   1.00
H366   H     0.65714   0.06438   0.26360   0.00000  Uiso   1.00
H367   H     0.63690   0.11558   0.28575   0.00000  Uiso   1.00
H368   H     0.76420   0.32763   0.16966   0.00000  Uiso   1.00
H369   H     0.74941   0.38287   0.15430   0.00000  Uiso   1.00
H370   H     0.73152   0.33594   0.11954   0.00000  Uiso   1.00
H371   H     0.79430   0.37144   0.07855   0.00000  Uiso   1.00
H372   H     0.80133   0.31655   0.09570   0.00000  Uiso   1.00
N373   N     0.50000   0.25000   0.28402   0.00000  Uiso   1.00
N374   N     0.73358   0.07886   0.28731   0.00000  Uiso   1.00
N375   N     0.74797   0.08012   0.05422   0.00000  Uiso   1.00
N376   N     0.75671   0.42036   0.27902   0.00000  Uiso   1.00
N377   N     0.50000   0.25000   0.04931   0.00000  Uiso   1.00
N378   N     0.75000  -0.00000   0.28402   0.00000  Uiso   1.00
N379   N     0.75000  -0.00000   0.04931   0.00000  Uiso   1.00
N380   N     0.98626   0.16963   0.04145   0.00000  Uiso   1.00
N381   N     0.98215   0.32849   0.28760   0.00000  Uiso   1.00
N382   N     0.50219   0.32986   0.05383   0.00000  Uiso   1.00
N383   N     0.50766   0.17063   0.27883   0.00000  Uiso   1.00
N384   N     0.73518   0.42025   0.04305   0.00000  Uiso   1.00
O385   O     0.54509   0.20491   0.20625   0.00000  Uiso   1.00
O386   O     0.70492   0.04509   0.12709   0.00000  Uiso   1.00
O387   O     0.70492   0.04509   0.20625   0.00000  Uiso   1.00
O388   O     0.79509   0.45491   0.12709   0.00000  Uiso   1.00
O389   O     0.70492   0.45491   0.12709   0.00000  Uiso   1.00
O390   O     0.79509   0.04509   0.20625   0.00000  Uiso   1.00
O391   O     0.79509   0.04509   0.12709   0.00000  Uiso   1.00
O392   O     0.70492   0.45491   0.20625   0.00000  Uiso   1.00
O393   O     0.95492   0.29509   0.12709   0.00000  Uiso   1.00
O394   O     0.95492   0.29509   0.20625   0.00000  Uiso   1.00
O395   O     0.54509   0.20491   0.12709   0.00000  Uiso   1.00
O396   O     0.95492   0.20491   0.12709   0.00000  Uiso   1.00
O397   O     0.54509   0.29509   0.20625   0.00000  Uiso   1.00
O398   O     0.54509   0.29509   0.12709   0.00000  Uiso   1.00
O399   O     0.95492   0.20491   0.20625   0.00000  Uiso   1.00
O400   O     0.79509   0.45491   0.20625   0.00000  Uiso   1.00
C401   C     0.05957   0.69009   0.16613   0.00000  Uiso   1.00
C402   C     0.49475   0.78894   0.31033   0.00000  Uiso   1.00
C403   C     0.49891   0.78910   0.02676   0.00000  Uiso   1.00
C404   C     0.00276   0.71117   0.30617   0.00000  Uiso   1.00
C405   C     0.24830   0.96071   0.02250   0.00000  Uiso   1.00
C406   C     0.24514   0.53907   0.31028   0.00000  Uiso   1.00
C407   C     0.24853   0.53924   0.02679   0.00000  Uiso   1.00
C408   C     0.25222   0.96101   0.30636   0.00000  Uiso   1.00
C409   C     0.38504   0.64481   0.12404   0.00000  Uiso   1.00
C410   C     0.11062   0.86156   0.20940   0.00000  Uiso   1.00
C411   C     0.11794   0.84986   0.12482   0.00000  Uiso   1.00
C412   C     0.43838   0.80703   0.16686   0.00000  Uiso   1.00
C413   C     0.38270   0.65170   0.20825   0.00000  Uiso   1.00
C414   C     0.12091   0.65210   0.20304   0.00000  Uiso   1.00
C415   C     0.37442   0.84181   0.12743   0.00000  Uiso   1.00
C416   C     0.38933   0.85922   0.20898   0.00000  Uiso   1.00
C417   C     0.08974   0.61657   0.13283   0.00000  Uiso   1.00
C418   C     0.13823   0.89158   0.12279   0.00000  Uiso   1.00
C419   C     0.36130   0.61057   0.20987   0.00000  Uiso   1.00
C420   C     0.36501   0.60309   0.12474   0.00000  Uiso   1.00
C421   C     0.13157   0.90282   0.20677   0.00000  Uiso   1.00
C422   C     0.36852   0.89986   0.20455   0.00000  Uiso   1.00
C423   C     0.43791   0.69373   0.16633   0.00000  Uiso   1.00
C424   C     0.12049   0.58259   0.13417   0.00000  Uiso   1.00
C425   C     0.14219   0.61218   0.20973   0.00000  Uiso   1.00
C426   C     0.33742   0.86664   0.13469   0.00000  Uiso   1.00
C427   C     0.09879   0.83805   0.16750   0.00000  Uiso   1.00
C428   C     0.40092   0.66371   0.16591   0.00000  Uiso   1.00
C429   C     0.40057   0.83579   0.16723   0.00000  Uiso   1.00
C430   C     0.09160   0.65373   0.16576   0.00000  Uiso   1.00
C431   C     0.34798   0.58887   0.16751   0.00000  Uiso   1.00
C432   C     0.15101   0.91354   0.16471   0.00000  Uiso   1.00
C433   C     0.15038   0.58463   0.17012   0.00000  Uiso   1.00
C434   C     0.06202   0.80688   0.16703   0.00000  Uiso   1.00
C435   C     0.33933   0.90295   0.16743   0.00000  Uiso   1.00
C436   C     0.37957   0.67305   0.08167   0.00000  Uiso   1.00
C437   C     0.35716   0.71697   0.09397   0.00000  Uiso   1.00
C438   C     0.11385   0.83744   0.25482   0.00000  Uiso   1.00
C439   C     0.08493   0.85530   0.29363   0.00000  Uiso   1.00
C440   C     0.11968   0.81806   0.08182   0.00000  Uiso   1.00
C441   C     0.13767   0.77246   0.09241   0.00000  Uiso   1.00
C442   C     0.37045   0.68925   0.24286   0.00000  Uiso   1.00
C443   C     0.39665   0.69254   0.28731   0.00000  Uiso   1.00
C444   C     0.13196   0.69177   0.23545   0.00000  Uiso   1.00
C445   C     0.30904   0.93999   0.16646   0.00000  Uiso   1.00
C446   C     0.15243   0.72911   0.20879   0.00000  Uiso   1.00
C447   C     0.38556   0.83034   0.07653   0.00000  Uiso   1.00
C448   C     0.39530   0.87328   0.05151   0.00000  Uiso   1.00
C449   C     0.37959   0.83444   0.25284   0.00000  Uiso   1.00
C450   C     0.33674   0.81094   0.24885   0.00000  Uiso   1.00
C451   C     0.05476   0.61199   0.09753   0.00000  Uiso   1.00
C452   C     0.01306   0.59908   0.12080   0.00000  Uiso   1.00
C453   C     0.13240   0.91810   0.07901   0.00000  Uiso   1.00
C454   C     0.08584   0.92979   0.07359   0.00000  Uiso   1.00
C455   C     0.36536   0.58462   0.25401   0.00000  Uiso   1.00
C456   C     0.18858   0.55693   0.16757   0.00000  Uiso   1.00
C457   C     0.33748   0.60129   0.29425   0.00000  Uiso   1.00
C458   C     0.36784   0.57255   0.08100   0.00000  Uiso   1.00
C459   C     0.38820   0.52774   0.09040   0.00000  Uiso   1.00
C460   C     0.11923   0.94114   0.24042   0.00000  Uiso   1.00
C461   C     0.14587   0.94588   0.28449   0.00000  Uiso   1.00
C462   C     0.38053   0.93828   0.23793   0.00000  Uiso   1.00
C463   C     0.40356   0.97471   0.21221   0.00000  Uiso   1.00
C464   C     0.11634   0.53991   0.10397   0.00000  Uiso   1.00
C465   C     0.13255   0.54506   0.05421   0.00000  Uiso   1.00
C466   C     0.13442   0.59077   0.25625   0.00000  Uiso   1.00
C467   C     0.18771   0.94397   0.16611   0.00000  Uiso   1.00
C468   C     0.09043   0.56955   0.25727   0.00000  Uiso   1.00
C469   C     0.29780   0.85146   0.10925   0.00000  Uiso   1.00
C470   C     0.25851   0.84965   0.14022   0.00000  Uiso   1.00
C471   C     0.31187   0.55703   0.16703   0.00000  Uiso   1.00
C472   C     0.49875   0.71073   0.02209   0.00000  Uiso   1.00
Cu473  Cu    0.00000   0.75000   0.21355   0.00000  Uiso   1.00
Cu474  Cu    0.00000   0.75000   0.11978   0.00000  Uiso   1.00
Cu475  Cu    0.25000   0.50000   0.21355   0.00000  Uiso   1.00
Cu476  Cu    0.25000   0.50000   0.11978   0.00000  Uiso   1.00
H477   H     0.49517   0.67062   0.07560   0.00000  Uiso   1.00
H478   H     0.24824   0.89263   0.02537   0.00000  Uiso   1.00
H479   H     0.25602   0.58576   0.26232   0.00000  Uiso   1.00
H480   H     0.23196   0.60696   0.30964   0.00000  Uiso   1.00
H481   H     0.21871   0.59547   0.05047   0.00000  Uiso   1.00
H482   H     0.27175   0.60120   0.04250   0.00000  Uiso   1.00
H483   H     0.23075   0.89957   0.28404   0.00000  Uiso   1.00
H484   H     0.28403   0.90434   0.28971   0.00000  Uiso   1.00
H485   H     0.32692   0.71051   0.11224   0.00000  Uiso   1.00
H486   H     0.37715   0.73919   0.11648   0.00000  Uiso   1.00
H487   H     0.35007   0.73430   0.06159   0.00000  Uiso   1.00
H488   H     0.00332   0.64326   0.02619   0.00000  Uiso   1.00
H489   H     0.40991   0.67936   0.06417   0.00000  Uiso   1.00
H490   H     0.35897   0.65572   0.05573   0.00000  Uiso   1.00
H491   H     0.10270   0.87636   0.31910   0.00000  Uiso   1.00
H492   H     0.05884   0.87532   0.28019   0.00000  Uiso   1.00
H493   H     0.07221   0.82692   0.31275   0.00000  Uiso   1.00
H494   H     0.10798   0.80128   0.24937   0.00000  Uiso   1.00
H495   H     0.14706   0.83934   0.26715   0.00000  Uiso   1.00
H496   H     0.16710   0.77629   0.11312   0.00000  Uiso   1.00
H497   H     0.11443   0.75238   0.11131   0.00000  Uiso   1.00
H498   H     0.14517   0.75382   0.05930   0.00000  Uiso   1.00
H499   H     0.00407   0.83558   0.26209   0.00000  Uiso   1.00
H500   H     0.08861   0.81441   0.06471   0.00000  Uiso   1.00
H501   H     0.14115   0.83090   0.05504   0.00000  Uiso   1.00
H502   H     0.37588   0.70174   0.31724   0.00000  Uiso   1.00
H503   H     0.41261   0.66086   0.29425   0.00000  Uiso   1.00
H504   H     0.42036   0.71952   0.28499   0.00000  Uiso   1.00
H505   H     0.37256   0.72179   0.22591   0.00000  Uiso   1.00
H506   H     0.33653   0.68604   0.25195   0.00000  Uiso   1.00
H507   H     0.17728   0.71570   0.18483   0.00000  Uiso   1.00
H508   H     0.12831   0.74640   0.18869   0.00000  Uiso   1.00
H509   H     0.16737   0.75370   0.23356   0.00000  Uiso   1.00
H510   H     0.48060   0.85654   0.31002   0.00000  Uiso   1.00
H511   H     0.10435   0.70411   0.25573   0.00000  Uiso   1.00
H512   H     0.15564   0.68215   0.26157   0.00000  Uiso   1.00
H513   H     0.36585   0.89198   0.04522   0.00000  Uiso   1.00
H514   H     0.41708   0.89507   0.07252   0.00000  Uiso   1.00
H515   H     0.41055   0.86517   0.01762   0.00000  Uiso   1.00
H516   H     0.41133   0.80675   0.07028   0.00000  Uiso   1.00
H517   H     0.35917   0.81332   0.05795   0.00000  Uiso   1.00
H518   H     0.31108   0.83580   0.24666   0.00000  Uiso   1.00
H519   H     0.33560   0.78846   0.21729   0.00000  Uiso   1.00
H520   H     0.33120   0.79097   0.27999   0.00000  Uiso   1.00
H521   H     0.47388   0.84688   0.05237   0.00000  Uiso   1.00
H522   H     0.40354   0.80954   0.26121   0.00000  Uiso   1.00
H523   H     0.37791   0.85820   0.28313   0.00000  Uiso   1.00
H524   H     0.01712   0.56779   0.13961   0.00000  Uiso   1.00
H525   H     0.00219   0.62548   0.14597   0.00000  Uiso   1.00
H526   H     0.48820   0.59308   0.09414   0.00000  Uiso   1.00
H527   H     0.05480   0.64261   0.07819   0.00000  Uiso   1.00
H528   H     0.06043   0.58696   0.06912   0.00000  Uiso   1.00
H529   H     0.06671   0.89923   0.06930   0.00000  Uiso   1.00
H530   H     0.07440   0.94873   0.10504   0.00000  Uiso   1.00
H531   H     0.08098   0.95022   0.04287   0.00000  Uiso   1.00
H532   H     0.02530   0.84932   0.03870   0.00000  Uiso   1.00
H533   H     0.14933   0.95005   0.07947   0.00000  Uiso   1.00
H534   H     0.14446   0.90024   0.04749   0.00000  Uiso   1.00
H535   H     0.35658   0.62020   0.32019   0.00000  Uiso   1.00
H536   H     0.31193   0.62314   0.28274   0.00000  Uiso   1.00
H537   H     0.32397   0.57249   0.31210   0.00000  Uiso   1.00
H538   H     0.35907   0.54871   0.24724   0.00000  Uiso   1.00
H539   H     0.39888   0.58578   0.26539   0.00000  Uiso   1.00
H540   H     0.41854   0.53294   0.10919   0.00000  Uiso   1.00
H541   H     0.36700   0.50673   0.11103   0.00000  Uiso   1.00
H542   H     0.39463   0.50939   0.05686   0.00000  Uiso   1.00
H543   H     0.48229   0.64919   0.28448   0.00000  Uiso   1.00
H544   H     0.33674   0.56754   0.06424   0.00000  Uiso   1.00
H545   H     0.38844   0.58776   0.05457   0.00000  Uiso   1.00
H546   H     0.12554   0.95646   0.31416   0.00000  Uiso   1.00
H547   H     0.16148   0.91433   0.29269   0.00000  Uiso   1.00
H548   H     0.16975   0.97254   0.28109   0.00000  Uiso   1.00
H549   H     0.12082   0.97317   0.22241   0.00000  Uiso   1.00
H550   H     0.08545   0.93782   0.25002   0.00000  Uiso   1.00
H551   H     0.42966   0.96024   0.19070   0.00000  Uiso   1.00
H552   H     0.38142   0.99207   0.18947   0.00000  Uiso   1.00
H553   H     0.41737   0.99936   0.23770   0.00000  Uiso   1.00
H554   H     0.03545   0.65548   0.28935   0.00000  Uiso   1.00
H555   H     0.35300   0.95195   0.25742   0.00000  Uiso   1.00
H556   H     0.40278   0.92679   0.26470   0.00000  Uiso   1.00
H557   H     0.13145   0.58022   0.04363   0.00000  Uiso   1.00
H558   H     0.16535   0.53299   0.05090   0.00000  Uiso   1.00
H559   H     0.11295   0.52445   0.02968   0.00000  Uiso   1.00
H560   H     0.13269   0.51198   0.12004   0.00000  Uiso   1.00
H561   H     0.08297   0.52848   0.10353   0.00000  Uiso   1.00
H562   H     0.06579   0.59475   0.25140   0.00000  Uiso   1.00
H563   H     0.08756   0.54287   0.22963   0.00000  Uiso   1.00
H564   H     0.08470   0.55486   0.29151   0.00000  Uiso   1.00
H565   H     0.24826   0.91988   0.07565   0.00000  Uiso   1.00
H566   H     0.15714   0.56438   0.26360   0.00000  Uiso   1.00
H567   H     0.13690   0.61558   0.28575   0.00000  Uiso   1.00
H568   H     0.26420   0.82763   0.16966   0.00000  Uiso   1.00
H569   H     0.24941   0.88287   0.15430   0.00000  Uiso   1.00
H570   H     0.23152   0.83594   0.11954   0.00000  Uiso   1.00
H571   H     0.29430   0.87144   0.07855   0.00000  Uiso   1.00
H572   H     0.30133   0.81655   0.09570   0.00000  Uiso   1.00
N573   N     0.00000   0.75000   0.28402   0.00000  Uiso   1.00
N574   N     0.23358   0.57886   0.28731   0.00000  Uiso   1.00
N575   N     0.24797   0.58012   0.05422   0.00000  Uiso   1.00
N576   N     0.25671   0.92036   0.27902   0.00000  Uiso   1.00
N577   N     0.00000   0.75000   0.04931   0.00000  Uiso   1.00
N578   N     0.25000   0.50000   0.28402   0.00000  Uiso   1.00
N579   N     0.25000   0.50000   0.04931   0.00000  Uiso   1.00
N580   N     0.48626   0.66963   0.04145   0.00000  Uiso   1.00
N581   N     0.48215   0.82849   0.28760   0.00000  Uiso   1.00
N582   N     0.00219   0.82986   0.05383   0.00000  Uiso   1.00
N583   N     0.00766   0.67063   0.27883   0.00000  Uiso   1.00
N584   N     0.23518   0.92025   0.04305   0.00000  Uiso   1.00
O585   O     0.04509   0.70491   0.20625   0.00000  Uiso   1.00
O586   O     0.20492   0.54509   0.12709   0.00000  Uiso   1.00
O587   O     0.20492   0.54509   0.20625   0.00000  Uiso   1.00
O588   O     0.29509   0.95491   0.12709   0.00000  Uiso   1.00
O589   O     0.20492   0.95491   0.12709   0.00000  Uiso   1.00
O590   O     0.29509   0.54509   0.20625   0.00000  Uiso   1.00
O591   O     0.29509   0.54509   0.12709   0.00000  Uiso   1.00
O592   O     0.20492   0.95491   0.20625   0.00000  Uiso   1.00
O593   O     0.45492   0.79509   0.12709   0.00000  Uiso   1.00
O594   O     0.45492   0.79509   0.20625   0.00000  Uiso   1.00
O595   O     0.04509   0.70491   0.12709   0.00000  Uiso   1.00
O596   O     0.45492   0.70491   0.12709   0.00000  Uiso   1.00
O597   O     0.04509   0.79509   0.20625   0.00000  Uiso   1.00
O598   O     0.04509   0.79509   0.12709   0.00000  Uiso   1.00
O599   O     0.45492   0.70491   0.20625   0.00000  Uiso   1.00
O600   O     0.29509   0.95491   0.20625   0.00000  Uiso   1.00
C601   C     0.55957   0.69009   0.16613   0.00000  Uiso   1.00
C602   C     0.99475   0.78894   0.31033   0.00000  Uiso   1.00
C603   C     0.99891   0.78910   0.02676   0.00000  Uiso   1.00
C604   C     0.50276   0.71117   0.30617   0.00000  Uiso   1.00
C605   C     0.74830   0.96071   0.02250   0.00000  Uiso   1.00
C606   C     0.74514   0.53907   0.31028   0.00000  Uiso   1.00
C607   C     0.74853   0.53924   0.02679   0.00000  Uiso   1.00
C608   C     0.75222   0.96101   0.30636   0.00000  Uiso   1.00
C609   C     0.88504   0.64481   0.12404   0.00000  Uiso   1.00
C610   C     0.61062   0.86156   0.20940   0.00000  Uiso   1.00
C611   C     0.61794   0.84986   0.12482   0.00000  Uiso   1.00
C612   C     0.93838   0.80703   0.16686   0.00000  Uiso   1.00
C613   C     0.88270   0.65170   0.20825   0.00000  Uiso   1.00
C614   C     0.62091   0.65210   0.20304   0.00000  Uiso   1.00
C615   C     0.87442   0.84181   0.12743   0.00000  Uiso   1.00
C616   C     0.88933   0.85922   0.20898   0.00000  Uiso   1.00
C617   C     0.58974   0.61657   0.13283   0.00000  Uiso   1.00
C618   C     0.63823   0.89158   0.12279   0.00000  Uiso   1.00
C619   C     0.86130   0.61057   0.20987   0.00000  Uiso   1.00
C620   C     0.86501   0.60309   0.12474   0.00000  Uiso   1.00
C621   C     0.63157   0.90282   0.20677   0.00000  Uiso   1.00
C622   C     0.86852   0.89986   0.20455   0.00000  Uiso   1.00
C623   C     0.93791   0.69373   0.16633   0.00000  Uiso   1.00
C624   C     0.62049   0.58259   0.13417   0.00000  Uiso   1.00
C625   C     0.64219   0.61218   0.20973   0.00000  Uiso   1.00
C626   C     0.83742   0.86664   0.13469   0.00000  Uiso   1.00
C627   C     0.59879   0.83805   0.16750   0.00000  Uiso   1.00
C628   C     0.90092   0.66371   0.16591   0.00000  Uiso   1.00
C629   C     0.90057   0.83579   0.16723   0.00000  Uiso   1.00
C630   C     0.59160   0.65373   0.16576   0.00000  Uiso   1.00
C631   C     0.84798   0.58887   0.16751   0.00000  Uiso   1.00
C632   C     0.65101   0.91354   0.16471   0.00000  Uiso   1.00
C633   C     0.65038   0.58463   0.17012   0.00000  Uiso   1.00
C634   C     0.56202   0.80688   0.16703   0.00000  Uiso   1.00
C635   C     0.83933   0.90295   0.16743   0.00000  Uiso   1.00
C636   C     0.87957   0.67305   0.08167   0.00000  Uiso   1.00
C637   C     0.85716   0.71697   0.09397   0.00000  Uiso   1.00
C638   C     0.61385   0.83744   0.25482   0.00000  Uiso   1.00
C639   C     0.58493   0.85530   0.29363   0.00000  Uiso   1.00
C640   C     0.61968   0.81806   0.08182   0.00000  Uiso   1.00
C641   C     0.63767   0.77246   0.09241   0.00000  Uiso   1.00
C642   C     0.87045   0.68925   0.24286   0.00000  Uiso   1.00
C643   C     0.89665   0.69254   0.28731   0.00000  Uiso   1.00
C644   C     0.63196   0.69177   0.23545   0.00000  Uiso   1.00
C645   C     0.80904   0.93999   0.16646   0.00000  Uiso   1.00
C646   C     0.65243   0.72911   0.20879   0.00000  Uiso   1.00
C647   C     0.88556   0.83034   0.07653   0.00000  Uiso   1.00
C648   C     0.89530   0.87328   0.05151   0.00000  Uiso   1.00
C649   C     0.87959   0.83444   0.25284   0.00000  Uiso   1.00
C650   C     0.83674   0.81094   0.24885   0.00000  Uiso   1.00
C651   C     0.55476   0.61199   0.09753   0.00000  Uiso   1.00
C652   C     0.51306   0.59908   0.12080   0.00000  Uiso   1.00
C653   C     0.63240   0.91810   0.07901   0.00000  Uiso   1.00
C654   C     0.58584   0.92979   0.07359   0.00000  Uiso   1.00
C655   C     0.86536   0.58462   0.25401   0.00000  Uiso   1.00
C656   C     0.68858   0.55693   0.16757   0.00000  Uiso   1.00
C657   C     0.83748   0.60129   0.29425   0.00000  Uiso   1.00
C658   C     0.86784   0.57255   0.08100   0.00000  Uiso   1.00
C659   C     0.88820   0.52774   0.09040   0.00000  Uiso   1.00
C660   C     0.61923   0.94114   0.24042   0.00000  Uiso   1.00
C661   C     0.64587   0.94588   0.28449   0.00000  Uiso   1.00
C662   C     0.88053   0.93828   0.23793   0.00000  Uiso   1.00
C663   C     0.90356   0.97471   0.21221   0.00000  Uiso   1.00
C664   C     0.61634   0.53991   0.10397   0.00000  Uiso   1.00
C665   C     0.63255   0.54506   0.05421   0.00000  Uiso   1.00
C666   C     0.63442   0.59077   0.25625   0.00000  Uiso   1.00
C667   C     0.68771   0.94397   0.16611   0.00000  Uiso   1.00
C668   C     0.59043   0.56955   0.25727   0.00000  Uiso   1.00
C669   C     0.79780   0.85146   0.10925   0.00000  Uiso   1.00
C670   C     0.75851   0.84965   0.14022   0.00000  Uiso   1.00
C671   C     0.81187   0.55703   0.16703   0.00000  Uiso   1.00
C672   C     0.99875   0.71073   0.02209   0.00000  Uiso   1.00
Cu673  Cu    0.50000   0.75000   0.21355   0.00000  Uiso   1.00
Cu674  Cu    0.50000   0.75000   0.11978   0.00000  Uiso   1.00
Cu675  Cu    0.75000   0.50000   0.21355   0.00000  Uiso   1.00
Cu676  Cu    0.75000   0.50000   0.11978   0.00000  Uiso   1.00
H677   H     0.99517   0.67062   0.07560   0.00000  Uiso   1.00
H678   H     0.74824   0.89263   0.02537   0.00000  Uiso   1.00
H679   H     0.75602   0.58576   0.26232   0.00000  Uiso   1.00
H680   H     0.73196   0.60696   0.30964   0.00000  Uiso   1.00
H681   H     0.71871   0.59547   0.05047   0.00000  Uiso   1.00
H682   H     0.77175   0.60120   0.04250   0.00000  Uiso   1.00
H683   H     0.73075   0.89957   0.28404   0.00000  Uiso   1.00
H684   H     0.78403   0.90434   0.28971   0.00000  Uiso   1.00
H685   H     0.82692   0.71051   0.11224   0.00000  Uiso   1.00
H686   H     0.87715   0.73919   0.11648   0.00000  Uiso   1.00
H687   H     0.85007   0.73430   0.06159   0.00000  Uiso   1.00
H688   H     0.50332   0.64326   0.02619   0.00000  Uiso   1.00
H689   H     0.90991   0.67936   0.06417   0.00000  Uiso   1.00
H690   H     0.85897   0.65572   0.05573   0.00000  Uiso   1.00
H691   H     0.60270   0.87636   0.31910   0.00000  Uiso   1.00
H692   H     0.55884   0.87532   0.28019   0.00000  Uiso   1.00
H693   H     0.57221   0.82692   0.31275   0.00000  Uiso   1.00
H694   H     0.60798   0.80128   0.24937   0.00000  Uiso   1.00
H695   H     0.64706   0.83934   0.26715   0.00000  Uiso   1.00
H696   H     0.66710   0.77629   0.11312   0.00000  Uiso   1.00
H697   H     0.61443   0.75238   0.11131   0.00000  Uiso   1.00
H698   H     0.64517   0.75382   0.05930   0.00000  Uiso   1.00
H699   H     0.50407   0.83558   0.26209   0.00000  Uiso   1.00
H700   H     0.58861   0.81441   0.06471   0.00000  Uiso   1.00
H701   H     0.64115   0.83090   0.05504   0.00000  Uiso   1.00
H702   H     0.87588   0.70174   0.31724   0.00000  Uiso   1.00
H703   H     0.91261   0.66086   0.29425   0.00000  Uiso   1.00
H704   H     0.92036   0.71952   0.28499   0.00000  Uiso   1.00
H705   H     0.87256   0.72179   0.22591   0.00000  Uiso   1.00
H706   H     0.83653   0.68604   0.25195   0.00000  Uiso   1.00
H707   H     0.67728   0.71570   0.18483   0.00000  Uiso   1.00
H708   H     0.62831   0.74640   0.18869   0.00000  Uiso   1.00
H709   H     0.66737   0.75370   0.23356   0.00000  Uiso   1.00
H710   H     0.98060   0.85654   0.31002   0.00000  Uiso   1.00
H711   H     0.60435   0.70411   0.25573   0.00000  Uiso   1.00
H712   H     0.65564   0.68215   0.26157   0.00000  Uiso   1.00
H713   H     0.86585   0.89198   0.04522   0.00000  Uiso   1.00
H714   H     0.91708   0.89507   0.07252   0.00000  Uiso   1.00
H715   H     0.91055   0.86517   0.01762   0.00000  Uiso   1.00
H716   H     0.91133   0.80675   0.07028   0.00000  Uiso   1.00
H717   H     0.85917   0.81332   0.05795   0.00000  Uiso   1.00
H718   H     0.81108   0.83580   0.24666   0.00000  Uiso   1.00
H719   H     0.83560   0.78846   0.21729   0.00000  Uiso   1.00
H720   H     0.83120   0.79097   0.27999   0.00000  Uiso   1.00
H721   H     0.97388   0.84688   0.05237   0.00000  Uiso   1.00
H722   H     0.90354   0.80954   0.26121   0.00000  Uiso   1.00
H723   H     0.87791   0.85820   0.28313   0.00000  Uiso   1.00
H724   H     0.51712   0.56779   0.13961   0.00000  Uiso   1.00
H725   H     0.50219   0.62548   0.14597   0.00000  Uiso   1.00
H726   H     0.98820   0.59308   0.09414   0.00000  Uiso   1.00
H727   H     0.55480   0.64261   0.07819   0.00000  Uiso   1.00
H728   H     0.56043   0.58696   0.06912   0.00000  Uiso   1.00
H729   H     0.56671   0.89923   0.06930   0.00000  Uiso   1.00
H730   H     0.57440   0.94873   0.10504   0.00000  Uiso   1.00
H731   H     0.58098   0.95022   0.04287   0.00000  Uiso   1.00
H732   H     0.52530   0.84932   0.03870   0.00000  Uiso   1.00
H733   H     0.64933   0.95005   0.07947   0.00000  Uiso   1.00
H734   H     0.64446   0.90024   0.04749   0.00000  Uiso   1.00
H735   H     0.85658   0.62020   0.32019   0.00000  Uiso   1.00
H736   H     0.81193   0.62314   0.28274   0.00000  Uiso   1.00
H737   H     0.82397   0.57249   0.31210   0.00000  Uiso   1.00
H738   H     0.85907   0.54871   0.24724   0.00000  Uiso   1.00
H739   H     0.89888   0.58578   0.26539   0.00000  Uiso   1.00
H740   H     0.91854   0.53294   0.10919   0.00000  Uiso   1.00
H741   H     0.86700   0.50673   0.11103   0.00000  Uiso   1.00
H742   H     0.89463   0.50939   0.05686   0.00000  Uiso   1.00
H743   H     0.98229   0.64919   0.28448   0.00000  Uiso   1.00
H744   H     0.83674   0.56754   0.06424   0.00000  Uiso   1.00
H745   H     0.88844   0.58776   0.05457   0.00000  Uiso   1.00
H746   H     0.62554   0.95646   0.31416   0.00000  Uiso   1.00
H747   H     0.66148   0.91433   0.29269   0.00000  Uiso   1.00
H748   H     0.66975   0.97254   0.28109   0.00000  Uiso   1.00
H749   H     0.62082   0.97317   0.22241   0.00000  Uiso   1.00
H750   H     0.58545   0.93782   0.25002   0.00000  Uiso   1.00
H751   H     0.92966   0.96024   0.19070   0.00000  Uiso   1.00
H752   H     0.88142   0.99207   0.18947   0.00000  Uiso   1.00
H753   H     0.91737   0.99936   0.23770   0.00000  Uiso   1.00
H754   H     0.53545   0.65548   0.28935   0.00000  Uiso   1.00
H755   H     0.85300   0.95195   0.25742   0.00000  Uiso   1.00
H756   H     0.90278   0.92679   0.26470   0.00000  Uiso   1.00
H757   H     0.63145   0.58022   0.04363   0.00000  Uiso   1.00
H758   H     0.66535   0.53299   0.05090   0.00000  Uiso   1.00
H759   H     0.61295   0.52445   0.02968   0.00000  Uiso   1.00
H760   H     0.63269   0.51198   0.12004   0.00000  Uiso   1.00
H761   H     0.58297   0.52848   0.10353   0.00000  Uiso   1.00
H762   H     0.56579   0.59475   0.25140   0.00000  Uiso   1.00
H763   H     0.58756   0.54287   0.22963   0.00000  Uiso   1.00
H764   H     0.58470   0.55486   0.29151   0.00000  Uiso   1.00
H765   H     0.74826   0.91988   0.07565   0.00000  Uiso   1.00
H766   H     0.65714   0.56438   0.26360   0.00000  Uiso   1.00
H767   H     0.63690   0.61558   0.28575   0.00000  Uiso   1.00
H768   H     0.76420   0.82763   0.16966   0.00000  Uiso   1.00
H769   H     0.74941   0.88287   0.15430   0.00000  Uiso   1.00
H770   H     0.73152   0.83594   0.11954   0.00000  Uiso   1.00
H771   H     0.79430   0.87144   0.07855   0.00000  Uiso   1.00
H772   H     0.80133   0.81655   0.09570   0.00000  Uiso   1.00
N773   N     0.50000   0.75000   0.28402   0.00000  Uiso   1.00
N774   N     0.73358   0.57886   0.28731   0.00000  Uiso   1.00
N775   N     0.74797   0.58012   0.05422   0.00000  Uiso   1.00
N776   N     0.75671   0.92036   0.27902   0.00000  Uiso   1.00
N777   N     0.50000   0.75000   0.04931   0.00000  Uiso   1.00
N778   N     0.75000   0.50000   0.28402   0.00000  Uiso   1.00
N779   N     0.75000   0.50000   0.04931   0.00000  Uiso   1.00
N780   N     0.98626   0.66963   0.04145   0.00000  Uiso   1.00
N781   N     0.98215   0.82849   0.28760   0.00000  Uiso   1.00
N782   N     0.50219   0.82986   0.05383   0.00000  Uiso   1.00
N783   N     0.50766   0.67063   0.27883   0.00000  Uiso   1.00
N784   N     0.73518   0.92025   0.04305   0.00000  Uiso   1.00
O785   O     0.54509   0.70491   0.20625   0.00000  Uiso   1.00
O786   O     0.70492   0.54509   0.12709   0.00000  Uiso   1.00
O787   O     0.70492   0.54509   0.20625   0.00000  Uiso   1.00
O788   O     0.79509   0.95491   0.12709   0.00000  Uiso   1.00
O789   O     0.70492   0.95491   0.12709   0.00000  Uiso   1.00
O790   O     0.79509   0.54509   0.20625   0.00000  Uiso   1.00
O791   O     0.79509   0.54509   0.12709   0.00000  Uiso   1.00
O792   O     0.70492   0.95491   0.20625   0.00000  Uiso   1.00
O793   O     0.95492   0.79509   0.12709   0.00000  Uiso   1.00
O794   O     0.95492   0.79509   0.20625   0.00000  Uiso   1.00
O795   O     0.54509   0.70491   0.12709   0.00000  Uiso   1.00
O796   O     0.95492   0.70491   0.12709   0.00000  Uiso   1.00
O797   O     0.54509   0.79509   0.20625   0.00000  Uiso   1.00
O798   O     0.54509   0.79509   0.12709   0.00000  Uiso   1.00
O799   O     0.95492   0.70491   0.20625   0.00000  Uiso   1.00
O800   O     0.79509   0.95491   0.20625   0.00000  Uiso   1.00
C801   C     0.05957   0.19009   0.49946   0.00000  Uiso   1.00
C802   C     0.49475   0.28894   0.64367   0.00000  Uiso   1.00
C803   C     0.49891   0.28910   0.36010   0.00000  Uiso   1.00
C804   C     0.00276   0.21117   0.63951   0.00000  Uiso   1.00
C805   C     0.24830   0.46071   0.35583   0.00000  Uiso   1.00
C806   C     0.24514   0.03907   0.64361   0.00000  Uiso   1.00
C807   C     0.24853   0.03924   0.36013   0.00000  Uiso   1.00
C808   C     0.25222   0.46101   0.63969   0.00000  Uiso   1.00
C809   C     0.38504   0.14481   0.45737   0.00000  Uiso   1.00
C810   C     0.11062   0.36156   0.54273   0.00000  Uiso   1.00
C811   C     0.11794   0.34986   0.45815   0.00000  Uiso   1.00
C812   C     0.43838   0.30703   0.50019   0.00000  Uiso   1.00
C813   C     0.38270   0.15170   0.54158   0.00000  Uiso   1.00
C814   C     0.12091   0.15210   0.53638   0.00000  Uiso   1.00
C815   C     0.37442   0.34181   0.46076   0.00000  Uiso   1.00
C816   C     0.38933   0.35922   0.54231   0.00000  Uiso   1.00
C817   C     0.08974   0.11657   0.46616   0.00000  Uiso   1.00
C818   C     0.13823   0.39158   0.45612   0.00000  Uiso   1.00
C819   C     0.36130   0.11057   0.54320   0.00000  Uiso   1.00
C820   C     0.36501   0.10309   0.45807   0.00000  Uiso   1.00
C821   C     0.13157   0.40282   0.54010   0.00000  Uiso   1.00
C822   C     0.36852   0.39986   0.53788   0.00000  Uiso   1.00
C823   C     0.43791   0.19373   0.49966   0.00000  Uiso   1.00
C824   C     0.12049   0.08259   0.46750   0.00000  Uiso   1.00
C825   C     0.14219   0.11218   0.54306   0.00000  Uiso   1.00
C826   C     0.33742   0.36664   0.46802   0.00000  Uiso   1.00
C827   C     0.09879   0.33805   0.50083   0.00000  Uiso   1.00
C828   C     0.40092   0.16371   0.49924   0.00000  Uiso   1.00
C829   C     0.40057   0.33579   0.50056   0.00000  Uiso   1.00
C830   C     0.09160   0.15373   0.49909   0.00000  Uiso   1.00
C831   C     0.34798   0.08887   0.50084   0.00000  Uiso   1.00
C832   C     0.15101   0.41354   0.49804   0.00000  Uiso   1.00
C833   C     0.15038   0.08463   0.50345   0.00000  Uiso   1.00
C834   C     0.06202   0.30688   0.50037   0.00000  Uiso   1.00
C835   C     0.33933   0.40295   0.50077   0.00000  Uiso   1.00
C836   C     0.37957   0.17305   0.41500   0.00000  Uiso   1.00
C837   C     0.35716   0.21697   0.42731   0.00000  Uiso   1.00
C838   C     0.11385   0.33744   0.58815   0.00000  Uiso   1.00
C839   C     0.08493   0.35530   0.62696   0.00000  Uiso   1.00
C840   C     0.11968   0.31806   0.41516   0.00000  Uiso   1.00
C841   C     0.13767   0.27246   0.42574   0.00000  Uiso   1.00
C842   C     0.37045   0.18925   0.57619   0.00000  Uiso   1.00
C843   C     0.39665   0.19254   0.62064   0.00000  Uiso   1.00
C844   C     0.13196   0.19177   0.56878   0.00000  Uiso   1.00
C845   C     0.30904   0.43999   0.49980   0.00000  Uiso   1.00
C846   C     0.15243   0.22911   0.54212   0.00000  Uiso   1.00
C847   C     0.38556   0.33034   0.40986   0.00000  Uiso   1.00
C848   C     0.39530   0.37328   0.38485   0.00000  Uiso   1.00
C849   C     0.37959   0.33444   0.58618   0.00000  Uiso   1.00
C850   C     0.33674   0.31094   0.58219   0.00000  Uiso   1.00
C851   C     0.05476   0.11199   0.43087   0.00000  Uiso   1.00
C852   C     0.01306   0.09908   0.45414   0.00000  Uiso   1.00
C853   C     0.13240   0.41810   0.41234   0.00000  Uiso   1.00
C854   C     0.08584   0.42979   0.40692   0.00000  Uiso   1.00
C855   C     0.36536   0.08462   0.58734   0.00000  Uiso   1.00
C856   C     0.18858   0.05693   0.50091   0.00000  Uiso   1.00
C857   C     0.33748   0.10129   0.62759   0.00000  Uiso   1.00
C858   C     0.36784   0.07255   0.41433   0.00000  Uiso   1.00
C859   C     0.38820   0.02774   0.42374   0.00000  Uiso   1.00
C860   C     0.11923   0.44114   0.57375   0.00000  Uiso   1.00
C861   C     0.14587   0.44588   0.61782   0.00000  Uiso   1.00
C862   C     0.38053   0.43828   0.57127   0.00000  Uiso   1.00
C863   C     0.40356   0.47471   0.54555   0.00000  Uiso   1.00
C864   C     0.11634   0.03991   0.43731   0.00000  Uiso   1.00
C865   C     0.13255   0.04506   0.38754   0.00000  Uiso   1.00
C866   C     0.13442   0.09077   0.58958   0.00000  Uiso   1.00
C867   C     0.18771   0.44397   0.49944   0.00000  Uiso   1.00
C868   C     0.09043   0.06955   0.59060   0.00000  Uiso   1.00
C869   C     0.29780   0.35146   0.44258   0.00000  Uiso   1.00
C870   C     0.25851   0.34965   0.47356   0.00000  Uiso   1.00
C871   C     0.31187   0.05703   0.50037   0.00000  Uiso   1.00
C872   C     0.49875   0.21073   0.35543   0.00000  Uiso   1.00
Cu873  Cu    0.00000   0.25000   0.54689   0.00000  Uiso   1.00
Cu874  Cu    0.00000   0.25000   0.45311   0.00000  Uiso   1.00
Cu875  Cu    0.25000  -0.00000   0.54689   0.00000  Uiso   1.00
Cu876  Cu    0.25000  -0.00000   0.45311   0.00000  Uiso   1.00
H877   H     0.49517   0.17062   0.40894   0.00000  Uiso   1.00
H878   H     0.24824   0.39263   0.35871   0.00000  Uiso   1.00
H879   H     0.25602   0.08576   0.59565   0.00000  Uiso   1.00
H880   H     0.23196   0.10696   0.64297   0.00000  Uiso   1.00
H881   H     0.21871   0.09547   0.38380   0.00000  Uiso   1.00
H882   H     0.27175   0.10120   0.37583   0.00000  Uiso   1.00
H883   H     0.23075   0.39957   0.61737   0.00000  Uiso   1.00
H884   H     0.28403   0.40434   0.62304   0.00000  Uiso   1.00
H885   H     0.32692   0.21051   0.44557   0.00000  Uiso   1.00
H886   H     0.37715   0.23919   0.44981   0.00000  Uiso   1.00
H887   H     0.35007   0.23430   0.39492   0.00000  Uiso   1.00
H888   H     0.00332   0.14326   0.35952   0.00000  Uiso   1.00
H889   H     0.40991   0.17936   0.39750   0.00000  Uiso   1.00
H890   H     0.35897   0.15572   0.38906   0.00000  Uiso   1.00
H891   H     0.10270   0.37636   0.65243   0.00000  Uiso   1.00
H892   H     0.05884   0.37532   0.61353   0.00000  Uiso   1.00
H893   H     0.07221   0.32692   0.64608   0.00000  Uiso   1.00
H894   H     0.10798   0.30128   0.58270   0.00000  Uiso   1.00
H895   H     0.14706   0.33934   0.60049   0.00000  Uiso   1.00
H896   H     0.16710   0.27629   0.44646   0.00000  Uiso   1.00
H897   H     0.11443   0.25238   0.44464   0.00000  Uiso   1.00
H898   H     0.14517   0.25382   0.39263   0.00000  Uiso   1.00
H899   H     0.00407   0.33558   0.59543   0.00000  Uiso   1.00
H900   H     0.08861   0.31441   0.39805   0.00000  Uiso   1.00
H901   H     0.14115   0.33090   0.38838   0.00000  Uiso   1.00
H902   H     0.37588   0.20174   0.65057   0.00000  Uiso   1.00
H903   H     0.41261   0.16086   0.62759   0.00000  Uiso   1.00
H904   H     0.42036   0.21952   0.61832   0.00000  Uiso   1.00
H905   H     0.37256   0.22179   0.55924   0.00000  Uiso   1.00
H906   H     0.33653   0.18604   0.58528   0.00000  Uiso   1.00
H907   H     0.17728   0.21570   0.51816   0.00000  Uiso   1.00
H908   H     0.12831   0.24640   0.52202   0.00000  Uiso   1.00
H909   H     0.16737   0.25370   0.56689   0.00000  Uiso   1.00
H910   H     0.48060   0.35654   0.64335   0.00000  Uiso   1.00
H911   H     0.10435   0.20411   0.58907   0.00000  Uiso   1.00
H912   H     0.15564   0.18215   0.59491   0.00000  Uiso   1.00
H913   H     0.36585   0.39198   0.37855   0.00000  Uiso   1.00
H914   H     0.41708   0.39507   0.40585   0.00000  Uiso   1.00
H915   H     0.41055   0.36517   0.35096   0.00000  Uiso   1.00
H916   H     0.41133   0.30675   0.40361   0.00000  Uiso   1.00
H917   H     0.35917   0.31332   0.39128   0.00000  Uiso   1.00
H918   H     0.31108   0.33580   0.58000   0.00000  Uiso   1.00
H919   H     0.33560   0.28846   0.55062   0.00000  Uiso   1.00
H920   H     0.33120   0.29097   0.61332   0.00000  Uiso   1.00
H921   H     0.47388   0.34688   0.38570   0.00000  Uiso   1.00
H922   H     0.40354   0.30954   0.59454   0.00000  Uiso   1.00
H923   H     0.37791   0.35820   0.61646   0.00000  Uiso   1.00
H924   H     0.01712   0.06779   0.47294   0.00000  Uiso   1.00
H925   H     0.00219   0.12548   0.47931   0.00000  Uiso   1.00
H926   H     0.48820   0.09308   0.42747   0.00000  Uiso   1.00
H927   H     0.05480   0.14261   0.41152   0.00000  Uiso   1.00
H928   H     0.06043   0.08696   0.40245   0.00000  Uiso   1.00
H929   H     0.06671   0.39923   0.40263   0.00000  Uiso   1.00
H930   H     0.07440   0.44873   0.43838   0.00000  Uiso   1.00
H931   H     0.08098   0.45022   0.37620   0.00000  Uiso   1.00
H932   H     0.02530   0.34932   0.37203   0.00000  Uiso   1.00
H933   H     0.14933   0.45005   0.41280   0.00000  Uiso   1.00
H934   H     0.14446   0.40024   0.38082   0.00000  Uiso   1.00
H935   H     0.35658   0.12020   0.65352   0.00000  Uiso   1.00
H936   H     0.31193   0.12314   0.61608   0.00000  Uiso   1.00
H937   H     0.32397   0.07249   0.64544   0.00000  Uiso   1.00
H938   H     0.35907   0.04871   0.58058   0.00000  Uiso   1.00
H939   H     0.39888   0.08578   0.59872   0.00000  Uiso   1.00
H940   H     0.41854   0.03294   0.44253   0.00000  Uiso   1.00
H941   H     0.36700   0.00673   0.44437   0.00000  Uiso   1.00
H942   H     0.39463   0.00939   0.39019   0.00000  Uiso   1.00
H943   H     0.48229   0.14919   0.61781   0.00000  Uiso   1.00
H944   H     0.33674   0.06754   0.39758   0.00000  Uiso   1.00
H945   H     0.38844   0.08776   0.38791   0.00000  Uiso   1.00
H946   H     0.12554   0.45646   0.64749   0.00000  Uiso   1.00
H947   H     0.16148   0.41433   0.62603   0.00000  Uiso   1.00
H948   H     0.16975   0.47254   0.61442   0.00000  Uiso   1.00
H949   H     0.12082   0.47317   0.55574   0.00000  Uiso   1.00
H950   H     0.08545   0.43782   0.58335   0.00000  Uiso   1.00
H951   H     0.42966   0.46024   0.52403   0.00000  Uiso   1.00
H952   H     0.38142   0.49207   0.52280   0.00000  Uiso   1.00
H953   H     0.41737   0.49936   0.57104   0.00000  Uiso   1.00
H954   H     0.03545   0.15548   0.62269   0.00000  Uiso   1.00
H955   H     0.35300   0.45195   0.59075   0.00000  Uiso   1.00
H956   H     0.40278   0.42679   0.59803   0.00000  Uiso   1.00
H957   H     0.13145   0.08022   0.37696   0.00000  Uiso   1.00
H958   H     0.16535   0.03299   0.38423   0.00000  Uiso   1.00
H959   H     0.11295   0.02445   0.36301   0.00000  Uiso   1.00
H960   H     0.13269   0.01198   0.45338   0.00000  Uiso   1.00
H961   H     0.08297   0.02848   0.43687   0.00000  Uiso   1.00
H962   H     0.06579   0.09475   0.58474   0.00000  Uiso   1.00
H963   H     0.08756   0.04287   0.56296   0.00000  Uiso   1.00
H964   H     0.08470   0.05486   0.62484   0.00000  Uiso   1.00
H965   H     0.24826   0.41988   0.40899   0.00000  Uiso   1.00
H966   H     0.15714   0.06438   0.59693   0.00000  Uiso   1.00
H967   H     0.13690   0.11558   0.61908   0.00000  Uiso   1.00
H968   H     0.26420   0.32763   0.50299   0.00000  Uiso   1.00
H969   H     0.24941   0.38287   0.48763   0.00000  Uiso   1.00
H970   H     0.23152   0.33594   0.45287   0.00000  Uiso   1.00
H971   H     0.29430   0.37144   0.41188   0.00000  Uiso   1.00
H972   H     0.30133   0.31655   0.42903   0.00000  Uiso   1.00
N973   N     0.00000   0.25000   0.61736   0.00000  Uiso   1.00
N974   N     0.23358   0.07886   0.62064   0.00000  Uiso   1.00
N975   N     0.24797   0.08012   0.38756   0.00000  Uiso   1.00
N976   N     0.25671   0.42036   0.61235   0.00000  Uiso   1.00
N977   N     0.00000   0.25000   0.38264   0.00000  Uiso   1.00
N978   N     0.25000  -0.00000   0.61736   0.00000  Uiso   1.00
N979   N     0.25000  -0.00000   0.38264   0.00000  Uiso   1.00
N980   N     0.48626   0.16963   0.37479   0.00000  Uiso   1.00
N981   N     0.48215   0.32849   0.62094   0.00000  Uiso   1.00
N982   N     0.00219   0.32986   0.38717   0.00000  Uiso   1.00
N983   N     0.00766   0.17063   0.61217   0.00000  Uiso   1.00
N984   N     0.23518   0.42025   0.37638   0.00000  Uiso   1.00
O985   O     0.04509   0.20491   0.53958   0.00000  Uiso   1.00
O986   O     0.20492   0.04509   0.46042   0.00000  Uiso   1.00
O987   O     0.20492   0.04509   0.53958   0.00000  Uiso   1.00
O988   O     0.29509   0.45491   0.46042   0.00000  Uiso   1.00
O989   O     0.20492   0.45491   0.46042   0.00000  Uiso   1.00
O990   O     0.29509   0.04509   0.53958   0.00000  Uiso   1.00
O991   O     0.29509   0.04509   0.46042   0.00000  Uiso   1.00
O992   O     0.20492   0.45491   0.53958   0.00000  Uiso   1.00
O993   O     0.45492   0.29509   0.46042   0.00000  Uiso   1.00
O994   O     0.45492   0.29509   0.53958   0.00000  Uiso   1.00
O995   O     0.04509   0.20491   0.46042   0.00000  Uiso   1.00
O996   O     0.45492   0.20491   0.46042   0.00000  Uiso   1.00
O997   O     0.04509   0.29509   0.53958   0.00000  Uiso   1.00
O998   O     0.04509   0.29509   0.46042   0.00000  Uiso   1.00
O999   O     0.45492   0.20491   0.53958   0.00000  Uiso   1.00
O1000  O     0.29509   0.45491   0.53958   0.00000  Uiso   1.00
C1001  C     0.55957   0.19009   0.49946   0.00000  Uiso   1.00
C1002  C     0.99475   0.28894   0.64367   0.00000  Uiso   1.00
C1003  C     0.99891   0.28910   0.36010   0.00000  Uiso   1.00
C1004  C     0.50276   0.21117   0.63951   0.00000  Uiso   1.00
C1005  C     0.74830   0.46071   0.35583   0.00000  Uiso   1.00
C1006  C     0.74514   0.03907   0.64361   0.00000  Uiso   1.00
C1007  C     0.74853   0.03924   0.36013   0.00000  Uiso   1.00
C1008  C     0.75222   0.46101   0.63969   0.00000  Uiso   1.00
C1009  C     0.88504   0.14481   0.45737   0.00000  Uiso   1.00
C1010  C     0.61062   0.36156   0.54273   0.00000  Uiso   1.00
C1011  C     0.61794   0.34986   0.45815   0.00000  Uiso   1.00
C1012  C     0.93838   0.30703   0.50019   0.00000  Uiso   1.00
C1013  C     0.88270   0.15170   0.54158   0.00000  Uiso   1.00
C1014  C     0.62091   0.15210   0.53638   0.00000  Uiso   1.00
C1015  C     0.87442   0.34181   0.46076   0.00000  Uiso   1.00
C1016  C     0.88933   0.35922   0.54231   0.00000  Uiso   1.00
C1017  C     0.58974   0.11657   0.46616   0.00000  Uiso   1.00
C1018  C     0.63823   0.39158   0.45612   0.00000  Uiso   1.00
C1019  C     0.86130   0.11057   0.54320   0.00000  Uiso   1.00
C1020  C     0.86501   0.10309   0.45807   0.00000  Uiso   1.00
C1021  C     0.63157   0.40282   0.54010   0.00000  Uiso   1.00
C1022  C     0.86852   0.39986   0.53788   0.00000  Uiso   1.00
C1023  C     0.93791   0.19373   0.49966   0.00000  Uiso   1.00
C1024  C     0.62049   0.08259   0.46750   0.00000  Uiso   1.00
C1025  C     0.64219   0.11218   0.54306   0.00000  Uiso   1.00
C1026  C     0.83742   0.36664   0.46802   0.00000  Uiso   1.00
C1027  C     0.59879   0.33805   0.50083   0.00000  Uiso   1.00
C1028  C     0.90092   0.16371   0.49924   0.00000  Uiso   1.00
C1029  C     0.90057   0.33579   0.50056   0.00000  Uiso   1.00
C1030  C     0.59160   0.15373   0.49909   0.00000  Uiso   1.00
C1031  C     0.84798   0.08887   0.50084   0.00000  Uiso   1.00
C1032  C     0.65101   0.41354   0.49804   0.00000  Uiso   1.00
C1033  C     0.65038   0.08463   0.50345   0.00000  Uiso   1.00
C1034  C     0.56202   0.30688   0.50037   0.00000  Uiso   1.00
C1035  C     0.83933   0.40295   0.50077   0.00000  Uiso   1.00
C1036  C     0.87957   0.17305   0.41500   0.00000  Uiso   1.00
C1037  C     0.85716   0.21697   0.42731   0.00000  Uiso   1.00
C1038  C     0.61385   0.33744   0.58815   0.00000  Uiso   1.00
C1039  C     0.58493   0.35530   0.62696   0.00000  Uiso   1.00
C1040  C     0.61968   0.31806   0.41516   0.00000  Uiso   1.00
C1041  C     0.63767   0.27246   0.42574   0.00000  Uiso   1.00
C1042  C     0.87045   0.18925   0.57619   0.00000  Uiso   1.00
C1043  C     0.89665   0.19254   0.62064   0.00000  Uiso   1.00
C1044  C     0.63196   0.19177   0.56878   0.00000  Uiso   1.00
C1045  C     0.80904   0.43999   0.49980   0.00000  Uiso   1.00
C1046  C     0.65243   0.22911   0.54212   0.00000  Uiso   1.00
C1047  C     0.88556   0.33034   0.40986   0.00000  Uiso   1.00
C1048  C     0.89530   0.37328   0.38485   0.00000  Uiso   1.00
C1049  C     0.87959   0.33444   0.58618   0.00000  Uiso   1.00
C1050  C     0.83674   0.31094   0.58219   0.00000  Uiso   1.00
C1051  C     0.55476   0.11199   0.43087   0.00000  Uiso   1.00
C1052  C     0.51306   0.09908   0.45414   0.00000  Uiso   1.00
C1053  C     0.63240   0.41810   0.41234   0.00000  Uiso   1.00
C1054  C     0.58584   0.42979   0.40692   0.00000  Uiso   1.00
C1055  C     0.86536   0.08462   0.58734   0.00000  Uiso   1.00
C1056  C     0.68858   0.05693   0.50091   0.00000  Uiso   1.00
C1057  C     0.83748   0.10129   0.62759   0.00000  Uiso   1.00
C1058  C     0.86784   0.07255   0.41433   0.00000  Uiso   1.00
C1059  C     0.88820   0.02774   0.42374   0.00000  Uiso   1.00
C1060  C     0.61923   0.44114   0.57375   0.00000  Uiso   1.00
C1061  C     0.64587   0.44588   0.61782   0.00000  Uiso   1.00
C1062  C     0.88053   0.43828   0.57127   0.00000  Uiso   1.00
C1063  C     0.90356   0.47471   0.54555   0.00000  Uiso   1.00
C1064  C     0.61634   0.03991   0.43731   0.00000  Uiso   1.00
C1065  C     0.63255   0.04506   0.38754   0.00000  Uiso   1.00
C1066  C     0.63442   0.09077   0.58958   0.00000  Uiso   1.00
C1067  C     0.68771   0.44397   0.49944   0.00000  Uiso   1.00
C1068  C     0.59043   0.06955   0.59060   0.00000  Uiso   1.00
C1069  C     0.79780   0.35146   0.44258   0.00000  Uiso   1.00
C1070  C     0.75851   0.34965   0.47356   0.00000  Uiso   1.00
C1071  C     0.81187   0.05703   0.50037   0.00000  Uiso   1.00
C1072  C     0.99875   0.21073   0.35543   0.00000  Uiso   1.00
Cu1073 Cu    0.50000   0.25000   0.54689   0.00000  Uiso   1.00
Cu1074 Cu    0.50000   0.25000   0.45311   0.00000  Uiso   1.00
Cu1075 Cu    0.75000  -0.00000   0.54689   0.00000  Uiso   1.00
Cu1076 Cu    0.75000  -0.00000   0.45311   0.00000  Uiso   1.00
H1077  H     0.99517   0.17062   0.40894   0.00000  Uiso   1.00
H1078  H     0.74824   0.39263   0.35871   0.00000  Uiso   1.00
H1079  H     0.75602   0.08576   0.59565   0.00000  Uiso   1.00
H1080  H     0.73196   0.10696   0.64297   0.00000  Uiso   1.00
H1081  H     0.71871   0.09547   0.38380   0.00000  Uiso   1.00
H1082  H     0.77175   0.10120   0.37583   0.00000  Uiso   1.00
H1083  H     0.73075   0.39957   0.61737   0.00000  Uiso   1.00
H1084  H     0.78403   0.40434   0.62304   0.00000  Uiso   1.00
H1085  H     0.82692   0.21051   0.44557   0.00000  Uiso   1.00
H1086  H     0.87715   0.23919   0.44981   0.00000  Uiso   1.00
H1087  H     0.85007   0.23430   0.39492   0.00000  Uiso   1.00
H1088  H     0.50332   0.14326   0.35952   0.00000  Uiso   1.00
H1089  H     0.90991   0.17936   0.39750   0.00000  Uiso   1.00
H1090  H     0.85897   0.15572   0.38906   0.00000  Uiso   1.00
H1091  H     0.60270   0.37636   0.65243   0.00000  Uiso   1.00
H1092  H     0.55884   0.37532   0.61353   0.00000  Uiso   1.00
H1093  H     0.57221   0.32692   0.64608   0.00000  Uiso   1.00
H1094  H     0.60798   0.30128   0.58270   0.00000  Uiso   1.00
H1095  H     0.64706   0.33934   0.60049   0.00000  Uiso   1.00
H1096  H     0.66710   0.27629   0.44646   0.00000  Uiso   1.00
H1097  H     0.61443   0.25238   0.44464   0.00000  Uiso   1.00
H1098  H     0.64517   0.25382   0.39263   0.00000  Uiso   1.00
H1099  H     0.50407   0.33558   0.59543   0.00000  Uiso   1.00
H1100  H     0.58861   0.31441   0.39805   0.00000  Uiso   1.00
H1101  H     0.64115   0.33090   0.38838   0.00000  Uiso   1.00
H1102  H     0.87588   0.20174   0.65057   0.00000  Uiso   1.00
H1103  H     0.91261   0.16086   0.62759   0.00000  Uiso   1.00
H1104  H     0.92036   0.21952   0.61832   0.00000  Uiso   1.00
H1105  H     0.87256   0.22179   0.55924   0.00000  Uiso   1.00
H1106  H     0.83653   0.18604   0.58528   0.00000  Uiso   1.00
H1107  H     0.67728   0.21570   0.51816   0.00000  Uiso   1.00
H1108  H     0.62831   0.24640   0.52202   0.00000  Uiso   1.00
H1109  H     0.66737   0.25370   0.56689   0.00000  Uiso   1.00
H1110  H     0.98060   0.35654   0.64335   0.00000  Uiso   1.00
H1111  H     0.60435   0.20411   0.58907   0.00000  Uiso   1.00
H1112  H     0.65564   0.18215   0.59491   0.00000  Uiso   1.00
H1113  H     0.86585   0.39198   0.37855   0.00000  Uiso   1.00
H1114  H     0.91708   0.39507   0.40585   0.00000  Uiso   1.00
H1115  H     0.91055   0.36517   0.35096   0.00000  Uiso   1.00
H1116  H     0.91133   0.30675   0.40361   0.00000  Uiso   1.00
H1117  H     0.85917   0.31332   0.39128   0.00000  Uiso   1.00
H1118  H     0.81108   0.33580   0.58000   0.00000  Uiso   1.00
H1119  H     0.83560   0.28846   0.55062   0.00000  Uiso   1.00
H1120  H     0.83120   0.29097   0.61332   0.00000  Uiso   1.00
H1121  H     0.97388   0.34688   0.38570   0.00000  Uiso   1.00
H1122  H     0.90354   0.30954   0.59454   0.00000  Uiso   1.00
H1123  H     0.87791   0.35820   0.61646   0.00000  Uiso   1.00
H1124  H     0.51712   0.06779   0.47294   0.00000  Uiso   1.00
H1125  H     0.50219   0.12548   0.47931   0.00000  Uiso   1.00
H1126  H     0.98820   0.09308   0.42747   0.00000  Uiso   1.00
H1127  H     0.55480   0.14261   0.41152   0.00000  Uiso   1.00
H1128  H     0.56043   0.08696   0.40245   0.00000  Uiso   1.00
H1129  H     0.56671   0.39923   0.40263   0.00000  Uiso   1.00
H1130  H     0.57440   0.44873   0.43838   0.00000  Uiso   1.00
H1131  H     0.58098   0.45022   0.37620   0.00000  Uiso   1.00
H1132  H     0.52530   0.34932   0.37203   0.00000  Uiso   1.00
H1133  H     0.64933   0.45005   0.41280   0.00000  Uiso   1.00
H1134  H     0.64446   0.40024   0.38082   0.00000  Uiso   1.00
H1135  H     0.85658   0.12020   0.65352   0.00000  Uiso   1.00
H1136  H     0.81193   0.12314   0.61608   0.00000  Uiso   1.00
H1137  H     0.82397   0.07249   0.64544   0.00000  Uiso   1.00
H1138  H     0.85907   0.04871   0.58058   0.00000  Uiso   1.00
H1139  H     0.89888   0.08578   0.59872   0.00000  Uiso   1.00
H1140  H     0.91854   0.03294   0.44253   0.00000  Uiso   1.00
H1141  H     0.86700   0.00673   0.44437   0.00000  Uiso   1.00
H1142  H     0.89463   0.00939   0.39019   0.00000  Uiso   1.00
H1143  H     0.98229   0.14919   0.61781   0.00000  Uiso   1.00
H1144  H     0.83674   0.06754   0.39758   0.00000  Uiso   1.00
H1145  H     0.88844   0.08776   0.38791   0.00000  Uiso   1.00
H1146  H     0.62554   0.45646   0.64749   0.00000  Uiso   1.00
H1147  H     0.66148   0.41433   0.62603   0.00000  Uiso   1.00
H1148  H     0.66975   0.47254   0.61442   0.00000  Uiso   1.00
H1149  H     0.62082   0.47317   0.55574   0.00000  Uiso   1.00
H1150  H     0.58545   0.43782   0.58335   0.00000  Uiso   1.00
H1151  H     0.92966   0.46024   0.52403   0.00000  Uiso   1.00
H1152  H     0.88142   0.49207   0.52280   0.00000  Uiso   1.00
H1153  H     0.91737   0.49936   0.57104   0.00000  Uiso   1.00
H1154  H     0.53545   0.15548   0.62269   0.00000  Uiso   1.00
H1155  H     0.85300   0.45195   0.59075   0.00000  Uiso   1.00
H1156  H     0.90278   0.42679   0.59803   0.00000  Uiso   1.00
H1157  H     0.63145   0.08022   0.37696   0.00000  Uiso   1.00
H1158  H     0.66535   0.03299   0.38423   0.00000  Uiso   1.00
H1159  H     0.61295   0.02445   0.36301   0.00000  Uiso   1.00
H1160  H     0.63269   0.01198   0.45338   0.00000  Uiso   1.00
H1161  H     0.58297   0.02848   0.43687   0.00000  Uiso   1.00
H1162  H     0.56579   0.09475   0.58474   0.00000  Uiso   1.00
H1163  H     0.58756   0.04287   0.56296   0.00000  Uiso   1.00
H1164  H     0.58470   0.05486   0.62484   0.00000  Uiso   1.00
H1165  H     0.74826   0.41988   0.40899   0.00000  Uiso   1.00
H1166  H     0.65714   0.06438   0.59693   0.00000  Uiso   1.00
H1167  H     0.63690   0.11558   0.61908   0.00000  Uiso   1.00
H1168  H     0.76420   0.32763   0.50299   0.00000  Uiso   1.00
H1169  H     0.74941   0.38287   0.48763   0.00000  Uiso   1.00
H1170  H     0.73152   0.33594   0.45287   0.00000  Uiso   1.00
H1171  H     0.79430   0.37144   0.41188   0.00000  Uiso   1.00
H1172  H     0.80133   0.31655   0.42903   0.00000  Uiso   1.00
N1173  N     0.50000   0.25000   0.61736   0.00000  Uiso   1.00
N1174  N     0.73358   0.07886   0.62064   0.00000  Uiso   1.00
N1175  N     0.74797   0.08012   0.38756   0.00000  Uiso   1.00
N1176  N     0.75671   0.42036   0.61235   0.00000  Uiso   1.00
N1177  N     0.50000   0.25000   0.38264   0.00000  Uiso   1.00
N1178  N     0.75000  -0.00000   0.61736   0.00000  Uiso   1.00
N1179  N     0.75000  -0.00000   0.38264   0.00000  Uiso   1.00
N1180  N     0.98626   0.16963   0.37479   0.00000  Uiso   1.00
N1181  N     0.98215   0.32849   0.62094   0.00000  Uiso   1.00
N1182  N     0.50219   0.32986   0.38717   0.00000  Uiso   1.00
N1183  N     0.50766   0.17063   0.61217   0.00000  Uiso   1.00
N1184  N     0.73518   0.42025   0.37638   0.00000  Uiso   1.00
O1185  O     0.54509   0.20491   0.53958   0.00000  Uiso   1.00
O1186  O     0.70492   0.04509   0.46042   0.00000  Uiso   1.00
O1187  O     0.70492   0.04509   0.53958   0.00000  Uiso   1.00
O1188  O     0.79509   0.45491   0.46042   0.00000  Uiso   1.00
O1189  O     0.70492   0.45491   0.46042   0.00000  Uiso   1.00
O1190  O     0.79509   0.04509   0.53958   0.00000  Uiso   1.00
O1191  O     0.79509   0.04509   0.46042   0.00000  Uiso   1.00
O1192  O     0.70492   0.45491   0.53958   0.00000  Uiso   1.00
O1193  O     0.95492   0.29509   0.46042   0.00000  Uiso   1.00
O1194  O     0.95492   0.29509   0.53958   0.00000  Uiso   1.00
O1195  O     0.54509   0.20491   0.46042   0.00000  Uiso   1.00
O1196  O     0.95492   0.20491   0.46042   0.00000  Uiso   1.00
O1197  O     0.54509   0.29509   0.53958   0.00000  Uiso   1.00
O1198  O     0.54509   0.29509   0.46042   0.00000  Uiso   1.00
O1199  O     0.95492   0.20491   0.53958   0.00000  Uiso   1.00
O1200  O     0.79509   0.45491   0.53958   0.00000  Uiso   1.00
C1201  C     0.05957   0.69009   0.49946   0.00000  Uiso   1.00
C1202  C     0.49475   0.78894   0.64367   0.00000  Uiso   1.00
C1203  C     0.49891   0.78910   0.36010   0.00000  Uiso   1.00
C1204  C     0.00276   0.71117   0.63951   0.00000  Uiso   1.00
C1205  C     0.24830   0.96071   0.35583   0.00000  Uiso   1.00
C1206  C     0.24514   0.53907   0.64361   0.00000  Uiso   1.00
C1207  C     0.24853   0.53924   0.36013   0.00000  Uiso   1.00
C1208  C     0.25222   0.96101   0.63969   0.00000  Uiso   1.00
C1209  C     0.38504   0.64481   0.45737   0.00000  Uiso   1.00
C1210  C     0.11062   0.86156   0.54273   0.00000  Uiso   1.00
C1211  C     0.11794   0.84986   0.45815   0.00000  Uiso   1.00
C1212  C     0.43838   0.80703   0.50019   0.00000  Uiso   1.00
C1213  C     0.38270   0.65170   0.54158   0.00000  Uiso   1.00
C1214  C     0.12091   0.65210   0.53638   0.00000  Uiso   1.00
C1215  C     0.37442   0.84181   0.46076   0.00000  Uiso   1.00
C1216  C     0.38933   0.85922   0.54231   0.00000  Uiso   1.00
C1217  C     0.08974   0.61657   0.46616   0.00000  Uiso   1.00
C1218  C     0.13823   0.89158   0.45612   0.00000  Uiso   1.00
C1219  C     0.36130   0.61057   0.54320   0.00000  Uiso   1.00
C1220  C     0.36501   0.60309   0.45807   0.00000  Uiso   1.00
C1221  C     0.13157   0.90282   0.54010   0.00000  Uiso   1.00
C1222  C     0.36852   0.89986   0.53788   0.00000  Uiso   1.00
C1223  C     0.43791   0.69373   0.49966   0.00000  Uiso   1.00
C1224  C     0.12049   0.58259   0.46750   0.00000  Uiso   1.00
C1225  C     0.14219   0.61218   0.54306   0.00000  Uiso   1.00
C1226  C     0.33742   0.86664   0.46802   0.00000  Uiso   1.00
C1227  C     0.09879   0.83805   0.50083   0.00000  Uiso   1.00
C1228  C     0.40092   0.66371   0.49924   0.00000  Uiso   1.00
C1229  C     0.40057   0.83579   0.50056   0.00000  Uiso   1.00
C1230  C     0.09160   0.65373   0.49909   0.00000  Uiso   1.00
C1231  C     0.34798   0.58887   0.50084   0.00000  Uiso   1.00
C1232  C     0.15101   0.91354   0.49804   0.00000  Uiso   1.00
C1233  C     0.15038   0.58463   0.50345   0.00000  Uiso   1.00
C1234  C     0.06202   0.80688   0.50037   0.00000  Uiso   1.00
C1235  C     0.33933   0.90295   0.50077   0.00000  Uiso   1.00
C1236  C     0.37957   0.67305   0.41500   0.00000  Uiso   1.00
C1237  C     0.35716   0.71697   0.42731   0.00000  Uiso   1.00
C1238  C     0.11385   0.83744   0.58815   0.00000  Uiso   1.00
C1239  C     0.08493   0.85530   0.62696   0.00000  Uiso   1.00
C1240  C     0.11968   0.81806   0.41516   0.00000  Uiso   1.00
C1241  C     0.13767   0.77246   0.42574   0.00000  Uiso   1.00
C1242  C     0.37045   0.68925   0.57619   0.00000  Uiso   1.00
C1243  C     0.39665   0.69254   0.62064   0.00000  Uiso   1.00
C1244  C     0.13196   0.69177   0.56878   0.00000  Uiso   1.00
C1245  C     0.30904   0.93999   0.49980   0.00000  Uiso   1.00
C1246  C     0.15243   0.72911   0.54212   0.00000  Uiso   1.00
C1247  C     0.38556   0.83034   0.40986   0.00000  Uiso   1.00
C1248  C     0.39530   0.87328   0.38485   0.00000  Uiso   1.00
C1249  C     0.37959   0.83444   0.58618   0.00000  Uiso   1.00
C1250  C     0.33674   0.81094   0.58219   0.00000  Uiso   1.00
C1251  C     0.05476   0.61199   0.43087   0.00000  Uiso   1.00
C1252  C     0.01306   0.59908   0.45414   0.00000  Uiso   1.00
C1253  C     0.13240   0.91810   0.41234   0.00000  Uiso   1.00
C1254  C     0.08584   0.92979   0.40692   0.00000  Uiso   1.00
C1255  C     0.36536   0.58462   0.58734   0.00000  Uiso   1.00
C1256  C     0.18858   0.55693   0.50091   0.00000  Uiso   1.00
C1257  C     0.33748   0.60129   0.62759   0.00000  Uiso   1.00
C1258  C     0.36784   0.57255   0.41433   0.00000  Uiso   1.00
C1259  C     0.38820   0.52774   0.42374   0.00000  Uiso   1.00
C1260  C     0.11923   0.94114   0.57375   0.00000  Uiso   1.00
C1261  C     0.14587   0.94588   0.61782   0.00000  Uiso   1.00
C1262  C     0.38053   0.93828   0.57127   0.00000  Uiso   1.00
C1263  C     0.40356   0.97471   0.54555   0.00000  Uiso   1.00
C1264  C     0.11634   0.53991   0.43731   0.00000  Uiso   1.00
C1265  C     0.13255   0.54506   0.38754   0.00000  Uiso   1.00
C1266  C     0.13442   0.59077   0.58958   0.00000  Uiso   1.00
C1267  C     0.18771   0.94397   0.49944   0.00000  Uiso   1.00
C1268  C     0.09043   0.56955   0.59060   0.00000  Uiso   1.00
C1269  C     0.29780   0.85146   0.44258   0.00000  Uiso   1.00
C1270  C     0.25851   0.84965   0.47356   0.00000  Uiso   1.00
C1271  C     0.31187   0.55703   0.50037   0.00000  Uiso   1.00
C1272  C     0.49875   0.71073   0.35543   0.00000  Uiso   1.00
Cu1273 Cu    0.00000   0.75000   0.54689   0.00000  Uiso   1.00
Cu1274 Cu    0.00000   0.75000   0.45311   0.00000  Uiso   1.00
Cu1275 Cu    0.25000   0.50000   0.54689   0.00000  Uiso   1.00
Cu1276 Cu    0.25000   0.50000   0.45311   0.00000  Uiso   1.00
H1277  H     0.49517   0.67062   0.40894   0.00000  Uiso   1.00
H1278  H     0.24824   0.89263   0.35871   0.00000  Uiso   1.00
H1279  H     0.25602   0.58576   0.59565   0.00000  Uiso   1.00
H1280  H     0.23196   0.60696   0.64297   0.00000  Uiso   1.00
H1281  H     0.21871   0.59547   0.38380   0.00000  Uiso   1.00
H1282  H     0.27175   0.60120   0.37583   0.00000  Uiso   1.00
H1283  H     0.23075   0.89957   0.61737   0.00000  Uiso   1.00
H1284  H     0.28403   0.90434   0.62304   0.00000  Uiso   1.00
H1285  H     0.32692   0.71051   0.44557   0.00000  Uiso   1.00
H1286  H     0.37715   0.73919   0.44981   0.00000  Uiso   1.00
H1287  H     0.35007   0.73430   0.39492   0.00000  Uiso   1.00
H1288  H     0.00332   0.64326   0.35952   0.00000  Uiso   1.00
H1289  H     0.40991   0.67936   0.39750   0.00000  Uiso   1.00
H1290  H     0.35897   0.65572   0.38906   0.00000  Uiso   1.00
H1291  H     0.10270   0.87636   0.65243   0.00000  Uiso   1.00
H1292  H     0.05884   0.87532   0.61353   0.00000  Uiso   1.00
H1293  H     0.07221   0.82692   0.64608   0.00000  Uiso   1.00
H1294  H     0.10798   0.80128   0.58270   0.00000  Uiso   1.00
H1295  H     0.14706   0.83934   0.60049   0.00000  Uiso   1.00
H1296  H     0.16710   0.77629   0.44646   0.00000  Uiso   1.00
H1297  H     0.11443   0.75238   0.44464   0.00000  Uiso   1.00
H1298  H     0.14517   0.75382   0.39263   0.00000  Uiso   1.00
H1299  H     0.00407   0.83558   0.59543   0.00000  Uiso   1.00
H1300  H     0.08861   0.81441   0.39805   0.00000  Uiso   1.00
H1301  H     0.14115   0.83090   0.38838   0.00000  Uiso   1.00
H1302  H     0.37588   0.70174   0.65057   0.00000  Uiso   1.00
H1303  H     0.41261   0.66086   0.62759   0.00000  Uiso   1.00
H1304  H     0.42036   0.71952   0.61832   0.00000  Uiso   1.00
H1305  H     0.37256   0.72179   0.55924   0.00000  Uiso   1.00
H1306  H     0.33653   0.68604   0.58528   0.00000  Uiso   1.00
H1307  H     0.17728   0.71570   0.51816   0.00000  Uiso   1.00
H1308  H     0.12831   0.74640   0.52202   0.00000  Uiso   1.00
H1309  H     0.16737   0.75370   0.56689   0.00000  Uiso   1.00
H1310  H     0.48060   0.85654   0.64335   0.00000  Uiso   1.00
H1311  H     0.10435   0.70411   0.58907   0.00000  Uiso   1.00
H1312  H     0.15564   0.68215   0.59491   0.00000  Uiso   1.00
H1313  H     0.36585   0.89198   0.37855   0.00000  Uiso   1.00
H1314  H     0.41708   0.89507   0.40585   0.00000  Uiso   1.00
H1315  H     0.41055   0.86517   0.35096   0.00000  Uiso   1.00
H1316  H     0.41133   0.80675   0.40361   0.00000  Uiso   1.00
H1317  H     0.35917   0.81332   0.39128   0.00000  Uiso   1.00
H1318  H     0.31108   0.83580   0.58000   0.00000  Uiso   1.00
H1319  H     0.33560   0.78846   0.55062   0.00000  Uiso   1.00
H1320  H     0.33120   0.79097   0.61332   0.00000  Uiso   1.00
H1321  H     0.47388   0.84688   0.38570   0.00000  Uiso   1.00
H1322  H     0.40354   0.80954   0.59454   0.00000  Uiso   1.00
H1323  H     0.37791   0.85820   0.61646   0.00000  Uiso   1.00
H1324  H     0.01712   0.56779   0.47294   0.00000  Uiso   1.00
H1325  H     0.00219   0.62548   0.47931   0.00000  Uiso   1.00
H1326  H     0.48820   0.59308   0.42747   0.00000  Uiso   1.00
H1327  H     0.05480   0.64261   0.41152   0.00000  Uiso   1.00
H1328  H     0.06043   0.58696   0.40245   0.00000  Uiso   1.00
H1329  H     0.06671   0.89923   0.40263   0.00000  Uiso   1.00
H1330  H     0.07440   0.94873   0.43838   0.00000  Uiso   1.00
H1331  H     0.08098   0.95022   0.37620   0.00000  Uiso   1.00
H1332  H     0.02530   0.84932   0.37203   0.00000  Uiso   1.00
H1333  H     0.14933   0.95005   0.41280   0.00000  Uiso   1.00
H1334  H     0.14446   0.90024   0.38082   0.00000  Uiso   1.00
H1335  H     0.35658   0.62020   0.65352   0.00000  Uiso   1.00
H1336  H     0.31193   0.62314   0.61608   0.00000  Uiso   1.00
H1337  H     0.32397   0.57249   0.64544   0.00000  Uiso   1.00
H1338  H     0.35907   0.54871   0.58058   0.00000  Uiso   1.00
H1339  H     0.39888   0.58578   0.59872   0.00000  Uiso   1.00
H1340  H     0.41854   0.53294   0.44253   0.00000  Uiso   1.00
H1341  H     0.36700   0.50673   0.44437   0.00000  Uiso   1.00
H1342  H     0.39463   0.50939   0.39019   0.00000  Uiso   1.00
H1343  H     0.48229   0.64919   0.61781   0.00000  Uiso   1.00
H1344  H     0.33674   0.56754   0.39758   0.00000  Uiso   1.00
H1345  H     0.38844   0.58776   0.38791   0.00000  Uiso   1.00
H1346  H     0.12554   0.95646   0.64749   0.00000  Uiso   1.00
H1347  H     0.16148   0.91433   0.62603   0.00000  Uiso   1.00
H1348  H     0.16975   0.97254   0.61442   0.00000  Uiso   1.00
H1349  H     0.12082   0.97317   0.55574   0.00000  Uiso   1.00
H1350  H     0.08545   0.93782   0.58335   0.00000  Uiso   1.00
H1351  H     0.42966   0.96024   0.52403   0.00000  Uiso   1.00
H1352  H     0.38142   0.99207   0.52280   0.00000  Uiso   1.00
H1353  H     0.41737   0.99936   0.57104   0.00000  Uiso   1.00
H1354  H     0.03545   0.65548   0.62269   0.00000  Uiso   1.00
H1355  H     0.35300   0.95195   0.59075   0.00000  Uiso   1.00
H1356  H     0.40278   0.92679   0.59803   0.00000  Uiso   1.00
H1357  H     0.13145   0.58022   0.37696   0.00000  Uiso   1.00
H1358  H     0.16535   0.53299   0.38423   0.00000  Uiso   1.00
H1359  H     0.11295   0.52445   0.36301   0.00000  Uiso   1.00
H1360  H     0.13269   0.51198   0.45338   0.00000  Uiso   1.00
H1361  H     0.08297   0.52848   0.43687   0.00000  Uiso   1.00
H1362  H     0.06579   0.59475   0.58474   0.00000  Uiso   1.00
H1363  H     0.08756   0.54287   0.56296   0.00000  Uiso   1.00
H1364  H     0.08470   0.55486   0.62484   0.00000  Uiso   1.00
H1365  H     0.24826   0.91988   0.40899   0.00000  Uiso   1.00
H1366  H     0.15714   0.56438   0.59693   0.00000  Uiso   1.00
H1367  H     0.13690   0.61558   0.61908   0.00000  Uiso   1.00
H1368  H     0.26420   0.82763   0.50299   0.00000  Uiso   1.00
H1369  H     0.24941   0.88287   0.48763   0.00000  Uiso   1.00
H1370  H     0.23152   0.83594   0.45287   0.00000  Uiso   1.00
H1371  H     0.29430   0.87144   0.41188   0.00000  Uiso   1.00
H1372  H     0.30133   0.81655   0.42903   0.00000  Uiso   1.00
N1373  N     0.00000   0.75000   0.61736   0.00000  Uiso   1.00
N1374  N     0.23358   0.57886   0.62064   0.00000  Uiso   1.00
N1375  N     0.24797   0.58012   0.38756   0.00000  Uiso   1.00
N1376  N     0.25671   0.92036   0.61235   0.00000  Uiso   1.00
N1377  N     0.00000   0.75000   0.38264   0.00000  Uiso   1.00
N1378  N     0.25000   0.50000   0.61736   0.00000  Uiso   1.00
N1379  N     0.25000   0.50000   0.38264   0.00000  Uiso   1.00
N1380  N     0.48626   0.66963   0.37479   0.00000  Uiso   1.00
N1381  N     0.48215   0.82849   0.62094   0.00000  Uiso   1.00
N1382  N     0.00219   0.82986   0.38717   0.00000  Uiso   1.00
N1383  N     0.00766   0.67063   0.61217   0.00000  Uiso   1.00
N1384  N     0.23518   0.92025   0.37638   0.00000  Uiso   1.00
O1385  O     0.04509   0.70491   0.53958   0.00000  Uiso   1.00
O1386  O     0.20492   0.54509   0.46042   0.00000  Uiso   1.00
O1387  O     0.20492   0.54509   0.53958   0.00000  Uiso   1.00
O1388  O     0.29509   0.95491   0.46042   0.00000  Uiso   1.00
O1389  O     0.20492   0.95491   0.46042   0.00000  Uiso   1.00
O1390  O     0.29509   0.54509   0.53958   0.00000  Uiso   1.00
O1391  O     0.29509   0.54509   0.46042   0.00000  Uiso   1.00
O1392  O     0.20492   0.95491   0.53958   0.00000  Uiso   1.00
O1393  O     0.45492   0.79509   0.46042   0.00000  Uiso   1.00
O1394  O     0.45492   0.79509   0.53958   0.00000  Uiso   1.00
O1395  O     0.04509   0.70491   0.46042   0.00000  Uiso   1.00
O1396  O     0.45492   0.70491   0.46042   0.00000  Uiso   1.00
O1397  O     0.04509   0.79509   0.53958   0.00000  Uiso   1.00
O1398  O     0.04509   0.79509   0.46042   0.00000  Uiso   1.00
O1399  O     0.45492   0.70491   0.53958   0.00000  Uiso   1.00
O1400  O     0.29509   0.95491   0.53958   0.00000  Uiso   1.00
C1401  C     0.55957   0.69009   0.49946   0.00000  Uiso   1.00
C1402  C     0.99475   0.78894   0.64367   0.00000  Uiso   1.00
C1403  C     0.99891   0.78910   0.36010   0.00000  Uiso   1.00
C1404  C     0.50276   0.71117   0.63951   0.00000  Uiso   1.00
C1405  C     0.74830   0.96071   0.35583   0.00000  Uiso   1.00
C1406  C     0.74514   0.53907   0.64361   0.00000  Uiso   1.00
C1407  C     0.74853   0.53924   0.36013   0.00000  Uiso   1.00
C1408  C     0.75222   0.96101   0.63969   0.00000  Uiso   1.00
C1409  C     0.88504   0.64481   0.45737   0.00000  Uiso   1.00
C1410  C     0.61062   0.86156   0.54273   0.00000  Uiso   1.00
C1411  C     0.61794   0.84986   0.45815   0.00000  Uiso   1.00
C1412  C     0.93838   0.80703   0.50019   0.00000  Uiso   1.00
C1413  C     0.88270   0.65170   0.54158   0.00000  Uiso   1.00
C1414  C     0.62091   0.65210   0.53638   0.00000  Uiso   1.00
C1415  C     0.87442   0.84181   0.46076   0.00000  Uiso   1.00
C1416  C     0.88933   0.85922   0.54231   0.00000  Uiso   1.00
C1417  C     0.58974   0.61657   0.46616   0.00000  Uiso   1.00
C1418  C     0.63823   0.89158   0.45612   0.00000  Uiso   1.00
C1419  C     0.86130   0.61057   0.54320   0.00000  Uiso   1.00
C1420  C     0.86501   0.60309   0.45807   0.00000  Uiso   1.00
C1421  C     0.63157   0.90282   0.54010   0.00000  Uiso   1.00
C1422  C     0.86852   0.89986   0.53788   0.00000  Uiso   1.00
C1423  C     0.93791   0.69373   0.49966   0.00000  Uiso   1.00
C1424  C     0.62049   0.58259   0.46750   0.00000  Uiso   1.00
C1425  C     0.64219   0.61218   0.54306   0.00000  Uiso   1.00
C1426  C     0.83742   0.86664   0.46802   0.00000  Uiso   1.00
C1427  C     0.59879   0.83805   0.50083   0.00000  Uiso   1.00
C1428  C     0.90092   0.66371   0.49924   0.00000  Uiso   1.00
C1429  C     0.90057   0.83579   0.50056   0.00000  Uiso   1.00
C1430  C     0.59160   0.65373   0.49909   0.00000  Uiso   1.00
C1431  C     0.84798   0.58887   0.50084   0.00000  Uiso   1.00
C1432  C     0.65101   0.91354   0.49804   0.00000  Uiso   1.00
C1433  C     0.65038   0.58463   0.50345   0.00000  Uiso   1.00
C1434  C     0.56202   0.80688   0.50037   0.00000  Uiso   1.00
C1435  C     0.83933   0.90295   0.50077   0.00000  Uiso   1.00
C1436  C     0.87957   0.67305   0.41500   0.00000  Uiso   1.00
C1437  C     0.85716   0.71697   0.42731   0.00000  Uiso   1.00
C1438  C     0.61385   0.83744   0.58815   0.00000  Uiso   1.00
C1439  C     0.58493   0.85530   0.62696   0.00000  Uiso   1.00
C1440  C     0.61968   0.81806   0.41516   0.00000  Uiso   1.00
C1441  C     0.63767   0.77246   0.42574   0.00000  Uiso   1.00
C1442  C     0.87045   0.68925   0.57619   0.00000  Uiso   1.00
C1443  C     0.89665   0.69254   0.62064   0.00000  Uiso   1.00
C1444  C     0.63196   0.69177   0.56878   0.00000  Uiso   1.00
C1445  C     0.80904   0.93999   0.49980   0.00000  Uiso   1.00
C1446  C     0.65243   0.72911   0.54212   0.00000  Uiso   1.00
C1447  C     0.88556   0.83034   0.40986   0.00000  Uiso   1.00
C1448  C     0.89530   0.87328   0.38485   0.00000  Uiso   1.00
C1449  C     0.87959   0.83444   0.58618   0.00000  Uiso   1.00
C1450  C     0.83674   0.81094   0.58219   0.00000  Uiso   1.00
C1451  C     0.55476   0.61199   0.43087   0.00000  Uiso   1.00
C1452  C     0.51306   0.59908   0.45414   0.00000  Uiso   1.00
C1453  C     0.63240   0.91810   0.41234   0.00000  Uiso   1.00
C1454  C     0.58584   0.92979   0.40692   0.00000  Uiso   1.00
C1455  C     0.86536   0.58462   0.58734   0.00000  Uiso   1.00
C1456  C     0.68858   0.55693   0.50091   0.00000  Uiso   1.00
C1457  C     0.83748   0.60129   0.62759   0.00000  Uiso   1.00
C1458  C     0.86784   0.57255   0.41433   0.00000  Uiso   1.00
C1459  C     0.88820   0.52774   0.42374   0.00000  Uiso   1.00
C1460  C     0.61923   0.94114   0.57375   0.00000  Uiso   1.00
C1461  C     0.64587   0.94588   0.61782   0.00000  Uiso   1.00
C1462  C     0.88053   0.93828   0.57127   0.00000  Uiso   1.00
C1463  C     0.90356   0.97471   0.54555   0.00000  Uiso   1.00
C1464  C     0.61634   0.53991   0.43731   0.00000  Uiso   1.00
C1465  C     0.63255   0.54506   0.38754   0.00000  Uiso   1.00
C1466  C     0.63442   0.59077   0.58958   0.00000  Uiso   1.00
C1467  C     0.68771   0.94397   0.49944   0.00000  Uiso   1.00
C1468  C     0.59043   0.56955   0.59060   0.00000  Uiso   1.00
C1469  C     0.79780   0.85146   0.44258   0.00000  Uiso   1.00
C1470  C     0.75851   0.84965   0.47356   0.00000  Uiso   1.00
C1471  C     0.81187   0.55703   0.50037   0.00000  Uiso   1.00
C1472  C     0.99875   0.71073   0.35543   0.00000  Uiso   1.00
Cu1473 Cu    0.50000   0.75000   0.54689   0.00000  Uiso   1.00
Cu1474 Cu    0.50000   0.75000   0.45311   0.00000  Uiso   1.00
Cu1475 Cu    0.75000   0.50000   0.54689   0.00000  Uiso   1.00
Cu1476 Cu    0.75000   0.50000   0.45311   0.00000  Uiso   1.00
H1477  H     0.99517   0.67062   0.40894   0.00000  Uiso   1.00
H1478  H     0.74824   0.89263   0.35871   0.00000  Uiso   1.00
H1479  H     0.75602   0.58576   0.59565   0.00000  Uiso   1.00
H1480  H     0.73196   0.60696   0.64297   0.00000  Uiso   1.00
H1481  H     0.71871   0.59547   0.38380   0.00000  Uiso   1.00
H1482  H     0.77175   0.60120   0.37583   0.00000  Uiso   1.00
H1483  H     0.73075   0.89957   0.61737   0.00000  Uiso   1.00
H1484  H     0.78403   0.90434   0.62304   0.00000  Uiso   1.00
H1485  H     0.82692   0.71051   0.44557   0.00000  Uiso   1.00
H1486  H     0.87715   0.73919   0.44981   0.00000  Uiso   1.00
H1487  H     0.85007   0.73430   0.39492   0.00000  Uiso   1.00
H1488  H     0.50332   0.64326   0.35952   0.00000  Uiso   1.00
H1489  H     0.90991   0.67936   0.39750   0.00000  Uiso   1.00
H1490  H     0.85897   0.65572   0.38906   0.00000  Uiso   1.00
H1491  H     0.60270   0.87636   0.65243   0.00000  Uiso   1.00
H1492  H     0.55884   0.87532   0.61353   0.00000  Uiso   1.00
H1493  H     0.57221   0.82692   0.64608   0.00000  Uiso   1.00
H1494  H     0.60798   0.80128   0.58270   0.00000  Uiso   1.00
H1495  H     0.64706   0.83934   0.60049   0.00000  Uiso   1.00
H1496  H     0.66710   0.77629   0.44646   0.00000  Uiso   1.00
H1497  H     0.61443   0.75238   0.44464   0.00000  Uiso   1.00
H1498  H     0.64517   0.75382   0.39263   0.00000  Uiso   1.00
H1499  H     0.50407   0.83558   0.59543   0.00000  Uiso   1.00
H1500  H     0.58861   0.81441   0.39805   0.00000  Uiso   1.00
H1501  H     0.64115   0.83090   0.38838   0.00000  Uiso   1.00
H1502  H     0.87588   0.70174   0.65057   0.00000  Uiso   1.00
H1503  H     0.91261   0.66086   0.62759   0.00000  Uiso   1.00
H1504  H     0.92036   0.71952   0.61832   0.00000  Uiso   1.00
H1505  H     0.87256   0.72179   0.55924   0.00000  Uiso   1.00
H1506  H     0.83653   0.68604   0.58528   0.00000  Uiso   1.00
H1507  H     0.67728   0.71570   0.51816   0.00000  Uiso   1.00
H1508  H     0.62831   0.74640   0.52202   0.00000  Uiso   1.00
H1509  H     0.66737   0.75370   0.56689   0.00000  Uiso   1.00
H1510  H     0.98060   0.85654   0.64335   0.00000  Uiso   1.00
H1511  H     0.60435   0.70411   0.58907   0.00000  Uiso   1.00
H1512  H     0.65564   0.68215   0.59491   0.00000  Uiso   1.00
H1513  H     0.86585   0.89198   0.37855   0.00000  Uiso   1.00
H1514  H     0.91708   0.89507   0.40585   0.00000  Uiso   1.00
H1515  H     0.91055   0.86517   0.35096   0.00000  Uiso   1.00
H1516  H     0.91133   0.80675   0.40361   0.00000  Uiso   1.00
H1517  H     0.85917   0.81332   0.39128   0.00000  Uiso   1.00
H1518  H     0.81108   0.83580   0.58000   0.00000  Uiso   1.00
H1519  H     0.83560   0.78846   0.55062   0.00000  Uiso   1.00
H1520  H     0.83120   0.79097   0.61332   0.00000  Uiso   1.00
H1521  H     0.97388   0.84688   0.38570   0.00000  Uiso   1.00
H1522  H     0.90354   0.80954   0.59454   0.00000  Uiso   1.00
H1523  H     0.87791   0.85820   0.61646   0.00000  Uiso   1.00
H1524  H     0.51712   0.56779   0.47294   0.00000  Uiso   1.00
H1525  H     0.50219   0.62548   0.47931   0.00000  Uiso   1.00
H1526  H     0.98820   0.59308   0.42747   0.00000  Uiso   1.00
H1527  H     0.55480   0.64261   0.41152   0.00000  Uiso   1.00
H1528  H     0.56043   0.58696   0.40245   0.00000  Uiso   1.00
H1529  H     0.56671   0.89923   0.40263   0.00000  Uiso   1.00
H1530  H     0.57440   0.94873   0.43838   0.00000  Uiso   1.00
H1531  H     0.58098   0.95022   0.37620   0.00000  Uiso   1.00
H1532  H     0.52530   0.84932   0.37203   0.00000  Uiso   1.00
H1533  H     0.64933   0.95005   0.41280   0.00000  Uiso   1.00
H1534  H     0.64446   0.90024   0.38082   0.00000  Uiso   1.00
H1535  H     0.85658   0.62020   0.65352   0.00000  Uiso   1.00
H1536  H     0.81193   0.62314   0.61608   0.00000  Uiso   1.00
H1537  H     0.82397   0.57249   0.64544   0.00000  Uiso   1.00
H1538  H     0.85907   0.54871   0.58058   0.00000  Uiso   1.00
H1539  H     0.89888   0.58578   0.59872   0.00000  Uiso   1.00
H1540  H     0.91854   0.53294   0.44253   0.00000  Uiso   1.00
H1541  H     0.86700   0.50673   0.44437   0.00000  Uiso   1.00
H1542  H     0.89463   0.50939   0.39019   0.00000  Uiso   1.00
H1543  H     0.98229   0.64919   0.61781   0.00000  Uiso   1.00
H1544  H     0.83674   0.56754   0.39758   0.00000  Uiso   1.00
H1545  H     0.88844   0.58776   0.38791   0.00000  Uiso   1.00
H1546  H     0.62554   0.95646   0.64749   0.00000  Uiso   1.00
H1547  H     0.66148   0.91433   0.62603   0.00000  Uiso   1.00
H1548  H     0.66975   0.97254   0.61442   0.00000  Uiso   1.00
H1549  H     0.62082   0.97317   0.55574   0.00000  Uiso   1.00
H1550  H     0.58545   0.93782   0.58335   0.00000  Uiso   1.00
H1551  H     0.92966   0.96024   0.52403   0.00000  Uiso   1.00
H1552  H     0.88142   0.99207   0.52280   0.00000  Uiso   1.00
H1553  H     0.91737   0.99936   0.57104   0.00000  Uiso   1.00
H1554  H     0.53545   0.65548   0.62269   0.00000  Uiso   1.00
H1555  H     0.85300   0.95195   0.59075   0.00000  Uiso   1.00
H1556  H     0.90278   0.92679   0.59803   0.00000  Uiso   1.00
H1557  H     0.63145   0.58022   0.37696   0.00000  Uiso   1.00
H1558  H     0.66535   0.53299   0.38423   0.00000  Uiso   1.00
H1559  H     0.61295   0.52445   0.36301   0.00000  Uiso   1.00
H1560  H     0.63269   0.51198   0.45338   0.00000  Uiso   1.00
H1561  H     0.58297   0.52848   0.43687   0.00000  Uiso   1.00
H1562  H     0.56579   0.59475   0.58474   0.00000  Uiso   1.00
H1563  H     0.58756   0.54287   0.56296   0.00000  Uiso   1.00
H1564  H     0.58470   0.55486   0.62484   0.00000  Uiso   1.00
H1565  H     0.74826   0.91988   0.40899   0.00000  Uiso   1.00
H1566  H     0.65714   0.56438   0.59693   0.00000  Uiso   1.00
H1567  H     0.63690   0.61558   0.61908   0.00000  Uiso   1.00
H1568  H     0.76420   0.82763   0.50299   0.00000  Uiso   1.00
H1569  H     0.74941   0.88287   0.48763   0.00000  Uiso   1.00
H1570  H     0.73152   0.83594   0.45287   0.00000  Uiso   1.00
H1571  H     0.79430   0.87144   0.41188   0.00000  Uiso   1.00
H1572  H     0.80133   0.81655   0.42903   0.00000  Uiso   1.00
N1573  N     0.50000   0.75000   0.61736   0.00000  Uiso   1.00
N1574  N     0.73358   0.57886   0.62064   0.00000  Uiso   1.00
N1575  N     0.74797   0.58012   0.38756   0.00000  Uiso   1.00
N1576  N     0.75671   0.92036   0.61235   0.00000  Uiso   1.00
N1577  N     0.50000   0.75000   0.38264   0.00000  Uiso   1.00
N1578  N     0.75000   0.50000   0.61736   0.00000  Uiso   1.00
N1579  N     0.75000   0.50000   0.38264   0.00000  Uiso   1.00
N1580  N     0.98626   0.66963   0.37479   0.00000  Uiso   1.00
N1581  N     0.98215   0.82849   0.62094   0.00000  Uiso   1.00
N1582  N     0.50219   0.82986   0.38717   0.00000  Uiso   1.00
N1583  N     0.50766   0.67063   0.61217   0.00000  Uiso   1.00
N1584  N     0.73518   0.92025   0.37638   0.00000  Uiso   1.00
O1585  O     0.54509   0.70491   0.53958   0.00000  Uiso   1.00
O1586  O     0.70492   0.54509   0.46042   0.00000  Uiso   1.00
O1587  O     0.70492   0.54509   0.53958   0.00000  Uiso   1.00
O1588  O     0.79509   0.95491   0.46042   0.00000  Uiso   1.00
O1589  O     0.70492   0.95491   0.46042   0.00000  Uiso   1.00
O1590  O     0.79509   0.54509   0.53958   0.00000  Uiso   1.00
O1591  O     0.79509   0.54509   0.46042   0.00000  Uiso   1.00
O1592  O     0.70492   0.95491   0.53958   0.00000  Uiso   1.00
O1593  O     0.95492   0.79509   0.46042   0.00000  Uiso   1.00
O1594  O     0.95492   0.79509   0.53958   0.00000  Uiso   1.00
O1595  O     0.54509   0.70491   0.46042   0.00000  Uiso   1.00
O1596  O     0.95492   0.70491   0.46042   0.00000  Uiso   1.00
O1597  O     0.54509   0.79509   0.53958   0.00000  Uiso   1.00
O1598  O     0.54509   0.79509   0.46042   0.00000  Uiso   1.00
O1599  O     0.95492   0.70491   0.53958   0.00000  Uiso   1.00
O1600  O     0.79509   0.95491   0.53958   0.00000  Uiso   1.00
C1601  C     0.05957   0.19009   0.83280   0.00000  Uiso   1.00
C1602  C     0.49475   0.28894   0.97700   0.00000  Uiso   1.00
C1603  C     0.49891   0.28910   0.69343   0.00000  Uiso   1.00
C1604  C     0.00276   0.21117   0.97284   0.00000  Uiso   1.00
C1605  C     0.24830   0.46071   0.68916   0.00000  Uiso   1.00
C1606  C     0.24514   0.03907   0.97694   0.00000  Uiso   1.00
C1607  C     0.24853   0.03924   0.69346   0.00000  Uiso   1.00
C1608  C     0.25222   0.46101   0.97302   0.00000  Uiso   1.00
C1609  C     0.38504   0.14481   0.79070   0.00000  Uiso   1.00
C1610  C     0.11062   0.36156   0.87607   0.00000  Uiso   1.00
C1611  C     0.11794   0.34986   0.79148   0.00000  Uiso   1.00
C1612  C     0.43838   0.30703   0.83353   0.00000  Uiso   1.00
C1613  C     0.38270   0.15170   0.87491   0.00000  Uiso   1.00
C1614  C     0.12091   0.15210   0.86971   0.00000  Uiso   1.00
C1615  C     0.37442   0.34181   0.79409   0.00000  Uiso   1.00
C1616  C     0.38933   0.35922   0.87565   0.00000  Uiso   1.00
C1617  C     0.08974   0.11657   0.79949   0.00000  Uiso   1.00
C1618  C     0.13823   0.39158   0.78945   0.00000  Uiso   1.00
C1619  C     0.36130   0.11057   0.87653   0.00000  Uiso   1.00
C1620  C     0.36501   0.10309   0.79141   0.00000  Uiso   1.00
C1621  C     0.13157   0.40282   0.87344   0.00000  Uiso   1.00
C1622  C     0.36852   0.39986   0.87122   0.00000  Uiso   1.00
C1623  C     0.43791   0.19373   0.83299   0.00000  Uiso   1.00
C1624  C     0.12049   0.08259   0.80084   0.00000  Uiso   1.00
C1625  C     0.14219   0.11218   0.87639   0.00000  Uiso   1.00
C1626  C     0.33742   0.36664   0.80136   0.00000  Uiso   1.00
C1627  C     0.09879   0.33805   0.83416   0.00000  Uiso   1.00
C1628  C     0.40092   0.16371   0.83257   0.00000  Uiso   1.00
C1629  C     0.40057   0.33579   0.83389   0.00000  Uiso   1.00
C1630  C     0.09160   0.15373   0.83243   0.00000  Uiso   1.00
C1631  C     0.34798   0.08887   0.83417   0.00000  Uiso   1.00
C1632  C     0.15101   0.41354   0.83138   0.00000  Uiso   1.00
C1633  C     0.15038   0.08463   0.83678   0.00000  Uiso   1.00
C1634  C     0.06202   0.30688   0.83370   0.00000  Uiso   1.00
C1635  C     0.33933   0.40295   0.83410   0.00000  Uiso   1.00
C1636  C     0.37957   0.17305   0.74833   0.00000  Uiso   1.00
C1637  C     0.35716   0.21697   0.76064   0.00000  Uiso   1.00
C1638  C     0.11385   0.33744   0.92149   0.00000  Uiso   1.00
C1639  C     0.08493   0.35530   0.96029   0.00000  Uiso   1.00
C1640  C     0.11968   0.31806   0.74849   0.00000  Uiso   1.00
C1641  C     0.13767   0.27246   0.75907   0.00000  Uiso   1.00
C1642  C     0.37045   0.18925   0.90952   0.00000  Uiso   1.00
C1643  C     0.39665   0.19254   0.95397   0.00000  Uiso   1.00
C1644  C     0.13196   0.19177   0.90211   0.00000  Uiso   1.00
C1645  C     0.30904   0.43999   0.83313   0.00000  Uiso   1.00
C1646  C     0.15243   0.22911   0.87545   0.00000  Uiso   1.00
C1647  C     0.38556   0.33034   0.74319   0.00000  Uiso   1.00
C1648  C     0.39530   0.37328   0.71818   0.00000  Uiso   1.00
C1649  C     0.37959   0.33444   0.91951   0.00000  Uiso   1.00
C1650  C     0.33674   0.31094   0.91552   0.00000  Uiso   1.00
C1651  C     0.05476   0.11199   0.76420   0.00000  Uiso   1.00
C1652  C     0.01306   0.09908   0.78747   0.00000  Uiso   1.00
C1653  C     0.13240   0.41810   0.74568   0.00000  Uiso   1.00
C1654  C     0.08584   0.42979   0.74025   0.00000  Uiso   1.00
C1655  C     0.36536   0.08462   0.92068   0.00000  Uiso   1.00
C1656  C     0.18858   0.05693   0.83424   0.00000  Uiso   1.00
C1657  C     0.33748   0.10129   0.96092   0.00000  Uiso   1.00
C1658  C     0.36784   0.07255   0.74767   0.00000  Uiso   1.00
C1659  C     0.38820   0.02774   0.75707   0.00000  Uiso   1.00
C1660  C     0.11923   0.44114   0.90709   0.00000  Uiso   1.00
C1661  C     0.14587   0.44588   0.95115   0.00000  Uiso   1.00
C1662  C     0.38053   0.43828   0.90460   0.00000  Uiso   1.00
C1663  C     0.40356   0.47471   0.87888   0.00000  Uiso   1.00
C1664  C     0.11634   0.03991   0.77064   0.00000  Uiso   1.00
C1665  C     0.13255   0.04506   0.72087   0.00000  Uiso   1.00
C1666  C     0.13442   0.09077   0.92292   0.00000  Uiso   1.00
C1667  C     0.18771   0.44397   0.83277   0.00000  Uiso   1.00
C1668  C     0.09043   0.06955   0.92393   0.00000  Uiso   1.00
C1669  C     0.29780   0.35146   0.77591   0.00000  Uiso   1.00
C1670  C     0.25851   0.34965   0.80689   0.00000  Uiso   1.00
C1671  C     0.31187   0.05703   0.83370   0.00000  Uiso   1.00
C1672  C     0.49875   0.21073   0.68876   0.00000  Uiso   1.00
Cu1673 Cu    0.00000   0.25000   0.88022   0.00000  Uiso   1.00
Cu1674 Cu    0.00000   0.25000   0.78645   0.00000  Uiso   1.00
Cu1675 Cu    0.25000  -0.00000   0.88022   0.00000  Uiso   1.00
Cu1676 Cu    0.25000  -0.00000   0.78645   0.00000  Uiso   1.00
H1677  H     0.49517   0.17062   0.74227   0.00000  Uiso   1.00
H1678  H     0.24824   0.39263   0.69204   0.00000  Uiso   1.00
H1679  H     0.25602   0.08576   0.92898   0.00000  Uiso   1.00
H1680  H     0.23196   0.10696   0.97630   0.00000  Uiso   1.00
H1681  H     0.21871   0.09547   0.71713   0.00000  Uiso   1.00
H1682  H     0.27175   0.10120   0.70917   0.00000  Uiso   1.00
H1683  H     0.23075   0.39957   0.95070   0.00000  Uiso   1.00
H1684  H     0.28403   0.40434   0.95638   0.00000  Uiso   1.00
H1685  H     0.32692   0.21051   0.77890   0.00000  Uiso   1.00
H1686  H     0.37715   0.23919   0.78314   0.00000  Uiso   1.00
H1687  H     0.35007   0.23430   0.72825   0.00000  Uiso   1.00
H1688  H     0.00332   0.14326   0.69286   0.00000  Uiso   1.00
H1689  H     0.40991   0.17936   0.73084   0.00000  Uiso   1.00
H1690  H     0.35897   0.15572   0.72240   0.00000  Uiso   1.00
H1691  H     0.10270   0.37636   0.98577   0.00000  Uiso   1.00
H1692  H     0.05884   0.37532   0.94686   0.00000  Uiso   1.00
H1693  H     0.07221   0.32692   0.97941   0.00000  Uiso   1.00
H1694  H     0.10798   0.30128   0.91603   0.00000  Uiso   1.00
H1695  H     0.14706   0.33934   0.93382   0.00000  Uiso   1.00
H1696  H     0.16710   0.27629   0.77979   0.00000  Uiso   1.00
H1697  H     0.11443   0.25238   0.77797   0.00000  Uiso   1.00
H1698  H     0.14517   0.25382   0.72597   0.00000  Uiso   1.00
H1699  H     0.00407   0.33558   0.92876   0.00000  Uiso   1.00
H1700  H     0.08861   0.31441   0.73138   0.00000  Uiso   1.00
H1701  H     0.14115   0.33090   0.72171   0.00000  Uiso   1.00
H1702  H     0.37588   0.20174   0.98391   0.00000  Uiso   1.00
H1703  H     0.41261   0.16086   0.96092   0.00000  Uiso   1.00
H1704  H     0.42036   0.21952   0.95166   0.00000  Uiso   1.00
H1705  H     0.37256   0.22179   0.89258   0.00000  Uiso   1.00
H1706  H     0.33653   0.18604   0.91861   0.00000  Uiso   1.00
H1707  H     0.17728   0.21570   0.85150   0.00000  Uiso   1.00
H1708  H     0.12831   0.24640   0.85535   0.00000  Uiso   1.00
H1709  H     0.16737   0.25370   0.90023   0.00000  Uiso   1.00
H1710  H     0.48060   0.35654   0.97669   0.00000  Uiso   1.00
H1711  H     0.10435   0.20411   0.92240   0.00000  Uiso   1.00
H1712  H     0.15564   0.18215   0.92824   0.00000  Uiso   1.00
H1713  H     0.36585   0.39198   0.71189   0.00000  Uiso   1.00
H1714  H     0.41708   0.39507   0.73918   0.00000  Uiso   1.00
H1715  H     0.41055   0.36517   0.68429   0.00000  Uiso   1.00
H1716  H     0.41133   0.30675   0.73694   0.00000  Uiso   1.00
H1717  H     0.35917   0.31332   0.72461   0.00000  Uiso   1.00
H1718  H     0.31108   0.33580   0.91333   0.00000  Uiso   1.00
H1719  H     0.33560   0.28846   0.88396   0.00000  Uiso   1.00
H1720  H     0.33120   0.29097   0.94666   0.00000  Uiso   1.00
H1721  H     0.47388   0.34688   0.71904   0.00000  Uiso   1.00
H1722  H     0.40354   0.30954   0.92787   0.00000  Uiso   1.00
H1723  H     0.37791   0.35820   0.94979   0.00000  Uiso   1.00
H1724  H     0.01712   0.06779   0.80627   0.00000  Uiso   1.00
H1725  H     0.00219   0.12548   0.81264   0.00000  Uiso   1.00
H1726  H     0.48820   0.09308   0.76080   0.00000  Uiso   1.00
H1727  H     0.05480   0.14261   0.74486   0.00000  Uiso   1.00
H1728  H     0.06043   0.08696   0.73579   0.00000  Uiso   1.00
H1729  H     0.06671   0.39923   0.73596   0.00000  Uiso   1.00
H1730  H     0.07440   0.44873   0.77171   0.00000  Uiso   1.00
H1731  H     0.08098   0.45022   0.70953   0.00000  Uiso   1.00
H1732  H     0.02530   0.34932   0.70537   0.00000  Uiso   1.00
H1733  H     0.14933   0.45005   0.74613   0.00000  Uiso   1.00
H1734  H     0.14446   0.40024   0.71416   0.00000  Uiso   1.00
H1735  H     0.35658   0.12020   0.98686   0.00000  Uiso   1.00
H1736  H     0.31193   0.12314   0.94941   0.00000  Uiso   1.00
H1737  H     0.32397   0.07249   0.97877   0.00000  Uiso   1.00
H1738  H     0.35907   0.04871   0.91391   0.00000  Uiso   1.00
H1739  H     0.39888   0.08578   0.93206   0.00000  Uiso   1.00
H1740  H     0.41854   0.03294   0.77586   0.00000  Uiso   1.00
H1741  H     0.36700   0.00673   0.77770   0.00000  Uiso   1.00
H1742  H     0.39463   0.00939   0.72352   0.00000  Uiso   1.00
H1743  H     0.48229   0.14919   0.95114   0.00000  Uiso   1.00
H1744  H     0.33674   0.06754   0.73091   0.00000  Uiso   1.00
H1745  H     0.38844   0.08776   0.72124   0.00000  Uiso   1.00
H1746  H     0.12554   0.45646   0.98083   0.00000  Uiso   1.00
H1747  H     0.16148   0.41433   0.95936   0.00000  Uiso   1.00
H1748  H     0.16975   0.47254   0.94776   0.00000  Uiso   1.00
H1749  H     0.12082   0.47317   0.88908   0.00000  Uiso   1.00
H1750  H     0.08545   0.43782   0.91669   0.00000  Uiso   1.00
H1751  H     0.42966   0.46024   0.85737   0.00000  Uiso   1.00
H1752  H     0.38142   0.49207   0.85613   0.00000  Uiso   1.00
H1753  H     0.41737   0.49936   0.90437   0.00000  Uiso   1.00
H1754  H     0.03545   0.15548   0.95602   0.00000  Uiso   1.00
H1755  H     0.35300   0.45195   0.92409   0.00000  Uiso   1.00
H1756  H     0.40278   0.42679   0.93136   0.00000  Uiso   1.00
H1757  H     0.13145   0.08022   0.71029   0.00000  Uiso   1.00
H1758  H     0.16535   0.03299   0.71756   0.00000  Uiso   1.00
H1759  H     0.11295   0.02445   0.69635   0.00000  Uiso   1.00
H1760  H     0.13269   0.01198   0.78671   0.00000  Uiso   1.00
H1761  H     0.08297   0.02848   0.77020   0.00000  Uiso   1.00
H1762  H     0.06579   0.09475   0.91807   0.00000  Uiso   1.00
H1763  H     0.08756   0.04287   0.89630   0.00000  Uiso   1.00
H1764  H     0.08470   0.05486   0.95817   0.00000  Uiso   1.00
H1765  H     0.24826   0.41988   0.74232   0.00000  Uiso   1.00
H1766  H     0.15714   0.06438   0.93026   0.00000  Uiso   1.00
H1767  H     0.13690   0.11558   0.95241   0.00000  Uiso   1.00
H1768  H     0.26420   0.32763   0.83633   0.00000  Uiso   1.00
H1769  H     0.24941   0.38287   0.82096   0.00000  Uiso   1.00
H1770  H     0.23152   0.33594   0.78621   0.00000  Uiso   1.00
H1771  H     0.29430   0.37144   0.74521   0.00000  Uiso   1.00
H1772  H     0.30133   0.31655   0.76237   0.00000  Uiso   1.00
N1773  N     0.00000   0.25000   0.95069   0.00000  Uiso   1.00
N1774  N     0.23358   0.07886   0.95398   0.00000  Uiso   1.00
N1775  N     0.24797   0.08012   0.72089   0.00000  Uiso   1.00
N1776  N     0.25671   0.42036   0.94568   0.00000  Uiso   1.00
N1777  N     0.00000   0.25000   0.71598   0.00000  Uiso   1.00
N1778  N     0.25000  -0.00000   0.95069   0.00000  Uiso   1.00
N1779  N     0.25000  -0.00000   0.71598   0.00000  Uiso   1.00
N1780  N     0.48626   0.16963   0.70812   0.00000  Uiso   1.00
N1781  N     0.48215   0.32849   0.95427   0.00000  Uiso   1.00
N1782  N     0.00219   0.32986   0.72050   0.00000  Uiso   1.00
N1783  N     0.00766   0.17063   0.94550   0.00000  Uiso   1.00
N1784  N     0.23518   0.42025   0.70971   0.00000  Uiso   1.00
O1785  O     0.04509   0.20491   0.87291   0.00000  Uiso   1.00
O1786  O     0.20492   0.04509   0.79375   0.00000  Uiso   1.00
O1787  O     0.20492   0.04509   0.87291   0.00000  Uiso   1.00
O1788  O     0.29509   0.45491   0.79375   0.00000  Uiso   1.00
O1789  O     0.20492   0.45491   0.79375   0.00000  Uiso   1.00
O1790  O     0.29509   0.04509   0.87291   0.00000  Uiso   1.00
O1791  O     0.29509   0.04509   0.79375   0.00000  Uiso   1.00
O1792  O     0.20492   0.45491   0.87291   0.00000  Uiso   1.00
O1793  O     0.45492   0.29509   0.79375   0.00000  Uiso   1.00
O1794  O     0.45492   0.29509   0.87291   0.00000  Uiso   1.00
O1795  O     0.04509   0.20491   0.79375   0.00000  Uiso   1.00
O1796  O     0.45492   0.20491   0.79375   0.00000  Uiso   1.00
O1797  O     0.04509   0.29509   0.87291   0.00000  Uiso   1.00
O1798  O     0.04509   0.29509   0.79375   0.00000  Uiso   1.00
O1799  O     0.45492   0.20491   0.87291   0.00000  Uiso   1.00
O1800  O     0.29509   0.45491   0.87291   0.00000  Uiso   1.00
C1801  C     0.55957   0.19009   0.83280   0.00000  Uiso   1.00
C1802  C     0.99475   0.28894   0.97700   0.00000  Uiso   1.00
C1803  C     0.99891   0.28910   0.69343   0.00000  Uiso   1.00
C1804  C     0.50276   0.21117   0.97284   0.00000  Uiso   1.00
C1805  C     0.74830   0.46071   0.68916   0.00000  Uiso   1.00
C1806  C     0.74514   0.03907   0.97694   0.00000  Uiso   1.00
C1807  C     0.74853   0.03924   0.69346   0.00000  Uiso   1.00
C1808  C     0.75222   0.46101   0.97302   0.00000  Uiso   1.00
C1809  C     0.88504   0.14481   0.79070   0.00000  Uiso   1.00
C1810  C     0.61062   0.36156   0.87607   0.00000  Uiso   1.00
C1811  C     0.61794   0.34986   0.79148   0.00000  Uiso   1.00
C1812  C     0.93838   0.30703   0.83353   0.00000  Uiso   1.00
C1813  C     0.88270   0.15170   0.87491   0.00000  Uiso   1.00
C1814  C     0.62091   0.15210   0.86971   0.00000  Uiso   1.00
C1815  C     0.87442   0.34181   0.79409   0.00000  Uiso   1.00
C1816  C     0.88933   0.35922   0.87565   0.00000  Uiso   1.00
C1817  C     0.58974   0.11657   0.79949   0.00000  Uiso   1.00
C1818  C     0.63823   0.39158   0.78945   0.00000  Uiso   1.00
C1819  C     0.86130   0.11057   0.87653   0.00000  Uiso   1.00
C1820  C     0.86501   0.10309   0.79141   0.00000  Uiso   1.00
C1821  C     0.63157   0.40282   0.87344   0.00000  Uiso   1.00
C1822  C     0.86852   0.39986   0.87122   0.00000  Uiso   1.00
C1823  C     0.93791   0.19373   0.83299   0.00000  Uiso   1.00
C1824  C     0.62049   0.08259   0.80084   0.00000  Uiso   1.00
C1825  C     0.64219   0.11218   0.87639   0.00000  Uiso   1.00
C1826  C     0.83742   0.36664   0.80136   0.00000  Uiso   1.00
C1827  C     0.59879   0.33805   0.83416   0.00000  Uiso   1.00
C1828  C     0.90092   0.16371   0.83257   0.00000  Uiso   1.00
C1829  C     0.90057   0.33579   0.83389   0.00000  Uiso   1.00
C1830  C     0.59160   0.15373   0.83243   0.00000  Uiso   1.00
C1831  C     0.84798   0.08887   0.83417   0.00000  Uiso   1.00
C1832  C     0.65101   0.41354   0.83138   0.00000  Uiso   1.00
C1833  C     0.65038   0.08463   0.83678   0.00000  Uiso   1.00
C1834  C     0.56202   0.30688   0.83370   0.00000  Uiso   1.00
C1835  C     0.83933   0.40295   0.83410   0.00000  Uiso   1.00
C1836  C     0.87957   0.17305   0.74833   0.00000  Uiso   1.00
C1837  C     0.85716   0.21697   0.76064   0.00000  Uiso   1.00
C1838  C     0.61385   0.33744   0.92149   0.00000  Uiso   1.00
C1839  C     0.58493   0.35530   0.96029   0.00000  Uiso   1.00
C1840  C     0.61968   0.31806   0.74849   0.00000  Uiso   1.00
C1841  C     0.63767   0.27246   0.75907   0.00000  Uiso   1.00
C1842  C     0.87045   0.18925   0.90952   0.00000  Uiso   1.00
C1843  C     0.89665   0.19254   0.95397   0.00000  Uiso   1.00
C1844  C     0.63196   0.19177   0.90211   0.00000  Uiso   1.00
C1845  C     0.80904   0.43999   0.83313   0.00000  Uiso   1.00
C1846  C     0.65243   0.22911   0.87545   0.00000  Uiso   1.00
C1847  C     0.88556   0.33034   0.74319   0.00000  Uiso   1.00
C1848  C     0.89530   0.37328   0.71818   0.00000  Uiso   1.00
C1849  C     0.87959   0.33444   0.91951   0.00000  Uiso   1.00
C1850  C     0.83674   0.31094   0.91552   0.00000  Uiso   1.00
C1851  C     0.55476   0.11199   0.76420   0.00000  Uiso   1.00
C1852  C     0.51306   0.09908   0.78747   0.00000  Uiso   1.00
C1853  C     0.63240   0.41810   0.74568   0.00000  Uiso   1.00
C1854  C     0.58584   0.42979   0.74025   0.00000  Uiso   1.00
C1855  C     0.86536   0.08462   0.92068   0.00000  Uiso   1.00
C1856  C     0.68858   0.05693   0.83424   0.00000  Uiso   1.00
C1857  C     0.83748   0.10129   0.96092   0.00000  Uiso   1.00
C1858  C     0.86784   0.07255   0.74767   0.00000  Uiso   1.00
C1859  C     0.88820   0.02774   0.75707   0.00000  Uiso   1.00
C1860  C     0.61923   0.44114   0.90709   0.00000  Uiso   1.00
C1861  C     0.64587   0.44588   0.95115   0.00000  Uiso   1.00
C1862  C     0.88053   0.43828   0.90460   0.00000  Uiso   1.00
C1863  C     0.90356   0.47471   0.87888   0.00000  Uiso   1.00
C1864  C     0.61634   0.03991   0.77064   0.00000  Uiso   1.00
C1865  C     0.63255   0.04506   0.72087   0.00000  Uiso   1.00
C1866  C     0.63442   0.09077   0.92292   0.00000  Uiso   1.00
C1867  C     0.68771   0.44397   0.83277   0.00000  Uiso   1.00
C1868  C     0.59043   0.06955   0.92393   0.00000  Uiso   1.00
C1869  C     0.79780   0.35146   0.77591   0.00000  Uiso   1.00
C1870  C     0.75851   0.34965   0.80689   0.00000  Uiso   1.00
C1871  C     0.81187   0.05703   0.83370   0.00000  Uiso   1.00
C1872  C     0.99875   0.21073   0.68876   0.00000  Uiso   1.00
Cu1873 Cu    0.50000   0.25000   0.88022   0.00000  Uiso   1.00
Cu1874 Cu    0.50000   0.25000   0.78645   0.00000  Uiso   1.00
Cu1875 Cu    0.75000  -0.00000   0.88022   0.00000  Uiso   1.00
Cu1876 Cu    0.75000  -0.00000   0.78645   0.00000  Uiso   1.00
H1877  H     0.99517   0.17062   0.74227   0.00000  Uiso   1.00
H1878  H     0.74824   0.39263   0.69204   0.00000  Uiso   1.00
H1879  H     0.75602   0.08576   0.92898   0.00000  Uiso   1.00
H1880  H     0.73196   0.10696   0.97630   0.00000  Uiso   1.00
H1881  H     0.71871   0.09547   0.71713   0.00000  Uiso   1.00
H1882  H     0.77175   0.10120   0.70917   0.00000  Uiso   1.00
H1883  H     0.73075   0.39957   0.95070   0.00000  Uiso   1.00
H1884  H     0.78403   0.40434   0.95638   0.00000  Uiso   1.00
H1885  H     0.82692   0.21051   0.77890   0.00000  Uiso   1.00
H1886  H     0.87715   0.23919   0.78314   0.00000  Uiso   1.00
H1887  H     0.85007   0.23430   0.72825   0.00000  Uiso   1.00
H1888  H     0.50332   0.14326   0.69286   0.00000  Uiso   1.00
H1889  H     0.90991   0.17936   0.73084   0.00000  Uiso   1.00
H1890  H     0.85897   0.15572   0.72240   0.00000  Uiso   1.00
H1891  H     0.60270   0.37636   0.98577   0.00000  Uiso   1.00
H1892  H     0.55884   0.37532   0.94686   0.00000  Uiso   1.00
H1893  H     0.57221   0.32692   0.97941   0.00000  Uiso   1.00
H1894  H     0.60798   0.30128   0.91603   0.00000  Uiso   1.00
H1895  H     0.64706   0.33934   0.93382   0.00000  Uiso   1.00
H1896  H     0.66710   0.27629   0.77979   0.00000  Uiso   1.00
H1897  H     0.61443   0.25238   0.77797   0.00000  Uiso   1.00
H1898  H     0.64517   0.25382   0.72597   0.00000  Uiso   1.00
H1899  H     0.50407   0.33558   0.92876   0.00000  Uiso   1.00
H1900  H     0.58861   0.31441   0.73138   0.00000  Uiso   1.00
H1901  H     0.64115   0.33090   0.72171   0.00000  Uiso   1.00
H1902  H     0.87588   0.20174   0.98391   0.00000  Uiso   1.00
H1903  H     0.91261   0.16086   0.96092   0.00000  Uiso   1.00
H1904  H     0.92036   0.21952   0.95166   0.00000  Uiso   1.00
H1905  H     0.87256   0.22179   0.89258   0.00000  Uiso   1.00
H1906  H     0.83653   0.18604   0.91861   0.00000  Uiso   1.00
H1907  H     0.67728   0.21570   0.85150   0.00000  Uiso   1.00
H1908  H     0.62831   0.24640   0.85535   0.00000  Uiso   1.00
H1909  H     0.66737   0.25370   0.90023   0.00000  Uiso   1.00
H1910  H     0.98060   0.35654   0.97669   0.00000  Uiso   1.00
H1911  H     0.60435   0.20411   0.92240   0.00000  Uiso   1.00
H1912  H     0.65564   0.18215   0.92824   0.00000  Uiso   1.00
H1913  H     0.86585   0.39198   0.71189   0.00000  Uiso   1.00
H1914  H     0.91708   0.39507   0.73918   0.00000  Uiso   1.00
H1915  H     0.91055   0.36517   0.68429   0.00000  Uiso   1.00
H1916  H     0.91133   0.30675   0.73694   0.00000  Uiso   1.00
H1917  H     0.85917   0.31332   0.72461   0.00000  Uiso   1.00
H1918  H     0.81108   0.33580   0.91333   0.00000  Uiso   1.00
H1919  H     0.83560   0.28846   0.88396   0.00000  Uiso   1.00
H1920  H     0.83120   0.29097   0.94666   0.00000  Uiso   1.00
H1921  H     0.97388   0.34688   0.71904   0.00000  Uiso   1.00
H1922  H     0.90354   0.30954   0.92787   0.00000  Uiso   1.00
H1923  H     0.87791   0.35820   0.94979   0.00000  Uiso   1.00
H1924  H     0.51712   0.06779   0.80627   0.00000  Uiso   1.00
H1925  H     0.50219   0.12548   0.81264   0.00000  Uiso   1.00
H1926  H     0.98820   0.09308   0.76080   0.00000  Uiso   1.00
H1927  H     0.55480   0.14261   0.74486   0.00000  Uiso   1.00
H1928  H     0.56043   0.08696   0.73579   0.00000  Uiso   1.00
H1929  H     0.56671   0.39923   0.73596   0.00000  Uiso   1.00
H1930  H     0.57440   0.44873   0.77171   0.00000  Uiso   1.00
H1931  H     0.58098   0.45022   0.70953   0.00000  Uiso   1.00
H1932  H     0.52530   0.34932   0.70537   0.00000  Uiso   1.00
H1933  H     0.64933   0.45005   0.74613   0.00000  Uiso   1.00
H1934  H     0.64446   0.40024   0.71416   0.00000  Uiso   1.00
H1935  H     0.85658   0.12020   0.98686   0.00000  Uiso   1.00
H1936  H     0.81193   0.12314   0.94941   0.00000  Uiso   1.00
H1937  H     0.82397   0.07249   0.97877   0.00000  Uiso   1.00
H1938  H     0.85907   0.04871   0.91391   0.00000  Uiso   1.00
H1939  H     0.89888   0.08578   0.93206   0.00000  Uiso   1.00
H1940  H     0.91854   0.03294   0.77586   0.00000  Uiso   1.00
H1941  H     0.86700   0.00673   0.77770   0.00000  Uiso   1.00
H1942  H     0.89463   0.00939   0.72352   0.00000  Uiso   1.00
H1943  H     0.98229   0.14919   0.95114   0.00000  Uiso   1.00
H1944  H     0.83674   0.06754   0.73091   0.00000  Uiso   1.00
H1945  H     0.88844   0.08776   0.72124   0.00000  Uiso   1.00
H1946  H     0.62554   0.45646   0.98083   0.00000  Uiso   1.00
H1947  H     0.66148   0.41433   0.95936   0.00000  Uiso   1.00
H1948  H     0.66975   0.47254   0.94776   0.00000  Uiso   1.00
H1949  H     0.62082   0.47317   0.88908   0.00000  Uiso   1.00
H1950  H     0.58545   0.43782   0.91669   0.00000  Uiso   1.00
H1951  H     0.92966   0.46024   0.85737   0.00000  Uiso   1.00
H1952  H     0.88142   0.49207   0.85613   0.00000  Uiso   1.00
H1953  H     0.91737   0.49936   0.90437   0.00000  Uiso   1.00
H1954  H     0.53545   0.15548   0.95602   0.00000  Uiso   1.00
H1955  H     0.85300   0.45195   0.92409   0.00000  Uiso   1.00
H1956  H     0.90278   0.42679   0.93136   0.00000  Uiso   1.00
H1957  H     0.63145   0.08022   0.71029   0.00000  Uiso   1.00
H1958  H     0.66535   0.03299   0.71756   0.00000  Uiso   1.00
H1959  H     0.61295   0.02445   0.69635   0.00000  Uiso   1.00
H1960  H     0.63269   0.01198   0.78671   0.00000  Uiso   1.00
H1961  H     0.58297   0.02848   0.77020   0.00000  Uiso   1.00
H1962  H     0.56579   0.09475   0.91807   0.00000  Uiso   1.00
H1963  H     0.58756   0.04287   0.89630   0.00000  Uiso   1.00
H1964  H     0.58470   0.05486   0.95817   0.00000  Uiso   1.00
H1965  H     0.74826   0.41988   0.74232   0.00000  Uiso   1.00
H1966  H     0.65714   0.06438   0.93026   0.00000  Uiso   1.00
H1967  H     0.63690   0.11558   0.95241   0.00000  Uiso   1.00
H1968  H     0.76420   0.32763   0.83633   0.00000  Uiso   1.00
H1969  H     0.74941   0.38287   0.82096   0.00000  Uiso   1.00
H1970  H     0.73152   0.33594   0.78621   0.00000  Uiso   1.00
H1971  H     0.79430   0.37144   0.74521   0.00000  Uiso   1.00
H1972  H     0.80133   0.31655   0.76237   0.00000  Uiso   1.00
N1973  N     0.50000   0.25000   0.95069   0.00000  Uiso   1.00
N1974  N     0.73358   0.07886   0.95398   0.00000  Uiso   1.00
N1975  N     0.74797   0.08012   0.72089   0.00000  Uiso   1.00
N1976  N     0.75671   0.42036   0.94568   0.00000  Uiso   1.00
N1977  N     0.50000   0.25000   0.71598   0.00000  Uiso   1.00
N1978  N     0.75000  -0.00000   0.95069   0.00000  Uiso   1.00
N1979  N     0.75000  -0.00000   0.71598   0.00000  Uiso   1.00
N1980  N     0.98626   0.16963   0.70812   0.00000  Uiso   1.00
N1981  N     0.98215   0.32849   0.95427   0.00000  Uiso   1.00
N1982  N     0.50219   0.32986   0.72050   0.00000  Uiso   1.00
N1983  N     0.50766   0.17063   0.94550   0.00000  Uiso   1.00
N1984  N     0.73518   0.42025   0.70971   0.00000  Uiso   1.00
O1985  O     0.54509   0.20491   0.87291   0.00000  Uiso   1.00
O1986  O     0.70492   0.04509   0.79375   0.00000  Uiso   1.00
O1987  O     0.70492   0.04509   0.87291   0.00000  Uiso   1.00
O1988  O     0.79509   0.45491   0.79375   0.00000  Uiso   1.00
O1989  O     0.70492   0.45491   0.79375   0.00000  Uiso   1.00
O1990  O     0.79509   0.04509   0.87291   0.00000  Uiso   1.00
O1991  O     0.79509   0.04509   0.79375   0.00000  Uiso   1.00
O1992  O     0.70492   0.45491   0.87291   0.00000  Uiso   1.00
O1993  O     0.95492   0.29509   0.79375   0.00000  Uiso   1.00
O1994  O     0.95492   0.29509   0.87291   0.00000  Uiso   1.00
O1995  O     0.54509   0.20491   0.79375   0.00000  Uiso   1.00
O1996  O     0.95492   0.20491   0.79375   0.00000  Uiso   1.00
O1997  O     0.54509   0.29509   0.87291   0.00000  Uiso   1.00
O1998  O     0.54509   0.29509   0.79375   0.00000  Uiso   1.00
O1999  O     0.95492   0.20491   0.87291   0.00000  Uiso   1.00
O2000  O     0.79509   0.45491   0.87291   0.00000  Uiso   1.00
C2001  C     0.05957   0.69009   0.83280   0.00000  Uiso   1.00
C2002  C     0.49475   0.78894   0.97700   0.00000  Uiso   1.00
C2003  C     0.49891   0.78910   0.69343   0.00000  Uiso   1.00
C2004  C     0.00276   0.71117   0.97284   0.00000  Uiso   1.00
C2005  C     0.24830   0.96071   0.68916   0.00000  Uiso   1.00
C2006  C     0.24514   0.53907   0.97694   0.00000  Uiso   1.00
C2007  C     0.24853   0.53924   0.69346   0.00000  Uiso   1.00
C2008  C     0.25222   0.96101   0.97302   0.00000  Uiso   1.00
C2009  C     0.38504   0.64481   0.79070   0.00000  Uiso   1.00
C2010  C     0.11062   0.86156   0.87607   0.00000  Uiso   1.00
C2011  C     0.11794   0.84986   0.79148   0.00000  Uiso   1.00
C2012  C     0.43838   0.80703   0.83353   0.00000  Uiso   1.00
C2013  C     0.38270   0.65170   0.87491   0.00000  Uiso   1.00
C2014  C     0.12091   0.65210   0.86971   0.00000  Uiso   1.00
C2015  C     0.37442   0.84181   0.79409   0.00000  Uiso   1.00
C2016  C     0.38933   0.85922   0.87565   0.00000  Uiso   1.00
C2017  C     0.08974   0.61657   0.79949   0.00000  Uiso   1.00
C2018  C     0.13823   0.89158   0.78945   0.00000  Uiso   1.00
C2019  C     0.36130   0.61057   0.87653   0.00000  Uiso   1.00
C2020  C     0.36501   0.60309   0.79141   0.00000  Uiso   1.00
C2021  C     0.13157   0.90282   0.87344   0.00000  Uiso   1.00
C2022  C     0.36852   0.89986   0.87122   0.00000  Uiso   1.00
C2023  C     0.43791   0.69373   0.83299   0.00000  Uiso   1.00
C2024  C     0.12049   0.58259   0.80084   0.00000  Uiso   1.00
C2025  C     0.14219   0.61218   0.87639   0.00000  Uiso   1.00
C2026  C     0.33742   0.86664   0.80136   0.00000  Uiso   1.00
C2027  C     0.09879   0.83805   0.83416   0.00000  Uiso   1.00
C2028  C     0.40092   0.66371   0.83257   0.00000  Uiso   1.00
C2029  C     0.40057   0.83579   0.83389   0.00000  Uiso   1.00
C2030  C     0.09160   0.65373   0.83243   0.00000  Uiso   1.00
C2031  C     0.34798   0.58887   0.83417   0.00000  Uiso   1.00
C2032  C     0.15101   0.91354   0.83138   0.00000  Uiso   1.00
C2033  C     0.15038   0.58463   0.83678   0.00000  Uiso   1.00
C2034  C     0.06202   0.80688   0.83370   0.00000  Uiso   1.00
C2035  C     0.33933   0.90295   0.83410   0.00000  Uiso   1.00
C2036  C     0.37957   0.67305   0.74833   0.00000  Uiso   1.00
C2037  C     0.35716   0.71697   0.76064   0.00000  Uiso   1.00
C2038  C     0.11385   0.83744   0.92149   0.00000  Uiso   1.00
C2039  C     0.08493   0.85530   0.96029   0.00000  Uiso   1.00
C2040  C     0.11968   0.81806   0.74849   0.00000  Uiso   1.00
C2041  C     0.13767   0.77246   0.75907   0.00000  Uiso   1.00
C2042  C     0.37045   0.68925   0.90952   0.00000  Uiso   1.00
C2043  C     0.39665   0.69254   0.95397   0.00000  Uiso   1.00
C2044  C     0.13196   0.69177   0.90211   0.00000  Uiso   1.00
C2045  C     0.30904   0.93999   0.83313   0.00000  Uiso   1.00
C2046  C     0.15243   0.72911   0.87545   0.00000  Uiso   1.00
C2047  C     0.38556   0.83034   0.74319   0.00000  Uiso   1.00
C2048  C     0.39530   0.87328   0.71818   0.00000  Uiso   1.00
C2049  C     0.37959   0.83444   0.91951   0.00000  Uiso   1.00
C2050  C     0.33674   0.81094   0.91552   0.00000  Uiso   1.00
C2051  C     0.05476   0.61199   0.76420   0.00000  Uiso   1.00
C2052  C     0.01306   0.59908   0.78747   0.00000  Uiso   1.00
C2053  C     0.13240   0.91810   0.74568   0.00000  Uiso   1.00
C2054  C     0.08584   0.92979   0.74025   0.00000  Uiso   1.00
C2055  C     0.36536   0.58462   0.92068   0.00000  Uiso   1.00
C2056  C     0.18858   0.55693   0.83424   0.00000  Uiso   1.00
C2057  C     0.33748   0.60129   0.96092   0.00000  Uiso   1.00
C2058  C     0.36784   0.57255   0.74767   0.00000  Uiso   1.00
C2059  C     0.38820   0.52774   0.75707   0.00000  Uiso   1.00
C2060  C     0.11923   0.94114   0.90709   0.00000  Uiso   1.00
C2061  C     0.14587   0.94588   0.95115   0.00000  Uiso   1.00
C2062  C     0.38053   0.93828   0.90460   0.00000  Uiso   1.00
C2063  C     0.40356   0.97471   0.87888   0.00000  Uiso   1.00
C2064  C     0.11634   0.53991   0.77064   0.00000  Uiso   1.00
C2065  C     0.13255   0.54506   0.72087   0.00000  Uiso   1.00
C2066  C     0.13442   0.59077   0.92292   0.00000  Uiso   1.00
C2067  C     0.18771   0.94397   0.83277   0.00000  Uiso   1.00
C2068  C     0.09043   0.56955   0.92393   0.00000  Uiso   1.00
C2069  C     0.29780   0.85146   0.77591   0.00000  Uiso   1.00
C2070  C     0.25851   0.84965   0.80689   0.00000  Uiso   1.00
C2071  C     0.31187   0.55703   0.83370   0.00000  Uiso   1.00
C2072  C     0.49875   0.71073   0.68876   0.00000  Uiso   1.00
Cu2073 Cu    0.00000   0.75000   0.88022   0.00000  Uiso   1.00
Cu2074 Cu    0.00000   0.75000   0.78645   0.00000  Uiso   1.00
Cu2075 Cu    0.25000   0.50000   0.88022   0.00000  Uiso   1.00
Cu2076 Cu    0.25000   0.50000   0.78645   0.00000  Uiso   1.00
H2077  H     0.49517   0.67062   0.74227   0.00000  Uiso   1.00
H2078  H     0.24824   0.89263   0.69204   0.00000  Uiso   1.00
H2079  H     0.25602   0.58576   0.92898   0.00000  Uiso   1.00
H2080  H     0.23196   0.60696   0.97630   0.00000  Uiso   1.00
H2081  H     0.21871   0.59547   0.71713   0.00000  Uiso   1.00
H2082  H     0.27175   0.60120   0.70917   0.00000  Uiso   1.00
H2083  H     0.23075   0.89957   0.95070   0.00000  Uiso   1.00
H2084  H     0.28403   0.90434   0.95638   0.00000  Uiso   1.00
H2085  H     0.32692   0.71051   0.77890   0.00000  Uiso   1.00
H2086  H     0.37715   0.73919   0.78314   0.00000  Uiso   1.00
H2087  H     0.35007   0.73430   0.72825   0.00000  Uiso   1.00
H2088  H     0.00332   0.64326   0.69286   0.00000  Uiso   1.00
H2089  H     0.40991   0.67936   0.73084   0.00000  Uiso   1.00
H2090  H     0.35897   0.65572   0.72240   0.00000  Uiso   1.00
H2091  H     0.10270   0.87636   0.98577   0.00000  Uiso   1.00
H2092  H     0.05884   0.87532   0.94686   0.00000  Uiso   1.00
H2093  H     0.07221   0.82692   0.97941   0.00000  Uiso   1.00
H2094  H     0.10798   0.80128   0.91603   0.00000  Uiso   1.00
H2095  H     0.14706   0.83934   0.93382   0.00000  Uiso   1.00
H2096  H     0.16710   0.77629   0.77979   0.00000  Uiso   1.00
H2097  H     0.11443   0.75238   0.77797   0.00000  Uiso   1.00
H2098  H     0.14517   0.75382   0.72597   0.00000  Uiso   1.00
H2099  H     0.00407   0.83558   0.92876   0.00000  Uiso   1.00
H2100  H     0.08861   0.81441   0.73138   0.00000  Uiso   1.00
H2101  H     0.14115   0.83090   0.72171   0.00000  Uiso   1.00
H2102  H     0.37588   0.70174   0.98391   0.00000  Uiso   1.00
H2103  H     0.41261   0.66086   0.96092   0.00000  Uiso   1.00
H2104  H     0.42036   0.71952   0.95166   0.00000  Uiso   1.00
H2105  H     0.37256   0.72179   0.89258   0.00000  Uiso   1.00
H2106  H     0.33653   0.68604   0.91861   0.00000  Uiso   1.00
H2107  H     0.17728   0.71570   0.85150   0.00000  Uiso   1.00
H2108  H     0.12831   0.74640   0.85535   0.00000  Uiso   1.00
H2109  H     0.16737   0.75370   0.90023   0.00000  Uiso   1.00
H2110  H     0.48060   0.85654   0.97669   0.00000  Uiso   1.00
H2111  H     0.10435   0.70411   0.92240   0.00000  Uiso   1.00
H2112  H     0.15564   0.68215   0.92824   0.00000  Uiso   1.00
H2113  H     0.36585   0.89198   0.71189   0.00000  Uiso   1.00
H2114  H     0.41708   0.89507   0.73918   0.00000  Uiso   1.00
H2115  H     0.41055   0.86517   0.68429   0.00000  Uiso   1.00
H2116  H     0.41133   0.80675   0.73694   0.00000  Uiso   1.00
H2117  H     0.35917   0.81332   0.72461   0.00000  Uiso   1.00
H2118  H     0.31108   0.83580   0.91333   0.00000  Uiso   1.00
H2119  H     0.33560   0.78846   0.88396   0.00000  Uiso   1.00
H2120  H     0.33120   0.79097   0.94666   0.00000  Uiso   1.00
H2121  H     0.47388   0.84688   0.71904   0.00000  Uiso   1.00
H2122  H     0.40354   0.80954   0.92787   0.00000  Uiso   1.00
H2123  H     0.37791   0.85820   0.94979   0.00000  Uiso   1.00
H2124  H     0.01712   0.56779   0.80627   0.00000  Uiso   1.00
H2125  H     0.00219   0.62548   0.81264   0.00000  Uiso   1.00
H2126  H     0.48820   0.59308   0.76080   0.00000  Uiso   1.00
H2127  H     0.05480   0.64261   0.74486   0.00000  Uiso   1.00
H2128  H     0.06043   0.58696   0.73579   0.00000  Uiso   1.00
H2129  H     0.06671   0.89923   0.73596   0.00000  Uiso   1.00
H2130  H     0.07440   0.94873   0.77171   0.00000  Uiso   1.00
H2131  H     0.08098   0.95022   0.70953   0.00000  Uiso   1.00
H2132  H     0.02530   0.84932   0.70537   0.00000  Uiso   1.00
H2133  H     0.14933   0.95005   0.74613   0.00000  Uiso   1.00
H2134  H     0.14446   0.90024   0.71416   0.00000  Uiso   1.00
H2135  H     0.35658   0.62020   0.98686   0.00000  Uiso   1.00
H2136  H     0.31193   0.62314   0.94941   0.00000  Uiso   1.00
H2137  H     0.32397   0.57249   0.97877   0.00000  Uiso   1.00
H2138  H     0.35907   0.54871   0.91391   0.00000  Uiso   1.00
H2139  H     0.39888   0.58578   0.93206   0.00000  Uiso   1.00
H2140  H     0.41854   0.53294   0.77586   0.00000  Uiso   1.00
H2141  H     0.36700   0.50673   0.77770   0.00000  Uiso   1.00
H2142  H     0.39463   0.50939   0.72352   0.00000  Uiso   1.00
H2143  H     0.48229   0.64919   0.95114   0.00000  Uiso   1.00
H2144  H     0.33674   0.56754   0.73091   0.00000  Uiso   1.00
H2145  H     0.38844   0.58776   0.72124   0.00000  Uiso   1.00
H2146  H     0.12554   0.95646   0.98083   0.00000  Uiso   1.00
H2147  H     0.16148   0.91433   0.95936   0.00000  Uiso   1.00
H2148  H     0.16975   0.97254   0.94776   0.00000  Uiso   1.00
H2149  H     0.12082   0.97317   0.88908   0.00000  Uiso   1.00
H2150  H     0.08545   0.93782   0.91669   0.00000  Uiso   1.00
H2151  H     0.42966   0.96024   0.85737   0.00000  Uiso   1.00
H2152  H     0.38142   0.99207   0.85613   0.00000  Uiso   1.00
H2153  H     0.41737   0.99936   0.90437   0.00000  Uiso   1.00
H2154  H     0.03545   0.65548   0.95602   0.00000  Uiso   1.00
H2155  H     0.35300   0.95195   0.92409   0.00000  Uiso   1.00
H2156  H     0.40278   0.92679   0.93136   0.00000  Uiso   1.00
H2157  H     0.13145   0.58022   0.71029   0.00000  Uiso   1.00
H2158  H     0.16535   0.53299   0.71756   0.00000  Uiso   1.00
H2159  H     0.11295   0.52445   0.69635   0.00000  Uiso   1.00
H2160  H     0.13269   0.51198   0.78671   0.00000  Uiso   1.00
H2161  H     0.08297   0.52848   0.77020   0.00000  Uiso   1.00
H2162  H     0.06579   0.59475   0.91807   0.00000  Uiso   1.00
H2163  H     0.08756   0.54287   0.89630   0.00000  Uiso   1.00
H2164  H     0.08470   0.55486   0.95817   0.00000  Uiso   1.00
H2165  H     0.24826   0.91988   0.74232   0.00000  Uiso   1.00
H2166  H     0.15714   0.56438   0.93026   0.00000  Uiso   1.00
H2167  H     0.13690   0.61558   0.95241   0.00000  Uiso   1.00
H2168  H     0.26420   0.82763   0.83633   0.00000  Uiso   1.00
H2169  H     0.24941   0.88287   0.82096   0.00000  Uiso   1.00
H2170  H     0.23152   0.83594   0.78621   0.00000  Uiso   1.00
H2171  H     0.29430   0.87144   0.74521   0.00000  Uiso   1.00
H2172  H     0.30133   0.81655   0.76237   0.00000  Uiso   1.00
N2173  N     0.00000   0.75000   0.95069   0.00000  Uiso   1.00
N2174  N     0.23358   0.57886   0.95398   0.00000  Uiso   1.00
N2175  N     0.24797   0.58012   0.72089   0.00000  Uiso   1.00
N2176  N     0.25671   0.92036   0.94568   0.00000  Uiso   1.00
N2177  N     0.00000   0.75000   0.71598   0.00000  Uiso   1.00
N2178  N     0.25000   0.50000   0.95069   0.00000  Uiso   1.00
N2179  N     0.25000   0.50000   0.71598   0.00000  Uiso   1.00
N2180  N     0.48626   0.66963   0.70812   0.00000  Uiso   1.00
N2181  N     0.48215   0.82849   0.95427   0.00000  Uiso   1.00
N2182  N     0.00219   0.82986   0.72050   0.00000  Uiso   1.00
N2183  N     0.00766   0.67063   0.94550   0.00000  Uiso   1.00
N2184  N     0.23518   0.92025   0.70971   0.00000  Uiso   1.00
O2185  O     0.04509   0.70491   0.87291   0.00000  Uiso   1.00
O2186  O     0.20492   0.54509   0.79375   0.00000  Uiso   1.00
O2187  O     0.20492   0.54509   0.87291   0.00000  Uiso   1.00
O2188  O     0.29509   0.95491   0.79375   0.00000  Uiso   1.00
O2189  O     0.20492   0.95491   0.79375   0.00000  Uiso   1.00
O2190  O     0.29509   0.54509   0.87291   0.00000  Uiso   1.00
O2191  O     0.29509   0.54509   0.79375   0.00000  Uiso   1.00
O2192  O     0.20492   0.95491   0.87291   0.00000  Uiso   1.00
O2193  O     0.45492   0.79509   0.79375   0.00000  Uiso   1.00
O2194  O     0.45492   0.79509   0.87291   0.00000  Uiso   1.00
O2195  O     0.04509   0.70491   0.79375   0.00000  Uiso   1.00
O2196  O     0.45492   0.70491   0.79375   0.00000  Uiso   1.00
O2197  O     0.04509   0.79509   0.87291   0.00000  Uiso   1.00
O2198  O     0.04509   0.79509   0.79375   0.00000  Uiso   1.00
O2199  O     0.45492   0.70491   0.87291   0.00000  Uiso   1.00
O2200  O     0.29509   0.95491   0.87291   0.00000  Uiso   1.00
C2201  C     0.55957   0.69009   0.83280   0.00000  Uiso   1.00
C2202  C     0.99475   0.78894   0.97700   0.00000  Uiso   1.00
C2203  C     0.99891   0.78910   0.69343   0.00000  Uiso   1.00
C2204  C     0.50276   0.71117   0.97284   0.00000  Uiso   1.00
C2205  C     0.74830   0.96071   0.68916   0.00000  Uiso   1.00
C2206  C     0.74514   0.53907   0.97694   0.00000  Uiso   1.00
C2207  C     0.74853   0.53924   0.69346   0.00000  Uiso   1.00
C2208  C     0.75222   0.96101   0.97302   0.00000  Uiso   1.00
C2209  C     0.88504   0.64481   0.79070   0.00000  Uiso   1.00
C2210  C     0.61062   0.86156   0.87607   0.00000  Uiso   1.00
C2211  C     0.61794   0.84986   0.79148   0.00000  Uiso   1.00
C2212  C     0.93838   0.80703   0.83353   0.00000  Uiso   1.00
C2213  C     0.88270   0.65170   0.87491   0.00000  Uiso   1.00
C2214  C     0.62091   0.65210   0.86971   0.00000  Uiso   1.00
C2215  C     0.87442   0.84181   0.79409   0.00000  Uiso   1.00
C2216  C     0.88933   0.85922   0.87565   0.00000  Uiso   1.00
C2217  C     0.58974   0.61657   0.79949   0.00000  Uiso   1.00
C2218  C     0.63823   0.89158   0.78945   0.00000  Uiso   1.00
C2219  C     0.86130   0.61057   0.87653   0.00000  Uiso   1.00
C2220  C     0.86501   0.60309   0.79141   0.00000  Uiso   1.00
C2221  C     0.63157   0.90282   0.87344   0.00000  Uiso   1.00
C2222  C     0.86852   0.89986   0.87122   0.00000  Uiso   1.00
C2223  C     0.93791   0.69373   0.83299   0.00000  Uiso   1.00
C2224  C     0.62049   0.58259   0.80084   0.00000  Uiso   1.00
C2225  C     0.64219   0.61218   0.87639   0.00000  Uiso   1.00
C2226  C     0.83742   0.86664   0.80136   0.00000  Uiso   1.00
C2227  C     0.59879   0.83805   0.83416   0.00000  Uiso   1.00
C2228  C     0.90092   0.66371   0.83257   0.00000  Uiso   1.00
C2229  C     0.90057   0.83579   0.83389   0.00000  Uiso   1.00
C2230  C     0.59160   0.65373   0.83243   0.00000  Uiso   1.00
C2231  C     0.84798   0.58887   0.83417   0.00000  Uiso   1.00
C2232  C     0.65101   0.91354   0.83138   0.00000  Uiso   1.00
C2233  C     0.65038   0.58463   0.83678   0.00000  Uiso   1.00
C2234  C     0.56202   0.80688   0.83370   0.00000  Uiso   1.00
C2235  C     0.83933   0.90295   0.83410   0.00000  Uiso   1.00
C2236  C     0.87957   0.67305   0.74833   0.00000  Uiso   1.00
C2237  C     0.85716   0.71697   0.76064   0.00000  Uiso   1.00
C2238  C     0.61385   0.83744   0.92149   0.00000  Uiso   1.00
C2239  C     0.58493   0.85530   0.96029   0.00000  Uiso   1.00
C2240  C     0.61968   0.81806   0.74849   0.00000  Uiso   1.00
C2241  C     0.63767   0.77246   0.75907   0.00000  Uiso   1.00
C2242  C     0.87045   0.68925   0.90952   0.00000  Uiso   1.00
C2243  C     0.89665   0.69254   0.95397   0.00000  Uiso   1.00
C2244  C     0.63196   0.69177   0.90211   0.00000  Uiso   1.00
C2245  C     0.80904   0.93999   0.83313   0.00000  Uiso   1.00
C2246  C     0.65243   0.72911   0.87545   0.00000  Uiso   1.00
C2247  C     0.88556   0.83034   0.74319   0.00000  Uiso   1.00
C2248  C     0.89530   0.87328   0.71818   0.00000  Uiso   1.00
C2249  C     0.87959   0.83444   0.91951   0.00000  Uiso   1.00
C2250  C     0.83674   0.81094   0.91552   0.00000  Uiso   1.00
C2251  C     0.55476   0.61199   0.76420   0.00000  Uiso   1.00
C2252  C     0.51306   0.59908   0.78747   0.00000  Uiso   1.00
C2253  C     0.63240   0.91810   0.74568   0.00000  Uiso   1.00
C2254  C     0.58584   0.92979   0.74025   0.00000  Uiso   1.00
C2255  C     0.86536   0.58462   0.92068   0.00000  Uiso   1.00
C2256  C     0.68858   0.55693   0.83424   0.00000  Uiso   1.00
C2257  C     0.83748   0.60129   0.96092   0.00000  Uiso   1.00
C2258  C     0.86784   0.57255   0.74767   0.00000  Uiso   1.00
C2259  C     0.88820   0.52774   0.75707   0.00000  Uiso   1.00
C2260  C     0.61923   0.94114   0.90709   0.00000  Uiso   1.00
C2261  C     0.64587   0.94588   0.95115   0.00000  Uiso   1.00
C2262  C     0.88053   0.93828   0.90460   0.00000  Uiso   1.00
C2263  C     0.90356   0.97471   0.87888   0.00000  Uiso   1.00
C2264  C     0.61634   0.53991   0.77064   0.00000  Uiso   1.00
C2265  C     0.63255   0.54506   0.72087   0.00000  Uiso   1.00
C2266  C     0.63442   0.59077   0.92292   0.00000  Uiso   1.00
C2267  C     0.68771   0.94397   0.83277   0.00000  Uiso   1.00
C2268  C     0.59043   0.56955   0.92393   0.00000  Uiso   1.00
C2269  C     0.79780   0.85146   0.77591   0.00000  Uiso   1.00
C2270  C     0.75851   0.84965   0.80689   0.00000  Uiso   1.00
C2271  C     0.81187   0.55703   0.83370   0.00000  Uiso   1.00
C2272  C     0.99875   0.71073   0.68876   0.00000  Uiso   1.00
Cu2273 Cu    0.50000   0.75000   0.88022   0.00000  Uiso   1.00
Cu2274 Cu    0.50000   0.75000   0.78645   0.00000  Uiso   1.00
Cu2275 Cu    0.75000   0.50000   0.88022   0.00000  Uiso   1.00
Cu2276 Cu    0.75000   0.50000   0.78645   0.00000  Uiso   1.00
H2277  H     0.99517   0.67062   0.74227   0.00000  Uiso   1.00
H2278  H     0.74824   0.89263   0.69204   0.00000  Uiso   1.00
H2279  H     0.75602   0.58576   0.92898   0.00000  Uiso   1.00
H2280  H     0.73196   0.60696   0.97630   0.00000  Uiso   1.00
H2281  H     0.71871   0.59547   0.71713   0.00000  Uiso   1.00
H2282  H     0.77175   0.60120   0.70917   0.00000  Uiso   1.00
H2283  H     0.73075   0.89957   0.95070   0.00000  Uiso   1.00
H2284  H     0.78403   0.90434   0.95638   0.00000  Uiso   1.00
H2285  H     0.82692   0.71051   0.77890   0.00000  Uiso   1.00
H2286  H     0.87715   0.73919   0.78314   0.00000  Uiso   1.00
H2287  H     0.85007   0.73430   0.72825   0.00000  Uiso   1.00
H2288  H     0.50332   0.64326   0.69286   0.00000  Uiso   1.00
H2289  H     0.90991   0.67936   0.73084   0.00000  Uiso   1.00
H2290  H     0.85897   0.65572   0.72240   0.00000  Uiso   1.00
H2291  H     0.60270   0.87636   0.98577   0.00000  Uiso   1.00
H2292  H     0.55884   0.87532   0.94686   0.00000  Uiso   1.00
H2293  H     0.57221   0.82692   0.97941   0.00000  Uiso   1.00
H2294  H     0.60798   0.80128   0.91603   0.00000  Uiso   1.00
H2295  H     0.64706   0.83934   0.93382   0.00000  Uiso   1.00
H2296  H     0.66710   0.77629   0.77979   0.00000  Uiso   1.00
H2297  H     0.61443   0.75238   0.77797   0.00000  Uiso   1.00
H2298  H     0.64517   0.75382   0.72597   0.00000  Uiso   1.00
H2299  H     0.50407   0.83558   0.92876   0.00000  Uiso   1.00
H2300  H     0.58861   0.81441   0.73138   0.00000  Uiso   1.00
H2301  H     0.64115   0.83090   0.72171   0.00000  Uiso   1.00
H2302  H     0.87588   0.70174   0.98391   0.00000  Uiso   1.00
H2303  H     0.91261   0.66086   0.96092   0.00000  Uiso   1.00
H2304  H     0.92036   0.71952   0.95166   0.00000  Uiso   1.00
H2305  H     0.87256   0.72179   0.89258   0.00000  Uiso   1.00
H2306  H     0.83653   0.68604   0.91861   0.00000  Uiso   1.00
H2307  H     0.67728   0.71570   0.85150   0.00000  Uiso   1.00
H2308  H     0.62831   0.74640   0.85535   0.00000  Uiso   1.00
H2309  H     0.66737   0.75370   0.90023   0.00000  Uiso   1.00
H2310  H     0.98060   0.85654   0.97669   0.00000  Uiso   1.00
H2311  H     0.60435   0.70411   0.92240   0.00000  Uiso   1.00
H2312  H     0.65564   0.68215   0.92824   0.00000  Uiso   1.00
H2313  H     0.86585   0.89198   0.71189   0.00000  Uiso   1.00
H2314  H     0.91708   0.89507   0.73918   0.00000  Uiso   1.00
H2315  H     0.91055   0.86517   0.68429   0.00000  Uiso   1.00
H2316  H     0.91133   0.80675   0.73694   0.00000  Uiso   1.00
H2317  H     0.85917   0.81332   0.72461   0.00000  Uiso   1.00
H2318  H     0.81108   0.83580   0.91333   0.00000  Uiso   1.00
H2319  H     0.83560   0.78846   0.88396   0.00000  Uiso   1.00
H2320  H     0.83120   0.79097   0.94666   0.00000  Uiso   1.00
H2321  H     0.97388   0.84688   0.71904   0.00000  Uiso   1.00
H2322  H     0.90354   0.80954   0.92787   0.00000  Uiso   1.00
H2323  H     0.87791   0.85820   0.94979   0.00000  Uiso   1.00
H2324  H     0.51712   0.56779   0.80627   0.00000  Uiso   1.00
H2325  H     0.50219   0.62548   0.81264   0.00000  Uiso   1.00
H2326  H     0.98820   0.59308   0.76080   0.00000  Uiso   1.00
H2327  H     0.55480   0.64261   0.74486   0.00000  Uiso   1.00
H2328  H     0.56043   0.58696   0.73579   0.00000  Uiso   1.00
H2329  H     0.56671   0.89923   0.73596   0.00000  Uiso   1.00
H2330  H     0.57440   0.94873   0.77171   0.00000  Uiso   1.00
H2331  H     0.58098   0.95022   0.70953   0.00000  Uiso   1.00
H2332  H     0.52530   0.84932   0.70537   0.00000  Uiso   1.00
H2333  H     0.64933   0.95005   0.74613   0.00000  Uiso   1.00
H2334  H     0.64446   0.90024   0.71416   0.00000  Uiso   1.00
H2335  H     0.85658   0.62020   0.98686   0.00000  Uiso   1.00
H2336  H     0.81193   0.62314   0.94941   0.00000  Uiso   1.00
H2337  H     0.82397   0.57249   0.97877   0.00000  Uiso   1.00
H2338  H     0.85907   0.54871   0.91391   0.00000  Uiso   1.00
H2339  H     0.89888   0.58578   0.93206   0.00000  Uiso   1.00
H2340  H     0.91854   0.53294   0.77586   0.00000  Uiso   1.00
H2341  H     0.86700   0.50673   0.77770   0.00000  Uiso   1.00
H2342  H     0.89463   0.50939   0.72352   0.00000  Uiso   1.00
H2343  H     0.98229   0.64919   0.95114   0.00000  Uiso   1.00
H2344  H     0.83674   0.56754   0.73091   0.00000  Uiso   1.00
H2345  H     0.88844   0.58776   0.72124   0.00000  Uiso   1.00
H2346  H     0.62554   0.95646   0.98083   0.00000  Uiso   1.00
H2347  H     0.66148   0.91433   0.95936   0.00000  Uiso   1.00
H2348  H     0.66975   0.97254   0.94776   0.00000  Uiso   1.00
H2349  H     0.62082   0.97317   0.88908   0.00000  Uiso   1.00
H2350  H     0.58545   0.93782   0.91669   0.00000  Uiso   1.00
H2351  H     0.92966   0.96024   0.85737   0.00000  Uiso   1.00
H2352  H     0.88142   0.99207   0.85613   0.00000  Uiso   1.00
H2353  H     0.91737   0.99936   0.90437   0.00000  Uiso   1.00
H2354  H     0.53545   0.65548   0.95602   0.00000  Uiso   1.00
H2355  H     0.85300   0.95195   0.92409   0.00000  Uiso   1.00
H2356  H     0.90278   0.92679   0.93136   0.00000  Uiso   1.00
H2357  H     0.63145   0.58022   0.71029   0.00000  Uiso   1.00
H2358  H     0.66535   0.53299   0.71756   0.00000  Uiso   1.00
H2359  H     0.61295   0.52445   0.69635   0.00000  Uiso   1.00
H2360  H     0.63269   0.51198   0.78671   0.00000  Uiso   1.00
H2361  H     0.58297   0.52848   0.77020   0.00000  Uiso   1.00
H2362  H     0.56579   0.59475   0.91807   0.00000  Uiso   1.00
H2363  H     0.58756   0.54287   0.89630   0.00000  Uiso   1.00
H2364  H     0.58470   0.55486   0.95817   0.00000  Uiso   1.00
H2365  H     0.74826   0.91988   0.74232   0.00000  Uiso   1.00
H2366  H     0.65714   0.56438   0.93026   0.00000  Uiso   1.00
H2367  H     0.63690   0.61558   0.95241   0.00000  Uiso   1.00
H2368  H     0.76420   0.82763   0.83633   0.00000  Uiso   1.00
H2369  H     0.74941   0.88287   0.82096   0.00000  Uiso   1.00
H2370  H     0.73152   0.83594   0.78621   0.00000  Uiso   1.00
H2371  H     0.79430   0.87144   0.74521   0.00000  Uiso   1.00
H2372  H     0.80133   0.81655   0.76237   0.00000  Uiso   1.00
N2373  N     0.50000   0.75000   0.95069   0.00000  Uiso   1.00
N2374  N     0.73358   0.57886   0.95398   0.00000  Uiso   1.00
N2375  N     0.74797   0.58012   0.72089   0.00000  Uiso   1.00
N2376  N     0.75671   0.92036   0.94568   0.00000  Uiso   1.00
N2377  N     0.50000   0.75000   0.71598   0.00000  Uiso   1.00
N2378  N     0.75000   0.50000   0.95069   0.00000  Uiso   1.00
N2379  N     0.75000   0.50000   0.71598   0.00000  Uiso   1.00
N2380  N     0.98626   0.66963   0.70812   0.00000  Uiso   1.00
N2381  N     0.98215   0.82849   0.95427   0.00000  Uiso   1.00
N2382  N     0.50219   0.82986   0.72050   0.00000  Uiso   1.00
N2383  N     0.50766   0.67063   0.94550   0.00000  Uiso   1.00
N2384  N     0.73518   0.92025   0.70971   0.00000  Uiso   1.00
O2385  O     0.54509   0.70491   0.87291   0.00000  Uiso   1.00
O2386  O     0.70492   0.54509   0.79375   0.00000  Uiso   1.00
O2387  O     0.70492   0.54509   0.87291   0.00000  Uiso   1.00
O2388  O     0.79509   0.95491   0.79375   0.00000  Uiso   1.00
O2389  O     0.70492   0.95491   0.79375   0.00000  Uiso   1.00
O2390  O     0.79509   0.54509   0.87291   0.00000  Uiso   1.00
O2391  O     0.79509   0.54509   0.79375   0.00000  Uiso   1.00
O2392  O     0.70492   0.95491   0.87291   0.00000  Uiso   1.00
O2393  O     0.95492   0.79509   0.79375   0.00000  Uiso   1.00
O2394  O     0.95492   0.79509   0.87291   0.00000  Uiso   1.00
O2395  O     0.54509   0.70491   0.79375   0.00000  Uiso   1.00
O2396  O     0.95492   0.70491   0.79375   0.00000  Uiso   1.00
O2397  O     0.54509   0.79509   0.87291   0.00000  Uiso   1.00
O2398  O     0.54509   0.79509   0.79375   0.00000  Uiso   1.00
O2399  O     0.95492   0.70491   0.87291   0.00000  Uiso   1.00
O2400  O     0.79509   0.95491   0.87291   0.00000  Uiso   1.00
loop_
_geom_bond_atom_site_label_1
_geom_bond_atom_site_label_2
_geom_bond_distance
_geom_bond_site_symmetry_2
_ccdc_geom_bond_type
C1     O195    1.310   .     A
C1     O185    1.303   .     A
C1     C30     1.494   .     S
C2     N181    1.437   .     S
C2     C803    1.438   .     S
C2     N373    1.378   .     S
C3     C1602   1.438   1_554 S
C3     N377    1.365   .     S
C3     N382    1.427   .     S
C4     N183    1.431   .     S
C4     N173    1.354   .     A
C4     C1072   1.423   1_455 S
C5     N184    1.431   .     S
C5     C1608   1.429   1_554 S
C5     N579    1.384   .     S
C6     N178    1.379   .     A
C6     N174    1.438   .     S
C6     C807    1.438   .     S
C7     N179    1.368   .     A
C7     N175    1.432   .     S
C7     C1606   1.438   1_554 S
C8     N176    1.433   .     S
C8     C805    1.429   .     S
C8     N578    1.360   .     S
C9     C36     1.523   .     S
C9     C20     1.402   .     A
C9     C28     1.404   .     A
C10    C27     1.422   .     A
C10    C21     1.407   .     A
C10    C38     1.523   .     S
C11    C18     1.408   .     A
C11    C40     1.533   .     S
C11    C27     1.425   .     A
C12    C29     1.480   .     S
C12    O193    1.295   .     A
C12    O194    1.313   .     A
C13    C28     1.405   .     A
C13    C42     1.525   .     S
C13    C19     1.408   .     A
C14    C44     1.523   .     S
C14    C30     1.423   .     A
C14    C25     1.399   .     A
C15    C47     1.531   .     S
C15    C29     1.433   .     A
C15    C26     1.403   .     A
C16    C49     1.520   .     S
C16    C29     1.413   .     A
C16    C22     1.400   .     A
C17    C51     1.507   .     S
C17    C30     1.436   .     A
C17    C24     1.416   .     A
C18    C53     1.529   .     S
C18    C32     1.410   .     A
C19    C31     1.422   .     A
C19    C55     1.522   .     S
C20    C58     1.530   .     S
C20    C31     1.422   .     A
C21    C32     1.404   .     A
C21    C60     1.526   .     S
C22    C35     1.421   .     A
C22    C62     1.519   .     S
C23    O199    1.301   .     A
C23    O196    1.305   .     A
C23    C28     1.474   .     S
C24    C64     1.524   .     S
C24    C33     1.404   .     A
C25    C66     1.526   .     S
C25    C33     1.405   .     A
C26    C69     1.514   .     S
C26    C35     1.413   .     A
C27    C34     1.490   .     S
C31    C71     1.486   .     S
C32    C67     1.474   .     S
C33    C56     1.472   .     S
C34    O198    1.305   .     A
C34    O197    1.308   .     A
C35    C45     1.474   .     S
C36    H89     1.103   .     S
C36    C37     1.530   .     S
C36    H90     1.105   .     S
C37    H85     1.111   .     S
C37    H86     1.108   .     S
C37    H87     1.109   .     S
C38    C39     1.524   .     S
C38    H95     1.112   .     S
C38    H94     1.106   .     S
C39    H93     1.106   .     S
C39    H91     1.102   .     S
C39    H92     1.104   .     S
C40    H101    1.106   .     S
C40    C41     1.528   .     S
C40    H100    1.105   .     S
C41    H96     1.111   .     S
C41    H97     1.105   .     S
C41    H98     1.111   .     S
C42    H106    1.110   .     S
C42    C43     1.526   .     S
C42    H105    1.111   .     S
C43    H104    1.105   .     S
C43    H102    1.109   .     S
C43    H103    1.105   .     S
C44    C46     1.524   .     S
C44    H112    1.111   .     S
C44    H111    1.107   .     S
C45    O200    1.290   .     A
C45    O188    1.313   .     A
C46    H108    1.104   .     S
C46    H107    1.111   .     S
C46    H109    1.110   .     S
C47    H116    1.093   .     S
C47    C48     1.531   .     S
C47    H117    1.105   .     S
C48    H115    1.106   .     S
C48    H114    1.111   .     S
C48    H113    1.111   .     S
C49    H123    1.105   .     S
C49    H122    1.102   .     S
C49    C50     1.529   .     S
C50    H120    1.111   .     S
C50    H119    1.110   .     S
C50    H118    1.110   .     S
C51    H128    1.103   .     S
C51    C52     1.534   .     S
C51    H127    1.094   .     S
C52    H125    1.108   .     S
C52    H124    1.111   .     S
C52    H326    1.110   1_455 S
C53    C54     1.528   .     S
C53    H133    1.096   .     S
C53    H134    1.103   .     S
C54    H130    1.110   .     S
C54    H131    1.107   .     S
C54    H129    1.100   .     S
C55    H138    1.105   .     S
C55    H139    1.112   .     S
C55    C57     1.524   .     S
C56    O187    1.292   .     A
C56    O186    1.310   .     A
C57    H137    1.107   .     S
C57    H136    1.105   .     S
C57    H135    1.100   .     S
C58    H145    1.111   .     S
C58    C59     1.530   .     S
C58    H144    1.105   .     S
C59    H142    1.111   .     S
C59    H140    1.111   .     S
C59    H141    1.107   .     S
C60    C61     1.527   .     S
C60    H150    1.109   .     S
C60    H149    1.111   .     S
C61    H148    1.105   .     S
C61    H147    1.105   .     S
C61    H146    1.105   .     S
C62    H155    1.107   .     S
C62    C63     1.526   .     S
C62    H156    1.112   .     S
C63    H151    1.111   .     S
C63    H152    1.107   .     S
C63    H153    1.110   .     S
C64    H160    1.106   .     S
C64    H161    1.109   .     S
C64    C65     1.533   .     S
C65    H159    1.109   .     S
C65    H157    1.111   .     S
C65    H158    1.105   .     S
C66    C68     1.530   .     S
C66    H167    1.109   .     S
C66    H166    1.101   .     S
C67    O192    1.308   .     A
C67    O189    1.299   .     A
C68    H164    1.109   .     S
C68    H163    1.109   .     S
C68    H162    1.108   .     S
C69    H171    1.094   .     S
C69    C70     1.530   .     S
C69    H172    1.110   .     S
C70    H168    1.111   .     S
C70    H169    1.101   .     S
C70    H170    1.111   .     S
C71    O190    1.308   .     A
C71    O191    1.304   .     A
C72    N180    1.428   .     S
C72    C1804   1.423   1_554 S
C72    N377    1.389   .     S
Cu73   O197    1.979   .     S
Cu73   N173    2.027   .     S
Cu73   Cu74    2.698   .     S
Cu73   O185    1.978   .     S
Cu73   O394    1.991   1_455 S
Cu73   O399    1.968   1_455 S
Cu74   O198    1.968   .     S
Cu74   O195    1.991   .     S
Cu74   N177    2.027   .     S
Cu74   O393    1.978   1_455 S
Cu74   O396    1.979   1_455 S
Cu75   N178    2.027   .     S
Cu75   O190    1.979   .     S
Cu75   O187    1.991   .     S
Cu75   Cu76    2.698   .     S
Cu75   O592    1.968   1_545 S
Cu75   O600    1.978   1_545 S
Cu76   N179    2.027   .     S
Cu76   O186    1.978   .     S
Cu76   O191    1.968   .     S
Cu76   O588    1.991   1_545 S
Cu76   O589    1.979   1_545 S
H77    N180    1.022   .     S
H78    N184    1.042   .     S
H79    N174    1.036   .     S
H80    N174    1.041   .     S
H81    N175    1.045   .     S
H82    N175    1.045   .     S
H83    N176    1.043   .     S
H84    N176    1.045   .     S
H88    N380    1.043   1_455 S
H99    N381    1.036   1_455 S
H110   N181    1.041   .     S
H121   N382    1.036   .     S
H126   C252    1.110   .     S
H132   N182    1.039   .     S
H143   N383    1.043   .     S
H154   N183    1.044   .     S
H165   N184    1.027   .     S
N173   C202    1.378   1_455 S
N177   C272    1.389   1_455 S
N177   C203    1.365   1_455 S
N178   C408    1.360   1_545 S
N179   C405    1.384   1_545 S
N180   H288    1.043   .     S
N181   H299    1.036   .     S
N182   C203    1.427   1_455 S
N182   H321    1.036   1_455 S
N183   H343    1.043   1_455 S
O188   Cu476   1.991   .     S
O189   Cu476   1.979   .     S
O192   Cu475   1.968   .     S
O193   Cu274   1.978   .     S
O194   Cu273   1.991   .     S
O196   Cu274   1.979   .     S
O199   Cu273   1.968   .     S
O200   Cu475   1.978   .     S
C201   O395    1.310   .     A
C201   O385    1.303   .     A
C201   C230    1.494   .     S
C202   N381    1.437   .     S
C202   C1003   1.438   .     S
C202   N173    1.378   1_655 S
C203   C1802   1.438   1_554 S
C203   N177    1.365   1_655 S
C203   N182    1.427   1_655 S
C204   N383    1.431   .     S
C204   N373    1.354   .     A
C204   C872    1.423   .     S
C205   N384    1.431   .     S
C205   C1808   1.429   1_554 S
C205   N779    1.384   .     S
C206   N378    1.379   .     A
C206   N374    1.438   .     S
C206   C1007   1.438   .     S
C207   N379    1.368   .     A
C207   N375    1.432   .     S
C207   C1806   1.438   1_554 S
C208   N376    1.433   .     S
C208   C1005   1.429   .     S
C208   N778    1.360   .     S
C209   C236    1.523   .     S
C209   C220    1.402   .     A
C209   C228    1.404   .     A
C210   C227    1.422   .     A
C210   C221    1.407   .     A
C210   C238    1.523   .     S
C211   C218    1.408   .     A
C211   C240    1.533   .     S
C211   C227    1.425   .     A
C212   C229    1.480   .     S
C212   O393    1.295   .     A
C212   O394    1.313   .     A
C213   C228    1.405   .     A
C213   C242    1.525   .     S
C213   C219    1.408   .     A
C214   C244    1.523   .     S
C214   C230    1.423   .     A
C214   C225    1.399   .     A
C215   C247    1.531   .     S
C215   C229    1.433   .     A
C215   C226    1.403   .     A
C216   C249    1.520   .     S
C216   C229    1.413   .     A
C216   C222    1.400   .     A
C217   C251    1.507   .     S
C217   C230    1.436   .     A
C217   C224    1.416   .     A
C218   C253    1.529   .     S
C218   C232    1.410   .     A
C219   C231    1.422   .     A
C219   C255    1.522   .     S
C220   C258    1.530   .     S
C220   C231    1.422   .     A
C221   C232    1.404   .     A
C221   C260    1.526   .     S
C222   C235    1.421   .     A
C222   C262    1.519   .     S
C223   O399    1.301   .     A
C223   O396    1.305   .     A
C223   C228    1.474   .     S
C224   C264    1.524   .     S
C224   C233    1.404   .     A
C225   C266    1.526   .     S
C225   C233    1.405   .     A
C226   C269    1.514   .     S
C226   C235    1.413   .     A
C227   C234    1.490   .     S
C231   C271    1.486   .     S
C232   C267    1.474   .     S
C233   C256    1.472   .     S
C234   O398    1.305   .     A
C234   O397    1.308   .     A
C235   C245    1.474   .     S
C236   H289    1.103   .     S
C236   C237    1.530   .     S
C236   H290    1.105   .     S
C237   H285    1.111   .     S
C237   H286    1.108   .     S
C237   H287    1.109   .     S
C238   C239    1.524   .     S
C238   H295    1.112   .     S
C238   H294    1.106   .     S
C239   H293    1.106   .     S
C239   H291    1.102   .     S
C239   H292    1.104   .     S
C240   H301    1.106   .     S
C240   C241    1.528   .     S
C240   H300    1.105   .     S
C241   H296    1.111   .     S
C241   H297    1.105   .     S
C241   H298    1.111   .     S
C242   H306    1.110   .     S
C242   C243    1.526   .     S
C242   H305    1.111   .     S
C243   H304    1.105   .     S
C243   H302    1.109   .     S
C243   H303    1.105   .     S
C244   C246    1.524   .     S
C244   H312    1.111   .     S
C244   H311    1.107   .     S
C245   O400    1.290   .     A
C245   O388    1.313   .     A
C246   H308    1.104   .     S
C246   H307    1.111   .     S
C246   H309    1.110   .     S
C247   H316    1.093   .     S
C247   C248    1.531   .     S
C247   H317    1.105   .     S
C248   H315    1.106   .     S
C248   H314    1.111   .     S
C248   H313    1.111   .     S
C249   H323    1.105   .     S
C249   H322    1.102   .     S
C249   C250    1.529   .     S
C250   H320    1.111   .     S
C250   H319    1.110   .     S
C250   H318    1.110   .     S
C251   H328    1.103   .     S
C251   C252    1.534   .     S
C251   H327    1.094   .     S
C252   H325    1.108   .     S
C252   H324    1.111   .     S
C253   C254    1.528   .     S
C253   H333    1.096   .     S
C253   H334    1.103   .     S
C254   H330    1.110   .     S
C254   H331    1.107   .     S
C254   H329    1.100   .     S
C255   H338    1.105   .     S
C255   H339    1.112   .     S
C255   C257    1.524   .     S
C256   O387    1.292   .     A
C256   O386    1.310   .     A
C257   H337    1.107   .     S
C257   H336    1.105   .     S
C257   H335    1.100   .     S
C258   H345    1.111   .     S
C258   C259    1.530   .     S
C258   H344    1.105   .     S
C259   H342    1.111   .     S
C259   H340    1.111   .     S
C259   H341    1.107   .     S
C260   C261    1.527   .     S
C260   H350    1.109   .     S
C260   H349    1.111   .     S
C261   H348    1.105   .     S
C261   H347    1.105   .     S
C261   H346    1.105   .     S
C262   H355    1.107   .     S
C262   C263    1.526   .     S
C262   H356    1.112   .     S
C263   H351    1.111   .     S
C263   H352    1.107   .     S
C263   H353    1.110   .     S
C264   H360    1.106   .     S
C264   H361    1.109   .     S
C264   C265    1.533   .     S
C265   H359    1.109   .     S
C265   H357    1.111   .     S
C265   H358    1.105   .     S
C266   C268    1.530   .     S
C266   H367    1.109   .     S
C266   H366    1.101   .     S
C267   O392    1.308   .     A
C267   O389    1.299   .     A
C268   H364    1.109   .     S
C268   H363    1.109   .     S
C268   H362    1.108   .     S
C269   H371    1.094   .     S
C269   C270    1.530   .     S
C269   H372    1.110   .     S
C270   H368    1.111   .     S
C270   H369    1.101   .     S
C270   H370    1.111   .     S
C271   O390    1.308   .     A
C271   O391    1.304   .     A
C272   N380    1.428   .     S
C272   C1604   1.423   1_654 S
C272   N177    1.389   1_655 S
Cu273  O397    1.979   .     S
Cu273  N373    2.027   .     S
Cu273  Cu274   2.698   .     S
Cu273  O385    1.978   .     S
Cu274  O398    1.968   .     S
Cu274  O395    1.991   .     S
Cu274  N377    2.027   .     S
Cu275  N378    2.027   .     S
Cu275  O390    1.979   .     S
Cu275  O387    1.991   .     S
Cu275  Cu276   2.698   .     S
Cu275  O792    1.968   1_545 S
Cu275  O800    1.978   1_545 S
Cu276  N379    2.027   .     S
Cu276  O386    1.978   .     S
Cu276  O391    1.968   .     S
Cu276  O788    1.991   1_545 S
Cu276  O789    1.979   1_545 S
H277   N380    1.022   .     S
H278   N384    1.042   .     S
H279   N374    1.036   .     S
H280   N374    1.041   .     S
H281   N375    1.045   .     S
H282   N375    1.045   .     S
H283   N376    1.043   .     S
H284   N376    1.045   .     S
H310   N381    1.041   .     S
H321   N182    1.036   1_655 S
H326   C52     1.110   1_655 S
H332   N382    1.039   .     S
H343   N183    1.043   1_655 S
H354   N383    1.044   .     S
H365   N384    1.027   .     S
N378   C608    1.360   1_545 S
N379   C605    1.384   1_545 S
N380   H88     1.043   1_655 S
N381   H99     1.036   1_655 S
O388   Cu676   1.991   .     S
O389   Cu676   1.979   .     S
O392   Cu675   1.968   .     S
O393   Cu74    1.978   1_655 S
O394   Cu73    1.991   1_655 S
O396   Cu74    1.979   1_655 S
O399   Cu73    1.968   1_655 S
O400   Cu675   1.978   .     S
C401   O595    1.310   .     A
C401   O585    1.303   .     A
C401   C430    1.494   .     S
C402   N581    1.437   .     S
C402   C1203   1.438   .     S
C402   N773    1.378   .     S
C403   C2002   1.438   1_554 S
C403   N777    1.365   .     S
C403   N782    1.427   .     S
C404   N583    1.431   .     S
C404   N573    1.354   .     A
C404   C1472   1.423   1_455 S
C405   N584    1.431   .     S
C405   C2008   1.429   1_554 S
C405   N179    1.384   1_565 S
C406   N578    1.379   .     A
C406   N574    1.438   .     S
C406   C1207   1.438   .     S
C407   N579    1.368   .     A
C407   N575    1.432   .     S
C407   C2006   1.438   1_554 S
C408   N576    1.433   .     S
C408   C1205   1.429   .     S
C408   N178    1.360   1_565 S
C409   C436    1.523   .     S
C409   C420    1.402   .     A
C409   C428    1.404   .     A
C410   C427    1.422   .     A
C410   C421    1.407   .     A
C410   C438    1.523   .     S
C411   C418    1.408   .     A
C411   C440    1.533   .     S
C411   C427    1.425   .     A
C412   C429    1.480   .     S
C412   O593    1.295   .     A
C412   O594    1.313   .     A
C413   C428    1.405   .     A
C413   C442    1.525   .     S
C413   C419    1.408   .     A
C414   C444    1.523   .     S
C414   C430    1.423   .     A
C414   C425    1.399   .     A
C415   C447    1.531   .     S
C415   C429    1.433   .     A
C415   C426    1.403   .     A
C416   C449    1.520   .     S
C416   C429    1.413   .     A
C416   C422    1.400   .     A
C417   C451    1.507   .     S
C417   C430    1.436   .     A
C417   C424    1.416   .     A
C418   C453    1.529   .     S
C418   C432    1.410   .     A
C419   C431    1.422   .     A
C419   C455    1.522   .     S
C420   C458    1.530   .     S
C420   C431    1.422   .     A
C421   C432    1.404   .     A
C421   C460    1.526   .     S
C422   C435    1.421   .     A
C422   C462    1.519   .     S
C423   O599    1.301   .     A
C423   O596    1.305   .     A
C423   C428    1.474   .     S
C424   C464    1.524   .     S
C424   C433    1.404   .     A
C425   C466    1.526   .     S
C425   C433    1.405   .     A
C426   C469    1.514   .     S
C426   C435    1.413   .     A
C427   C434    1.490   .     S
C431   C471    1.486   .     S
C432   C467    1.474   .     S
C433   C456    1.472   .     S
C434   O598    1.305   .     A
C434   O597    1.308   .     A
C435   C445    1.474   .     S
C436   H489    1.103   .     S
C436   C437    1.530   .     S
C436   H490    1.105   .     S
C437   H485    1.111   .     S
C437   H486    1.108   .     S
C437   H487    1.109   .     S
C438   C439    1.524   .     S
C438   H495    1.112   .     S
C438   H494    1.106   .     S
C439   H493    1.106   .     S
C439   H491    1.102   .     S
C439   H492    1.104   .     S
C440   H501    1.106   .     S
C440   C441    1.528   .     S
C440   H500    1.105   .     S
C441   H496    1.111   .     S
C441   H497    1.105   .     S
C441   H498    1.111   .     S
C442   H506    1.110   .     S
C442   C443    1.526   .     S
C442   H505    1.111   .     S
C443   H504    1.105   .     S
C443   H502    1.109   .     S
C443   H503    1.105   .     S
C444   C446    1.524   .     S
C444   H512    1.111   .     S
C444   H511    1.107   .     S
C445   O600    1.290   .     A
C445   O588    1.313   .     A
C446   H508    1.104   .     S
C446   H507    1.111   .     S
C446   H509    1.110   .     S
C447   H516    1.093   .     S
C447   C448    1.531   .     S
C447   H517    1.105   .     S
C448   H515    1.106   .     S
C448   H514    1.111   .     S
C448   H513    1.111   .     S
C449   H523    1.105   .     S
C449   H522    1.102   .     S
C449   C450    1.529   .     S
C450   H520    1.111   .     S
C450   H519    1.110   .     S
C450   H518    1.110   .     S
C451   H528    1.103   .     S
C451   C452    1.534   .     S
C451   H527    1.094   .     S
C452   H525    1.108   .     S
C452   H524    1.111   .     S
C452   H726    1.110   1_455 S
C453   C454    1.528   .     S
C453   H533    1.096   .     S
C453   H534    1.103   .     S
C454   H530    1.110   .     S
C454   H531    1.107   .     S
C454   H529    1.100   .     S
C455   H538    1.105   .     S
C455   H539    1.112   .     S
C455   C457    1.524   .     S
C456   O587    1.292   .     A
C456   O586    1.310   .     A
C457   H537    1.107   .     S
C457   H536    1.105   .     S
C457   H535    1.100   .     S
C458   H545    1.111   .     S
C458   C459    1.530   .     S
C458   H544    1.105   .     S
C459   H542    1.111   .     S
C459   H540    1.111   .     S
C459   H541    1.107   .     S
C460   C461    1.527   .     S
C460   H550    1.109   .     S
C460   H549    1.111   .     S
C461   H548    1.105   .     S
C461   H547    1.105   .     S
C461   H546    1.105   .     S
C462   H555    1.107   .     S
C462   C463    1.526   .     S
C462   H556    1.112   .     S
C463   H551    1.111   .     S
C463   H552    1.107   .     S
C463   H553    1.110   .     S
C464   H560    1.106   .     S
C464   H561    1.109   .     S
C464   C465    1.533   .     S
C465   H559    1.109   .     S
C465   H557    1.111   .     S
C465   H558    1.105   .     S
C466   C468    1.530   .     S
C466   H567    1.109   .     S
C466   H566    1.101   .     S
C467   O592    1.308   .     A
C467   O589    1.299   .     A
C468   H564    1.109   .     S
C468   H563    1.109   .     S
C468   H562    1.108   .     S
C469   H571    1.094   .     S
C469   C470    1.530   .     S
C469   H572    1.110   .     S
C470   H568    1.111   .     S
C470   H569    1.101   .     S
C470   H570    1.111   .     S
C471   O590    1.308   .     A
C471   O591    1.304   .     A
C472   N580    1.428   .     S
C472   C2204   1.423   1_554 S
C472   N777    1.389   .     S
Cu473  O597    1.979   .     S
Cu473  N573    2.027   .     S
Cu473  Cu474   2.698   .     S
Cu473  O585    1.978   .     S
Cu473  O794    1.991   1_455 S
Cu473  O799    1.968   1_455 S
Cu474  O598    1.968   .     S
Cu474  O595    1.991   .     S
Cu474  N577    2.027   .     S
Cu474  O793    1.978   1_455 S
Cu474  O796    1.979   1_455 S
Cu475  N578    2.027   .     S
Cu475  O590    1.979   .     S
Cu475  O587    1.991   .     S
Cu475  Cu476   2.698   .     S
Cu476  N579    2.027   .     S
Cu476  O586    1.978   .     S
Cu476  O591    1.968   .     S
H477   N580    1.022   .     S
H478   N584    1.042   .     S
H479   N574    1.036   .     S
H480   N574    1.041   .     S
H481   N575    1.045   .     S
H482   N575    1.045   .     S
H483   N576    1.043   .     S
H484   N576    1.045   .     S
H488   N780    1.043   1_455 S
H499   N781    1.036   1_455 S
H510   N581    1.041   .     S
H521   N782    1.036   .     S
H526   C652    1.110   .     S
H532   N582    1.039   .     S
H543   N783    1.043   .     S
H554   N583    1.044   .     S
H565   N584    1.027   .     S
N573   C602    1.378   1_455 S
N577   C672    1.389   1_455 S
N577   C603    1.365   1_455 S
N580   H688    1.043   .     S
N581   H699    1.036   .     S
N582   C603    1.427   1_455 S
N582   H721    1.036   1_455 S
N583   H743    1.043   1_455 S
O588   Cu76    1.991   1_565 S
O589   Cu76    1.979   1_565 S
O592   Cu75    1.968   1_565 S
O593   Cu674   1.978   .     S
O594   Cu673   1.991   .     S
O596   Cu674   1.979   .     S
O599   Cu673   1.968   .     S
O600   Cu75    1.978   1_565 S
C601   O795    1.310   .     A
C601   O785    1.303   .     A
C601   C630    1.494   .     S
C602   N781    1.437   .     S
C602   C1403   1.438   .     S
C602   N573    1.378   1_655 S
C603   C2202   1.438   1_554 S
C603   N577    1.365   1_655 S
C603   N582    1.427   1_655 S
C604   N783    1.431   .     S
C604   N773    1.354   .     A
C604   C1272   1.423   .     S
C605   N784    1.431   .     S
C605   C2208   1.429   1_554 S
C605   N379    1.384   1_565 S
C606   N778    1.379   .     A
C606   N774    1.438   .     S
C606   C1407   1.438   .     S
C607   N779    1.368   .     A
C607   N775    1.432   .     S
C607   C2206   1.438   1_554 S
C608   N776    1.433   .     S
C608   C1405   1.429   .     S
C608   N378    1.360   1_565 S
C609   C636    1.523   .     S
C609   C620    1.402   .     A
C609   C628    1.404   .     A
C610   C627    1.422   .     A
C610   C621    1.407   .     A
C610   C638    1.523   .     S
C611   C618    1.408   .     A
C611   C640    1.533   .     S
C611   C627    1.425   .     A
C612   C629    1.480   .     S
C612   O793    1.295   .     A
C612   O794    1.313   .     A
C613   C628    1.405   .     A
C613   C642    1.525   .     S
C613   C619    1.408   .     A
C614   C644    1.523   .     S
C614   C630    1.423   .     A
C614   C625    1.399   .     A
C615   C647    1.531   .     S
C615   C629    1.433   .     A
C615   C626    1.403   .     A
C616   C649    1.520   .     S
C616   C629    1.413   .     A
C616   C622    1.400   .     A
C617   C651    1.507   .     S
C617   C630    1.436   .     A
C617   C624    1.416   .     A
C618   C653    1.529   .     S
C618   C632    1.410   .     A
C619   C631    1.422   .     A
C619   C655    1.522   .     S
C620   C658    1.530   .     S
C620   C631    1.422   .     A
C621   C632    1.404   .     A
C621   C660    1.526   .     S
C622   C635    1.421   .     A
C622   C662    1.519   .     S
C623   O799    1.301   .     A
C623   O796    1.305   .     A
C623   C628    1.474   .     S
C624   C664    1.524   .     S
C624   C633    1.404   .     A
C625   C666    1.526   .     S
C625   C633    1.405   .     A
C626   C669    1.514   .     S
C626   C635    1.413   .     A
C627   C634    1.490   .     S
C631   C671    1.486   .     S
C632   C667    1.474   .     S
C633   C656    1.472   .     S
C634   O798    1.305   .     A
C634   O797    1.308   .     A
C635   C645    1.474   .     S
C636   H689    1.103   .     S
C636   C637    1.530   .     S
C636   H690    1.105   .     S
C637   H685    1.111   .     S
C637   H686    1.108   .     S
C637   H687    1.109   .     S
C638   C639    1.524   .     S
C638   H695    1.112   .     S
C638   H694    1.106   .     S
C639   H693    1.106   .     S
C639   H691    1.102   .     S
C639   H692    1.104   .     S
C640   H701    1.106   .     S
C640   C641    1.528   .     S
C640   H700    1.105   .     S
C641   H696    1.111   .     S
C641   H697    1.105   .     S
C641   H698    1.111   .     S
C642   H706    1.110   .     S
C642   C643    1.526   .     S
C642   H705    1.111   .     S
C643   H704    1.105   .     S
C643   H702    1.109   .     S
C643   H703    1.105   .     S
C644   C646    1.524   .     S
C644   H712    1.111   .     S
C644   H711    1.107   .     S
C645   O800    1.290   .     A
C645   O788    1.313   .     A
C646   H708    1.104   .     S
C646   H707    1.111   .     S
C646   H709    1.110   .     S
C647   H716    1.093   .     S
C647   C648    1.531   .     S
C647   H717    1.105   .     S
C648   H715    1.106   .     S
C648   H714    1.111   .     S
C648   H713    1.111   .     S
C649   H723    1.105   .     S
C649   H722    1.102   .     S
C649   C650    1.529   .     S
C650   H720    1.111   .     S
C650   H719    1.110   .     S
C650   H718    1.110   .     S
C651   H728    1.103   .     S
C651   C652    1.534   .     S
C651   H727    1.094   .     S
C652   H725    1.108   .     S
C652   H724    1.111   .     S
C653   C654    1.528   .     S
C653   H733    1.096   .     S
C653   H734    1.103   .     S
C654   H730    1.110   .     S
C654   H731    1.107   .     S
C654   H729    1.100   .     S
C655   H738    1.105   .     S
C655   H739    1.112   .     S
C655   C657    1.524   .     S
C656   O787    1.292   .     A
C656   O786    1.310   .     A
C657   H737    1.107   .     S
C657   H736    1.105   .     S
C657   H735    1.100   .     S
C658   H745    1.111   .     S
C658   C659    1.530   .     S
C658   H744    1.105   .     S
C659   H742    1.111   .     S
C659   H740    1.111   .     S
C659   H741    1.107   .     S
C660   C661    1.527   .     S
C660   H750    1.109   .     S
C660   H749    1.111   .     S
C661   H748    1.105   .     S
C661   H747    1.105   .     S
C661   H746    1.105   .     S
C662   H755    1.107   .     S
C662   C663    1.526   .     S
C662   H756    1.112   .     S
C663   H751    1.111   .     S
C663   H752    1.107   .     S
C663   H753    1.110   .     S
C664   H760    1.106   .     S
C664   H761    1.109   .     S
C664   C665    1.533   .     S
C665   H759    1.109   .     S
C665   H757    1.111   .     S
C665   H758    1.105   .     S
C666   C668    1.530   .     S
C666   H767    1.109   .     S
C666   H766    1.101   .     S
C667   O792    1.308   .     A
C667   O789    1.299   .     A
C668   H764    1.109   .     S
C668   H763    1.109   .     S
C668   H762    1.108   .     S
C669   H771    1.094   .     S
C669   C670    1.530   .     S
C669   H772    1.110   .     S
C670   H768    1.111   .     S
C670   H769    1.101   .     S
C670   H770    1.111   .     S
C671   O790    1.308   .     A
C671   O791    1.304   .     A
C672   N780    1.428   .     S
C672   C2004   1.423   1_654 S
C672   N577    1.389   1_655 S
Cu673  O797    1.979   .     S
Cu673  N773    2.027   .     S
Cu673  Cu674   2.698   .     S
Cu673  O785    1.978   .     S
Cu674  O798    1.968   .     S
Cu674  O795    1.991   .     S
Cu674  N777    2.027   .     S
Cu675  N778    2.027   .     S
Cu675  O790    1.979   .     S
Cu675  O787    1.991   .     S
Cu675  Cu676   2.698   .     S
Cu676  N779    2.027   .     S
Cu676  O786    1.978   .     S
Cu676  O791    1.968   .     S
H677   N780    1.022   .     S
H678   N784    1.042   .     S
H679   N774    1.036   .     S
H680   N774    1.041   .     S
H681   N775    1.045   .     S
H682   N775    1.045   .     S
H683   N776    1.043   .     S
H684   N776    1.045   .     S
H710   N781    1.041   .     S
H721   N582    1.036   1_655 S
H726   C452    1.110   1_655 S
H732   N782    1.039   .     S
H743   N583    1.043   1_655 S
H754   N783    1.044   .     S
H765   N784    1.027   .     S
N780   H488    1.043   1_655 S
N781   H499    1.036   1_655 S
O788   Cu276   1.991   1_565 S
O789   Cu276   1.979   1_565 S
O792   Cu275   1.968   1_565 S
O793   Cu474   1.978   1_655 S
O794   Cu473   1.991   1_655 S
O796   Cu474   1.979   1_655 S
O799   Cu473   1.968   1_655 S
O800   Cu275   1.978   1_565 S
C801   O995    1.310   .     A
C801   O985    1.303   .     A
C801   C830    1.494   .     S
C802   N981    1.437   .     S
C802   C1603   1.438   .     S
C802   N1173   1.378   .     S
C803   N1177   1.365   .     S
C803   N1182   1.427   .     S
C804   N983    1.431   .     S
C804   N973    1.354   .     A
C804   C1872   1.423   1_455 S
C805   N984    1.431   .     S
C805   N1379   1.384   .     S
C806   N978    1.379   .     A
C806   N974    1.438   .     S
C806   C1607   1.438   .     S
C807   N979    1.368   .     A
C807   N975    1.432   .     S
C808   N976    1.433   .     S
C808   C1605   1.429   .     S
C808   N1378   1.360   .     S
C809   C836    1.523   .     S
C809   C820    1.402   .     A
C809   C828    1.404   .     A
C810   C827    1.422   .     A
C810   C821    1.407   .     A
C810   C838    1.523   .     S
C811   C818    1.408   .     A
C811   C840    1.533   .     S
C811   C827    1.425   .     A
C812   C829    1.480   .     S
C812   O993    1.295   .     A
C812   O994    1.313   .     A
C813   C828    1.405   .     A
C813   C842    1.525   .     S
C813   C819    1.408   .     A
C814   C844    1.523   .     S
C814   C830    1.423   .     A
C814   C825    1.399   .     A
C815   C847    1.531   .     S
C815   C829    1.433   .     A
C815   C826    1.403   .     A
C816   C849    1.520   .     S
C816   C829    1.413   .     A
C816   C822    1.400   .     A
C817   C851    1.507   .     S
C817   C830    1.436   .     A
C817   C824    1.416   .     A
C818   C853    1.529   .     S
C818   C832    1.410   .     A
C819   C831    1.422   .     A
C819   C855    1.522   .     S
C820   C858    1.530   .     S
C820   C831    1.422   .     A
C821   C832    1.404   .     A
C821   C860    1.526   .     S
C822   C835    1.421   .     A
C822   C862    1.519   .     S
C823   O999    1.301   .     A
C823   O996    1.305   .     A
C823   C828    1.474   .     S
C824   C864    1.524   .     S
C824   C833    1.404   .     A
C825   C866    1.526   .     S
C825   C833    1.405   .     A
C826   C869    1.514   .     S
C826   C835    1.413   .     A
C827   C834    1.490   .     S
C831   C871    1.486   .     S
C832   C867    1.474   .     S
C833   C856    1.472   .     S
C834   O998    1.305   .     A
C834   O997    1.308   .     A
C835   C845    1.474   .     S
C836   H889    1.103   .     S
C836   C837    1.530   .     S
C836   H890    1.105   .     S
C837   H885    1.111   .     S
C837   H886    1.108   .     S
C837   H887    1.109   .     S
C838   C839    1.524   .     S
C838   H895    1.112   .     S
C838   H894    1.106   .     S
C839   H893    1.106   .     S
C839   H891    1.102   .     S
C839   H892    1.104   .     S
C840   H901    1.106   .     S
C840   C841    1.528   .     S
C840   H900    1.105   .     S
C841   H896    1.111   .     S
C841   H897    1.105   .     S
C841   H898    1.111   .     S
C842   H906    1.110   .     S
C842   C843    1.526   .     S
C842   H905    1.111   .     S
C843   H904    1.105   .     S
C843   H902    1.109   .     S
C843   H903    1.105   .     S
C844   C846    1.524   .     S
C844   H912    1.111   .     S
C844   H911    1.107   .     S
C845   O1000   1.290   .     A
C845   O988    1.313   .     A
C846   H908    1.104   .     S
C846   H907    1.111   .     S
C846   H909    1.110   .     S
C847   H916    1.093   .     S
C847   C848    1.531   .     S
C847   H917    1.105   .     S
C848   H915    1.106   .     S
C848   H914    1.111   .     S
C848   H913    1.111   .     S
C849   H923    1.105   .     S
C849   H922    1.102   .     S
C849   C850    1.529   .     S
C850   H920    1.111   .     S
C850   H919    1.110   .     S
C850   H918    1.110   .     S
C851   H928    1.103   .     S
C851   C852    1.534   .     S
C851   H927    1.094   .     S
C852   H925    1.108   .     S
C852   H924    1.111   .     S
C852   H1126   1.110   1_455 S
C853   C854    1.528   .     S
C853   H933    1.096   .     S
C853   H934    1.103   .     S
C854   H930    1.110   .     S
C854   H931    1.107   .     S
C854   H929    1.100   .     S
C855   H938    1.105   .     S
C855   H939    1.112   .     S
C855   C857    1.524   .     S
C856   O987    1.292   .     A
C856   O986    1.310   .     A
C857   H937    1.107   .     S
C857   H936    1.105   .     S
C857   H935    1.100   .     S
C858   H945    1.111   .     S
C858   C859    1.530   .     S
C858   H944    1.105   .     S
C859   H942    1.111   .     S
C859   H940    1.111   .     S
C859   H941    1.107   .     S
C860   C861    1.527   .     S
C860   H950    1.109   .     S
C860   H949    1.111   .     S
C861   H948    1.105   .     S
C861   H947    1.105   .     S
C861   H946    1.105   .     S
C862   H955    1.107   .     S
C862   C863    1.526   .     S
C862   H956    1.112   .     S
C863   H951    1.111   .     S
C863   H952    1.107   .     S
C863   H953    1.110   .     S
C864   H960    1.106   .     S
C864   H961    1.109   .     S
C864   C865    1.533   .     S
C865   H959    1.109   .     S
C865   H957    1.111   .     S
C865   H958    1.105   .     S
C866   C868    1.530   .     S
C866   H967    1.109   .     S
C866   H966    1.101   .     S
C867   O992    1.308   .     A
C867   O989    1.299   .     A
C868   H964    1.109   .     S
C868   H963    1.109   .     S
C868   H962    1.108   .     S
C869   H971    1.094   .     S
C869   C870    1.530   .     S
C869   H972    1.110   .     S
C870   H968    1.111   .     S
C870   H969    1.101   .     S
C870   H970    1.111   .     S
C871   O990    1.308   .     A
C871   O991    1.304   .     A
C872   N980    1.428   .     S
C872   N1177   1.389   .     S
Cu873  O997    1.979   .     S
Cu873  N973    2.027   .     S
Cu873  Cu874   2.698   .     S
Cu873  O985    1.978   .     S
Cu873  O1194   1.991   1_455 S
Cu873  O1199   1.968   1_455 S
Cu874  O998    1.968   .     S
Cu874  O995    1.991   .     S
Cu874  N977    2.027   .     S
Cu874  O1193   1.978   1_455 S
Cu874  O1196   1.979   1_455 S
Cu875  N978    2.027   .     S
Cu875  O990    1.979   .     S
Cu875  O987    1.991   .     S
Cu875  Cu876   2.698   .     S
Cu875  O1392   1.968   1_545 S
Cu875  O1400   1.978   1_545 S
Cu876  N979    2.027   .     S
Cu876  O986    1.978   .     S
Cu876  O991    1.968   .     S
Cu876  O1388   1.991   1_545 S
Cu876  O1389   1.979   1_545 S
H877   N980    1.022   .     S
H878   N984    1.042   .     S
H879   N974    1.036   .     S
H880   N974    1.041   .     S
H881   N975    1.045   .     S
H882   N975    1.045   .     S
H883   N976    1.043   .     S
H884   N976    1.045   .     S
H888   N1180   1.043   1_455 S
H899   N1181   1.036   1_455 S
H910   N981    1.041   .     S
H921   N1182   1.036   .     S
H926   C1052   1.110   .     S
H932   N982    1.039   .     S
H943   N1183   1.043   .     S
H954   N983    1.044   .     S
H965   N984    1.027   .     S
N973   C1002   1.378   1_455 S
N977   C1072   1.389   1_455 S
N977   C1003   1.365   1_455 S
N978   C1208   1.360   1_545 S
N979   C1205   1.384   1_545 S
N980   H1088   1.043   .     S
N981   H1099   1.036   .     S
N982   C1003   1.427   1_455 S
N982   H1121   1.036   1_455 S
N983   H1143   1.043   1_455 S
O988   Cu1276  1.991   .     S
O989   Cu1276  1.979   .     S
O992   Cu1275  1.968   .     S
O993   Cu1074  1.978   .     S
O994   Cu1073  1.991   .     S
O996   Cu1074  1.979   .     S
O999   Cu1073  1.968   .     S
O1000  Cu1275  1.978   .     S
C1001  O1195   1.310   .     A
C1001  O1185   1.303   .     A
C1001  C1030   1.494   .     S
C1002  N1181   1.437   .     S
C1002  C1803   1.438   .     S
C1002  N973    1.378   1_655 S
C1003  N977    1.365   1_655 S
C1003  N982    1.427   1_655 S
C1004  N1183   1.431   .     S
C1004  N1173   1.354   .     A
C1004  C1672   1.423   .     S
C1005  N1184   1.431   .     S
C1005  N1579   1.384   .     S
C1006  N1178   1.379   .     A
C1006  N1174   1.438   .     S
C1006  C1807   1.438   .     S
C1007  N1179   1.368   .     A
C1007  N1175   1.432   .     S
C1008  N1176   1.433   .     S
C1008  C1805   1.429   .     S
C1008  N1578   1.360   .     S
C1009  C1036   1.523   .     S
C1009  C1020   1.402   .     A
C1009  C1028   1.404   .     A
C1010  C1027   1.422   .     A
C1010  C1021   1.407   .     A
C1010  C1038   1.523   .     S
C1011  C1018   1.408   .     A
C1011  C1040   1.533   .     S
C1011  C1027   1.425   .     A
C1012  C1029   1.480   .     S
C1012  O1193   1.295   .     A
C1012  O1194   1.313   .     A
C1013  C1028   1.405   .     A
C1013  C1042   1.525   .     S
C1013  C1019   1.408   .     A
C1014  C1044   1.523   .     S
C1014  C1030   1.423   .     A
C1014  C1025   1.399   .     A
C1015  C1047   1.531   .     S
C1015  C1029   1.433   .     A
C1015  C1026   1.403   .     A
C1016  C1049   1.520   .     S
C1016  C1029   1.413   .     A
C1016  C1022   1.400   .     A
C1017  C1051   1.507   .     S
C1017  C1030   1.436   .     A
C1017  C1024   1.416   .     A
C1018  C1053   1.529   .     S
C1018  C1032   1.410   .     A
C1019  C1031   1.422   .     A
C1019  C1055   1.522   .     S
C1020  C1058   1.530   .     S
C1020  C1031   1.422   .     A
C1021  C1032   1.404   .     A
C1021  C1060   1.526   .     S
C1022  C1035   1.421   .     A
C1022  C1062   1.519   .     S
C1023  O1199   1.301   .     A
C1023  O1196   1.305   .     A
C1023  C1028   1.474   .     S
C1024  C1064   1.524   .     S
C1024  C1033   1.404   .     A
C1025  C1066   1.526   .     S
C1025  C1033   1.405   .     A
C1026  C1069   1.514   .     S
C1026  C1035   1.413   .     A
C1027  C1034   1.490   .     S
C1031  C1071   1.486   .     S
C1032  C1067   1.474   .     S
C1033  C1056   1.472   .     S
C1034  O1198   1.305   .     A
C1034  O1197   1.308   .     A
C1035  C1045   1.474   .     S
C1036  H1089   1.103   .     S
C1036  C1037   1.530   .     S
C1036  H1090   1.105   .     S
C1037  H1085   1.111   .     S
C1037  H1086   1.108   .     S
C1037  H1087   1.109   .     S
C1038  C1039   1.524   .     S
C1038  H1095   1.112   .     S
C1038  H1094   1.106   .     S
C1039  H1093   1.106   .     S
C1039  H1091   1.102   .     S
C1039  H1092   1.104   .     S
C1040  H1101   1.106   .     S
C1040  C1041   1.528   .     S
C1040  H1100   1.105   .     S
C1041  H1096   1.111   .     S
C1041  H1097   1.105   .     S
C1041  H1098   1.111   .     S
C1042  H1106   1.110   .     S
C1042  C1043   1.526   .     S
C1042  H1105   1.111   .     S
C1043  H1104   1.105   .     S
C1043  H1102   1.109   .     S
C1043  H1103   1.105   .     S
C1044  C1046   1.524   .     S
C1044  H1112   1.111   .     S
C1044  H1111   1.107   .     S
C1045  O1200   1.290   .     A
C1045  O1188   1.313   .     A
C1046  H1108   1.104   .     S
C1046  H1107   1.111   .     S
C1046  H1109   1.110   .     S
C1047  H1116   1.093   .     S
C1047  C1048   1.531   .     S
C1047  H1117   1.105   .     S
C1048  H1115   1.106   .     S
C1048  H1114   1.111   .     S
C1048  H1113   1.111   .     S
C1049  H1123   1.105   .     S
C1049  H1122   1.102   .     S
C1049  C1050   1.529   .     S
C1050  H1120   1.111   .     S
C1050  H1119   1.110   .     S
C1050  H1118   1.110   .     S
C1051  H1128   1.103   .     S
C1051  C1052   1.534   .     S
C1051  H1127   1.094   .     S
C1052  H1125   1.108   .     S
C1052  H1124   1.111   .     S
C1053  C1054   1.528   .     S
C1053  H1133   1.096   .     S
C1053  H1134   1.103   .     S
C1054  H1130   1.110   .     S
C1054  H1131   1.107   .     S
C1054  H1129   1.100   .     S
C1055  H1138   1.105   .     S
C1055  H1139   1.112   .     S
C1055  C1057   1.524   .     S
C1056  O1187   1.292   .     A
C1056  O1186   1.310   .     A
C1057  H1137   1.107   .     S
C1057  H1136   1.105   .     S
C1057  H1135   1.100   .     S
C1058  H1145   1.111   .     S
C1058  C1059   1.530   .     S
C1058  H1144   1.105   .     S
C1059  H1142   1.111   .     S
C1059  H1140   1.111   .     S
C1059  H1141   1.107   .     S
C1060  C1061   1.527   .     S
C1060  H1150   1.109   .     S
C1060  H1149   1.111   .     S
C1061  H1148   1.105   .     S
C1061  H1147   1.105   .     S
C1061  H1146   1.105   .     S
C1062  H1155   1.107   .     S
C1062  C1063   1.526   .     S
C1062  H1156   1.112   .     S
C1063  H1151   1.111   .     S
C1063  H1152   1.107   .     S
C1063  H1153   1.110   .     S
C1064  H1160   1.106   .     S
C1064  H1161   1.109   .     S
C1064  C1065   1.533   .     S
C1065  H1159   1.109   .     S
C1065  H1157   1.111   .     S
C1065  H1158   1.105   .     S
C1066  C1068   1.530   .     S
C1066  H1167   1.109   .     S
C1066  H1166   1.101   .     S
C1067  O1192   1.308   .     A
C1067  O1189   1.299   .     A
C1068  H1164   1.109   .     S
C1068  H1163   1.109   .     S
C1068  H1162   1.108   .     S
C1069  H1171   1.094   .     S
C1069  C1070   1.530   .     S
C1069  H1172   1.110   .     S
C1070  H1168   1.111   .     S
C1070  H1169   1.101   .     S
C1070  H1170   1.111   .     S
C1071  O1190   1.308   .     A
C1071  O1191   1.304   .     A
C1072  N1180   1.428   .     S
C1072  C4      1.423   1_655 S
C1072  N977    1.389   1_655 S
Cu1073 O1197   1.979   .     S
Cu1073 N1173   2.027   .     S
Cu1073 Cu1074  2.698   .     S
Cu1073 O1185   1.978   .     S
Cu1074 O1198   1.968   .     S
Cu1074 O1195   1.991   .     S
Cu1074 N1177   2.027   .     S
Cu1075 N1178   2.027   .     S
Cu1075 O1190   1.979   .     S
Cu1075 O1187   1.991   .     S
Cu1075 Cu1076  2.698   .     S
Cu1075 O1592   1.968   1_545 S
Cu1075 O1600   1.978   1_545 S
Cu1076 N1179   2.027   .     S
Cu1076 O1186   1.978   .     S
Cu1076 O1191   1.968   .     S
Cu1076 O1588   1.991   1_545 S
Cu1076 O1589   1.979   1_545 S
H1077  N1180   1.022   .     S
H1078  N1184   1.042   .     S
H1079  N1174   1.036   .     S
H1080  N1174   1.041   .     S
H1081  N1175   1.045   .     S
H1082  N1175   1.045   .     S
H1083  N1176   1.043   .     S
H1084  N1176   1.045   .     S
H1110  N1181   1.041   .     S
H1121  N982    1.036   1_655 S
H1126  C852    1.110   1_655 S
H1132  N1182   1.039   .     S
H1143  N983    1.043   1_655 S
H1154  N1183   1.044   .     S
H1165  N1184   1.027   .     S
N1178  C1408   1.360   1_545 S
N1179  C1405   1.384   1_545 S
N1180  H888    1.043   1_655 S
N1181  H899    1.036   1_655 S
O1188  Cu1476  1.991   .     S
O1189  Cu1476  1.979   .     S
O1192  Cu1475  1.968   .     S
O1193  Cu874   1.978   1_655 S
O1194  Cu873   1.991   1_655 S
O1196  Cu874   1.979   1_655 S
O1199  Cu873   1.968   1_655 S
O1200  Cu1475  1.978   .     S
C1201  O1395   1.310   .     A
C1201  O1385   1.303   .     A
C1201  C1230   1.494   .     S
C1202  N1381   1.437   .     S
C1202  C2003   1.438   .     S
C1202  N1573   1.378   .     S
C1203  N1577   1.365   .     S
C1203  N1582   1.427   .     S
C1204  N1383   1.431   .     S
C1204  N1373   1.354   .     A
C1204  C2272   1.423   1_455 S
C1205  N1384   1.431   .     S
C1205  N979    1.384   1_565 S
C1206  N1378   1.379   .     A
C1206  N1374   1.438   .     S
C1206  C2007   1.438   .     S
C1207  N1379   1.368   .     A
C1207  N1375   1.432   .     S
C1208  N1376   1.433   .     S
C1208  C2005   1.429   .     S
C1208  N978    1.360   1_565 S
C1209  C1236   1.523   .     S
C1209  C1220   1.402   .     A
C1209  C1228   1.404   .     A
C1210  C1227   1.422   .     A
C1210  C1221   1.407   .     A
C1210  C1238   1.523   .     S
C1211  C1218   1.408   .     A
C1211  C1240   1.533   .     S
C1211  C1227   1.425   .     A
C1212  C1229   1.480   .     S
C1212  O1393   1.295   .     A
C1212  O1394   1.313   .     A
C1213  C1228   1.405   .     A
C1213  C1242   1.525   .     S
C1213  C1219   1.408   .     A
C1214  C1244   1.523   .     S
C1214  C1230   1.423   .     A
C1214  C1225   1.399   .     A
C1215  C1247   1.531   .     S
C1215  C1229   1.433   .     A
C1215  C1226   1.403   .     A
C1216  C1249   1.520   .     S
C1216  C1229   1.413   .     A
C1216  C1222   1.400   .     A
C1217  C1251   1.507   .     S
C1217  C1230   1.436   .     A
C1217  C1224   1.416   .     A
C1218  C1253   1.529   .     S
C1218  C1232   1.410   .     A
C1219  C1231   1.422   .     A
C1219  C1255   1.522   .     S
C1220  C1258   1.530   .     S
C1220  C1231   1.422   .     A
C1221  C1232   1.404   .     A
C1221  C1260   1.526   .     S
C1222  C1235   1.421   .     A
C1222  C1262   1.519   .     S
C1223  O1399   1.301   .     A
C1223  O1396   1.305   .     A
C1223  C1228   1.474   .     S
C1224  C1264   1.524   .     S
C1224  C1233   1.404   .     A
C1225  C1266   1.526   .     S
C1225  C1233   1.405   .     A
C1226  C1269   1.514   .     S
C1226  C1235   1.413   .     A
C1227  C1234   1.490   .     S
C1231  C1271   1.486   .     S
C1232  C1267   1.474   .     S
C1233  C1256   1.472   .     S
C1234  O1398   1.305   .     A
C1234  O1397   1.308   .     A
C1235  C1245   1.474   .     S
C1236  H1289   1.103   .     S
C1236  C1237   1.530   .     S
C1236  H1290   1.105   .     S
C1237  H1285   1.111   .     S
C1237  H1286   1.108   .     S
C1237  H1287   1.109   .     S
C1238  C1239   1.524   .     S
C1238  H1295   1.112   .     S
C1238  H1294   1.106   .     S
C1239  H1293   1.106   .     S
C1239  H1291   1.102   .     S
C1239  H1292   1.104   .     S
C1240  H1301   1.106   .     S
C1240  C1241   1.528   .     S
C1240  H1300   1.105   .     S
C1241  H1296   1.111   .     S
C1241  H1297   1.105   .     S
C1241  H1298   1.111   .     S
C1242  H1306   1.110   .     S
C1242  C1243   1.526   .     S
C1242  H1305   1.111   .     S
C1243  H1304   1.105   .     S
C1243  H1302   1.109   .     S
C1243  H1303   1.105   .     S
C1244  C1246   1.524   .     S
C1244  H1312   1.111   .     S
C1244  H1311   1.107   .     S
C1245  O1400   1.290   .     A
C1245  O1388   1.313   .     A
C1246  H1308   1.104   .     S
C1246  H1307   1.111   .     S
C1246  H1309   1.110   .     S
C1247  H1316   1.093   .     S
C1247  C1248   1.531   .     S
C1247  H1317   1.105   .     S
C1248  H1315   1.106   .     S
C1248  H1314   1.111   .     S
C1248  H1313   1.111   .     S
C1249  H1323   1.105   .     S
C1249  H1322   1.102   .     S
C1249  C1250   1.529   .     S
C1250  H1320   1.111   .     S
C1250  H1319   1.110   .     S
C1250  H1318   1.110   .     S
C1251  H1328   1.103   .     S
C1251  C1252   1.534   .     S
C1251  H1327   1.094   .     S
C1252  H1325   1.108   .     S
C1252  H1324   1.111   .     S
C1252  H1526   1.110   1_455 S
C1253  C1254   1.528   .     S
C1253  H1333   1.096   .     S
C1253  H1334   1.103   .     S
C1254  H1330   1.110   .     S
C1254  H1331   1.107   .     S
C1254  H1329   1.100   .     S
C1255  H1338   1.105   .     S
C1255  H1339   1.112   .     S
C1255  C1257   1.524   .     S
C1256  O1387   1.292   .     A
C1256  O1386   1.310   .     A
C1257  H1337   1.107   .     S
C1257  H1336   1.105   .     S
C1257  H1335   1.100   .     S
C1258  H1345   1.111   .     S
C1258  C1259   1.530   .     S
C1258  H1344   1.105   .     S
C1259  H1342   1.111   .     S
C1259  H1340   1.111   .     S
C1259  H1341   1.107   .     S
C1260  C1261   1.527   .     S
C1260  H1350   1.109   .     S
C1260  H1349   1.111   .     S
C1261  H1348   1.105   .     S
C1261  H1347   1.105   .     S
C1261  H1346   1.105   .     S
C1262  H1355   1.107   .     S
C1262  C1263   1.526   .     S
C1262  H1356   1.112   .     S
C1263  H1351   1.111   .     S
C1263  H1352   1.107   .     S
C1263  H1353   1.110   .     S
C1264  H1360   1.106   .     S
C1264  H1361   1.109   .     S
C1264  C1265   1.533   .     S
C1265  H1359   1.109   .     S
C1265  H1357   1.111   .     S
C1265  H1358   1.105   .     S
C1266  C1268   1.530   .     S
C1266  H1367   1.109   .     S
C1266  H1366   1.101   .     S
C1267  O1392   1.308   .     A
C1267  O1389   1.299   .     A
C1268  H1364   1.109   .     S
C1268  H1363   1.109   .     S
C1268  H1362   1.108   .     S
C1269  H1371   1.094   .     S
C1269  C1270   1.530   .     S
C1269  H1372   1.110   .     S
C1270  H1368   1.111   .     S
C1270  H1369   1.101   .     S
C1270  H1370   1.111   .     S
C1271  O1390   1.308   .     A
C1271  O1391   1.304   .     A
C1272  N1380   1.428   .     S
C1272  N1577   1.389   .     S
Cu1273 O1397   1.979   .     S
Cu1273 N1373   2.027   .     S
Cu1273 Cu1274  2.698   .     S
Cu1273 O1385   1.978   .     S
Cu1273 O1594   1.991   1_455 S
Cu1273 O1599   1.968   1_455 S
Cu1274 O1398   1.968   .     S
Cu1274 O1395   1.991   .     S
Cu1274 N1377   2.027   .     S
Cu1274 O1593   1.978   1_455 S
Cu1274 O1596   1.979   1_455 S
Cu1275 N1378   2.027   .     S
Cu1275 O1390   1.979   .     S
Cu1275 O1387   1.991   .     S
Cu1275 Cu1276  2.698   .     S
Cu1276 N1379   2.027   .     S
Cu1276 O1386   1.978   .     S
Cu1276 O1391   1.968   .     S
H1277  N1380   1.022   .     S
H1278  N1384   1.042   .     S
H1279  N1374   1.036   .     S
H1280  N1374   1.041   .     S
H1281  N1375   1.045   .     S
H1282  N1375   1.045   .     S
H1283  N1376   1.043   .     S
H1284  N1376   1.045   .     S
H1288  N1580   1.043   1_455 S
H1299  N1581   1.036   1_455 S
H1310  N1381   1.041   .     S
H1321  N1582   1.036   .     S
H1326  C1452   1.110   .     S
H1332  N1382   1.039   .     S
H1343  N1583   1.043   .     S
H1354  N1383   1.044   .     S
H1365  N1384   1.027   .     S
N1373  C1402   1.378   1_455 S
N1377  C1472   1.389   1_455 S
N1377  C1403   1.365   1_455 S
N1380  H1488   1.043   .     S
N1381  H1499   1.036   .     S
N1382  C1403   1.427   1_455 S
N1382  H1521   1.036   1_455 S
N1383  H1543   1.043   1_455 S
O1388  Cu876   1.991   1_565 S
O1389  Cu876   1.979   1_565 S
O1392  Cu875   1.968   1_565 S
O1393  Cu1474  1.978   .     S
O1394  Cu1473  1.991   .     S
O1396  Cu1474  1.979   .     S
O1399  Cu1473  1.968   .     S
O1400  Cu875   1.978   1_565 S
C1401  O1595   1.310   .     A
C1401  O1585   1.303   .     A
C1401  C1430   1.494   .     S
C1402  N1581   1.437   .     S
C1402  C2203   1.438   .     S
C1402  N1373   1.378   1_655 S
C1403  N1377   1.365   1_655 S
C1403  N1382   1.427   1_655 S
C1404  N1583   1.431   .     S
C1404  N1573   1.354   .     A
C1404  C2072   1.423   .     S
C1405  N1584   1.431   .     S
C1405  N1179   1.384   1_565 S
C1406  N1578   1.379   .     A
C1406  N1574   1.438   .     S
C1406  C2207   1.438   .     S
C1407  N1579   1.368   .     A
C1407  N1575   1.432   .     S
C1408  N1576   1.433   .     S
C1408  C2205   1.429   .     S
C1408  N1178   1.360   1_565 S
C1409  C1436   1.523   .     S
C1409  C1420   1.402   .     A
C1409  C1428   1.404   .     A
C1410  C1427   1.422   .     A
C1410  C1421   1.407   .     A
C1410  C1438   1.523   .     S
C1411  C1418   1.408   .     A
C1411  C1440   1.533   .     S
C1411  C1427   1.425   .     A
C1412  C1429   1.480   .     S
C1412  O1593   1.295   .     A
C1412  O1594   1.313   .     A
C1413  C1428   1.405   .     A
C1413  C1442   1.525   .     S
C1413  C1419   1.408   .     A
C1414  C1444   1.523   .     S
C1414  C1430   1.423   .     A
C1414  C1425   1.399   .     A
C1415  C1447   1.531   .     S
C1415  C1429   1.433   .     A
C1415  C1426   1.403   .     A
C1416  C1449   1.520   .     S
C1416  C1429   1.413   .     A
C1416  C1422   1.400   .     A
C1417  C1451   1.507   .     S
C1417  C1430   1.436   .     A
C1417  C1424   1.416   .     A
C1418  C1453   1.529   .     S
C1418  C1432   1.410   .     A
C1419  C1431   1.422   .     A
C1419  C1455   1.522   .     S
C1420  C1458   1.530   .     S
C1420  C1431   1.422   .     A
C1421  C1432   1.404   .     A
C1421  C1460   1.526   .     S
C1422  C1435   1.421   .     A
C1422  C1462   1.519   .     S
C1423  O1599   1.301   .     A
C1423  O1596   1.305   .     A
C1423  C1428   1.474   .     S
C1424  C1464   1.524   .     S
C1424  C1433   1.404   .     A
C1425  C1466   1.526   .     S
C1425  C1433   1.405   .     A
C1426  C1469   1.514   .     S
C1426  C1435   1.413   .     A
C1427  C1434   1.490   .     S
C1431  C1471   1.486   .     S
C1432  C1467   1.474   .     S
C1433  C1456   1.472   .     S
C1434  O1598   1.305   .     A
C1434  O1597   1.308   .     A
C1435  C1445   1.474   .     S
C1436  H1489   1.103   .     S
C1436  C1437   1.530   .     S
C1436  H1490   1.105   .     S
C1437  H1485   1.111   .     S
C1437  H1486   1.108   .     S
C1437  H1487   1.109   .     S
C1438  C1439   1.524   .     S
C1438  H1495   1.112   .     S
C1438  H1494   1.106   .     S
C1439  H1493   1.106   .     S
C1439  H1491   1.102   .     S
C1439  H1492   1.104   .     S
C1440  H1501   1.106   .     S
C1440  C1441   1.528   .     S
C1440  H1500   1.105   .     S
C1441  H1496   1.111   .     S
C1441  H1497   1.105   .     S
C1441  H1498   1.111   .     S
C1442  H1506   1.110   .     S
C1442  C1443   1.526   .     S
C1442  H1505   1.111   .     S
C1443  H1504   1.105   .     S
C1443  H1502   1.109   .     S
C1443  H1503   1.105   .     S
C1444  C1446   1.524   .     S
C1444  H1512   1.111   .     S
C1444  H1511   1.107   .     S
C1445  O1600   1.290   .     A
C1445  O1588   1.313   .     A
C1446  H1508   1.104   .     S
C1446  H1507   1.111   .     S
C1446  H1509   1.110   .     S
C1447  H1516   1.093   .     S
C1447  C1448   1.531   .     S
C1447  H1517   1.105   .     S
C1448  H1515   1.106   .     S
C1448  H1514   1.111   .     S
C1448  H1513   1.111   .     S
C1449  H1523   1.105   .     S
C1449  H1522   1.102   .     S
C1449  C1450   1.529   .     S
C1450  H1520   1.111   .     S
C1450  H1519   1.110   .     S
C1450  H1518   1.110   .     S
C1451  H1528   1.103   .     S
C1451  C1452   1.534   .     S
C1451  H1527   1.094   .     S
C1452  H1525   1.108   .     S
C1452  H1524   1.111   .     S
C1453  C1454   1.528   .     S
C1453  H1533   1.096   .     S
C1453  H1534   1.103   .     S
C1454  H1530   1.110   .     S
C1454  H1531   1.107   .     S
C1454  H1529   1.100   .     S
C1455  H1538   1.105   .     S
C1455  H1539   1.112   .     S
C1455  C1457   1.524   .     S
C1456  O1587   1.292   .     A
C1456  O1586   1.310   .     A
C1457  H1537   1.107   .     S
C1457  H1536   1.105   .     S
C1457  H1535   1.100   .     S
C1458  H1545   1.111   .     S
C1458  C1459   1.530   .     S
C1458  H1544   1.105   .     S
C1459  H1542   1.111   .     S
C1459  H1540   1.111   .     S
C1459  H1541   1.107   .     S
C1460  C1461   1.527   .     S
C1460  H1550   1.109   .     S
C1460  H1549   1.111   .     S
C1461  H1548   1.105   .     S
C1461  H1547   1.105   .     S
C1461  H1546   1.105   .     S
C1462  H1555   1.107   .     S
C1462  C1463   1.526   .     S
C1462  H1556   1.112   .     S
C1463  H1551   1.111   .     S
C1463  H1552   1.107   .     S
C1463  H1553   1.110   .     S
C1464  H1560   1.106   .     S
C1464  H1561   1.109   .     S
C1464  C1465   1.533   .     S
C1465  H1559   1.109   .     S
C1465  H1557   1.111   .     S
C1465  H1558   1.105   .     S
C1466  C1468   1.530   .     S
C1466  H1567   1.109   .     S
C1466  H1566   1.101   .     S
C1467  O1592   1.308   .     A
C1467  O1589   1.299   .     A
C1468  H1564   1.109   .     S
C1468  H1563   1.109   .     S
C1468  H1562   1.108   .     S
C1469  H1571   1.094   .     S
C1469  C1470   1.530   .     S
C1469  H1572   1.110   .     S
C1470  H1568   1.111   .     S
C1470  H1569   1.101   .     S
C1470  H1570   1.111   .     S
C1471  O1590   1.308   .     A
C1471  O1591   1.304   .     A
C1472  N1580   1.428   .     S
C1472  C404    1.423   1_655 S
C1472  N1377   1.389   1_655 S
Cu1473 O1597   1.979   .     S
Cu1473 N1573   2.027   .     S
Cu1473 Cu1474  2.698   .     S
Cu1473 O1585   1.978   .     S
Cu1474 O1598   1.968   .     S
Cu1474 O1595   1.991   .     S
Cu1474 N1577   2.027   .     S
Cu1475 N1578   2.027   .     S
Cu1475 O1590   1.979   .     S
Cu1475 O1587   1.991   .     S
Cu1475 Cu1476  2.698   .     S
Cu1476 N1579   2.027   .     S
Cu1476 O1586   1.978   .     S
Cu1476 O1591   1.968   .     S
H1477  N1580   1.022   .     S
H1478  N1584   1.042   .     S
H1479  N1574   1.036   .     S
H1480  N1574   1.041   .     S
H1481  N1575   1.045   .     S
H1482  N1575   1.045   .     S
H1483  N1576   1.043   .     S
H1484  N1576   1.045   .     S
H1510  N1581   1.041   .     S
H1521  N1382   1.036   1_655 S
H1526  C1252   1.110   1_655 S
H1532  N1582   1.039   .     S
H1543  N1383   1.043   1_655 S
H1554  N1583   1.044   .     S
H1565  N1584   1.027   .     S
N1580  H1288   1.043   1_655 S
N1581  H1299   1.036   1_655 S
O1588  Cu1076  1.991   1_565 S
O1589  Cu1076  1.979   1_565 S
O1592  Cu1075  1.968   1_565 S
O1593  Cu1274  1.978   1_655 S
O1594  Cu1273  1.991   1_655 S
O1596  Cu1274  1.979   1_655 S
O1599  Cu1273  1.968   1_655 S
O1600  Cu1075  1.978   1_565 S
C1601  O1795   1.310   .     A
C1601  O1785   1.303   .     A
C1601  C1630   1.494   .     S
C1602  N1781   1.437   .     S
C1602  C3      1.438   1_556 S
C1602  N1973   1.378   .     S
C1603  N1977   1.365   .     S
C1603  N1982   1.427   .     S
C1604  N1783   1.431   .     S
C1604  N1773   1.354   .     A
C1604  C272    1.423   1_456 S
C1605  N1784   1.431   .     S
C1605  N2179   1.384   .     S
C1606  N1778   1.379   .     A
C1606  N1774   1.438   .     S
C1606  C7      1.438   1_556 S
C1607  N1779   1.368   .     A
C1607  N1775   1.432   .     S
C1608  N1776   1.433   .     S
C1608  C5      1.429   1_556 S
C1608  N2178   1.360   .     S
C1609  C1636   1.523   .     S
C1609  C1620   1.402   .     A
C1609  C1628   1.404   .     A
C1610  C1627   1.422   .     A
C1610  C1621   1.407   .     A
C1610  C1638   1.523   .     S
C1611  C1618   1.408   .     A
C1611  C1640   1.533   .     S
C1611  C1627   1.425   .     A
C1612  C1629   1.480   .     S
C1612  O1793   1.295   .     A
C1612  O1794   1.313   .     A
C1613  C1628   1.405   .     A
C1613  C1642   1.525   .     S
C1613  C1619   1.408   .     A
C1614  C1644   1.523   .     S
C1614  C1630   1.423   .     A
C1614  C1625   1.399   .     A
C1615  C1647   1.531   .     S
C1615  C1629   1.433   .     A
C1615  C1626   1.403   .     A
C1616  C1649   1.520   .     S
C1616  C1629   1.413   .     A
C1616  C1622   1.400   .     A
C1617  C1651   1.507   .     S
C1617  C1630   1.436   .     A
C1617  C1624   1.416   .     A
C1618  C1653   1.529   .     S
C1618  C1632   1.410   .     A
C1619  C1631   1.422   .     A
C1619  C1655   1.522   .     S
C1620  C1658   1.530   .     S
C1620  C1631   1.422   .     A
C1621  C1632   1.404   .     A
C1621  C1660   1.526   .     S
C1622  C1635   1.421   .     A
C1622  C1662   1.519   .     S
C1623  O1799   1.301   .     A
C1623  O1796   1.305   .     A
C1623  C1628   1.474   .     S
C1624  C1664   1.524   .     S
C1624  C1633   1.404   .     A
C1625  C1666   1.526   .     S
C1625  C1633   1.405   .     A
C1626  C1669   1.514   .     S
C1626  C1635   1.413   .     A
C1627  C1634   1.490   .     S
C1631  C1671   1.486   .     S
C1632  C1667   1.474   .     S
C1633  C1656   1.472   .     S
C1634  O1798   1.305   .     A
C1634  O1797   1.308   .     A
C1635  C1645   1.474   .     S
C1636  H1689   1.103   .     S
C1636  C1637   1.530   .     S
C1636  H1690   1.105   .     S
C1637  H1685   1.111   .     S
C1637  H1686   1.108   .     S
C1637  H1687   1.109   .     S
C1638  C1639   1.524   .     S
C1638  H1695   1.112   .     S
C1638  H1694   1.106   .     S
C1639  H1693   1.106   .     S
C1639  H1691   1.102   .     S
C1639  H1692   1.104   .     S
C1640  H1701   1.106   .     S
C1640  C1641   1.528   .     S
C1640  H1700   1.105   .     S
C1641  H1696   1.111   .     S
C1641  H1697   1.105   .     S
C1641  H1698   1.111   .     S
C1642  H1706   1.110   .     S
C1642  C1643   1.526   .     S
C1642  H1705   1.111   .     S
C1643  H1704   1.105   .     S
C1643  H1702   1.109   .     S
C1643  H1703   1.105   .     S
C1644  C1646   1.524   .     S
C1644  H1712   1.111   .     S
C1644  H1711   1.107   .     S
C1645  O1800   1.290   .     A
C1645  O1788   1.313   .     A
C1646  H1708   1.104   .     S
C1646  H1707   1.111   .     S
C1646  H1709   1.110   .     S
C1647  H1716   1.093   .     S
C1647  C1648   1.531   .     S
C1647  H1717   1.105   .     S
C1648  H1715   1.106   .     S
C1648  H1714   1.111   .     S
C1648  H1713   1.111   .     S
C1649  H1723   1.105   .     S
C1649  H1722   1.102   .     S
C1649  C1650   1.529   .     S
C1650  H1720   1.111   .     S
C1650  H1719   1.110   .     S
C1650  H1718   1.110   .     S
C1651  H1728   1.103   .     S
C1651  C1652   1.534   .     S
C1651  H1727   1.094   .     S
C1652  H1725   1.108   .     S
C1652  H1724   1.111   .     S
C1652  H1926   1.110   1_455 S
C1653  C1654   1.528   .     S
C1653  H1733   1.096   .     S
C1653  H1734   1.103   .     S
C1654  H1730   1.110   .     S
C1654  H1731   1.107   .     S
C1654  H1729   1.100   .     S
C1655  H1738   1.105   .     S
C1655  H1739   1.112   .     S
C1655  C1657   1.524   .     S
C1656  O1787   1.292   .     A
C1656  O1786   1.310   .     A
C1657  H1737   1.107   .     S
C1657  H1736   1.105   .     S
C1657  H1735   1.100   .     S
C1658  H1745   1.111   .     S
C1658  C1659   1.530   .     S
C1658  H1744   1.105   .     S
C1659  H1742   1.111   .     S
C1659  H1740   1.111   .     S
C1659  H1741   1.107   .     S
C1660  C1661   1.527   .     S
C1660  H1750   1.109   .     S
C1660  H1749   1.111   .     S
C1661  H1748   1.105   .     S
C1661  H1747   1.105   .     S
C1661  H1746   1.105   .     S
C1662  H1755   1.107   .     S
C1662  C1663   1.526   .     S
C1662  H1756   1.112   .     S
C1663  H1751   1.111   .     S
C1663  H1752   1.107   .     S
C1663  H1753   1.110   .     S
C1664  H1760   1.106   .     S
C1664  H1761   1.109   .     S
C1664  C1665   1.533   .     S
C1665  H1759   1.109   .     S
C1665  H1757   1.111   .     S
C1665  H1758   1.105   .     S
C1666  C1668   1.530   .     S
C1666  H1767   1.109   .     S
C1666  H1766   1.101   .     S
C1667  O1792   1.308   .     A
C1667  O1789   1.299   .     A
C1668  H1764   1.109   .     S
C1668  H1763   1.109   .     S
C1668  H1762   1.108   .     S
C1669  H1771   1.094   .     S
C1669  C1670   1.530   .     S
C1669  H1772   1.110   .     S
C1670  H1768   1.111   .     S
C1670  H1769   1.101   .     S
C1670  H1770   1.111   .     S
C1671  O1790   1.308   .     A
C1671  O1791   1.304   .     A
C1672  N1780   1.428   .     S
C1672  N1977   1.389   .     S
Cu1673 O1797   1.979   .     S
Cu1673 N1773   2.027   .     S
Cu1673 Cu1674  2.698   .     S
Cu1673 O1785   1.978   .     S
Cu1673 O1994   1.991   1_455 S
Cu1673 O1999   1.968   1_455 S
Cu1674 O1798   1.968   .     S
Cu1674 O1795   1.991   .     S
Cu1674 N1777   2.027   .     S
Cu1674 O1993   1.978   1_455 S
Cu1674 O1996   1.979   1_455 S
Cu1675 N1778   2.027   .     S
Cu1675 O1790   1.979   .     S
Cu1675 O1787   1.991   .     S
Cu1675 Cu1676  2.698   .     S
Cu1675 O2192   1.968   1_545 S
Cu1675 O2200   1.978   1_545 S
Cu1676 N1779   2.027   .     S
Cu1676 O1786   1.978   .     S
Cu1676 O1791   1.968   .     S
Cu1676 O2188   1.991   1_545 S
Cu1676 O2189   1.979   1_545 S
H1677  N1780   1.022   .     S
H1678  N1784   1.042   .     S
H1679  N1774   1.036   .     S
H1680  N1774   1.041   .     S
H1681  N1775   1.045   .     S
H1682  N1775   1.045   .     S
H1683  N1776   1.043   .     S
H1684  N1776   1.045   .     S
H1688  N1980   1.043   1_455 S
H1699  N1981   1.036   1_455 S
H1710  N1781   1.041   .     S
H1721  N1982   1.036   .     S
H1726  C1852   1.110   .     S
H1732  N1782   1.039   .     S
H1743  N1983   1.043   .     S
H1754  N1783   1.044   .     S
H1765  N1784   1.027   .     S
N1773  C1802   1.378   1_455 S
N1777  C1872   1.389   1_455 S
N1777  C1803   1.365   1_455 S
N1778  C2008   1.360   1_545 S
N1779  C2005   1.384   1_545 S
N1780  H1888   1.043   .     S
N1781  H1899   1.036   .     S
N1782  C1803   1.427   1_455 S
N1782  H1921   1.036   1_455 S
N1783  H1943   1.043   1_455 S
O1788  Cu2076  1.991   .     S
O1789  Cu2076  1.979   .     S
O1792  Cu2075  1.968   .     S
O1793  Cu1874  1.978   .     S
O1794  Cu1873  1.991   .     S
O1796  Cu1874  1.979   .     S
O1799  Cu1873  1.968   .     S
O1800  Cu2075  1.978   .     S
C1801  O1995   1.310   .     A
C1801  O1985   1.303   .     A
C1801  C1830   1.494   .     S
C1802  N1981   1.437   .     S
C1802  C203    1.438   1_556 S
C1802  N1773   1.378   1_655 S
C1803  N1777   1.365   1_655 S
C1803  N1782   1.427   1_655 S
C1804  N1983   1.431   .     S
C1804  N1973   1.354   .     A
C1804  C72     1.423   1_556 S
C1805  N1984   1.431   .     S
C1805  N2379   1.384   .     S
C1806  N1978   1.379   .     A
C1806  N1974   1.438   .     S
C1806  C207    1.438   1_556 S
C1807  N1979   1.368   .     A
C1807  N1975   1.432   .     S
C1808  N1976   1.433   .     S
C1808  C205    1.429   1_556 S
C1808  N2378   1.360   .     S
C1809  C1836   1.523   .     S
C1809  C1820   1.402   .     A
C1809  C1828   1.404   .     A
C1810  C1827   1.422   .     A
C1810  C1821   1.407   .     A
C1810  C1838   1.523   .     S
C1811  C1818   1.408   .     A
C1811  C1840   1.533   .     S
C1811  C1827   1.425   .     A
C1812  C1829   1.480   .     S
C1812  O1993   1.295   .     A
C1812  O1994   1.313   .     A
C1813  C1828   1.405   .     A
C1813  C1842   1.525   .     S
C1813  C1819   1.408   .     A
C1814  C1844   1.523   .     S
C1814  C1830   1.423   .     A
C1814  C1825   1.399   .     A
C1815  C1847   1.531   .     S
C1815  C1829   1.433   .     A
C1815  C1826   1.403   .     A
C1816  C1849   1.520   .     S
C1816  C1829   1.413   .     A
C1816  C1822   1.400   .     A
C1817  C1851   1.507   .     S
C1817  C1830   1.436   .     A
C1817  C1824   1.416   .     A
C1818  C1853   1.529   .     S
C1818  C1832   1.410   .     A
C1819  C1831   1.422   .     A
C1819  C1855   1.522   .     S
C1820  C1858   1.530   .     S
C1820  C1831   1.422   .     A
C1821  C1832   1.404   .     A
C1821  C1860   1.526   .     S
C1822  C1835   1.421   .     A
C1822  C1862   1.519   .     S
C1823  O1999   1.301   .     A
C1823  O1996   1.305   .     A
C1823  C1828   1.474   .     S
C1824  C1864   1.524   .     S
C1824  C1833   1.404   .     A
C1825  C1866   1.526   .     S
C1825  C1833   1.405   .     A
C1826  C1869   1.514   .     S
C1826  C1835   1.413   .     A
C1827  C1834   1.490   .     S
C1831  C1871   1.486   .     S
C1832  C1867   1.474   .     S
C1833  C1856   1.472   .     S
C1834  O1998   1.305   .     A
C1834  O1997   1.308   .     A
C1835  C1845   1.474   .     S
C1836  H1889   1.103   .     S
C1836  C1837   1.530   .     S
C1836  H1890   1.105   .     S
C1837  H1885   1.111   .     S
C1837  H1886   1.108   .     S
C1837  H1887   1.109   .     S
C1838  C1839   1.524   .     S
C1838  H1895   1.112   .     S
C1838  H1894   1.106   .     S
C1839  H1893   1.106   .     S
C1839  H1891   1.102   .     S
C1839  H1892   1.104   .     S
C1840  H1901   1.106   .     S
C1840  C1841   1.528   .     S
C1840  H1900   1.105   .     S
C1841  H1896   1.111   .     S
C1841  H1897   1.105   .     S
C1841  H1898   1.111   .     S
C1842  H1906   1.110   .     S
C1842  C1843   1.526   .     S
C1842  H1905   1.111   .     S
C1843  H1904   1.105   .     S
C1843  H1902   1.109   .     S
C1843  H1903   1.105   .     S
C1844  C1846   1.524   .     S
C1844  H1912   1.111   .     S
C1844  H1911   1.107   .     S
C1845  O2000   1.290   .     A
C1845  O1988   1.313   .     A
C1846  H1908   1.104   .     S
C1846  H1907   1.111   .     S
C1846  H1909   1.110   .     S
C1847  H1916   1.093   .     S
C1847  C1848   1.531   .     S
C1847  H1917   1.105   .     S
C1848  H1915   1.106   .     S
C1848  H1914   1.111   .     S
C1848  H1913   1.111   .     S
C1849  H1923   1.105   .     S
C1849  H1922   1.102   .     S
C1849  C1850   1.529   .     S
C1850  H1920   1.111   .     S
C1850  H1919   1.110   .     S
C1850  H1918   1.110   .     S
C1851  H1928   1.103   .     S
C1851  C1852   1.534   .     S
C1851  H1927   1.094   .     S
C1852  H1925   1.108   .     S
C1852  H1924   1.111   .     S
C1853  C1854   1.528   .     S
C1853  H1933   1.096   .     S
C1853  H1934   1.103   .     S
C1854  H1930   1.110   .     S
C1854  H1931   1.107   .     S
C1854  H1929   1.100   .     S
C1855  H1938   1.105   .     S
C1855  H1939   1.112   .     S
C1855  C1857   1.524   .     S
C1856  O1987   1.292   .     A
C1856  O1986   1.310   .     A
C1857  H1937   1.107   .     S
C1857  H1936   1.105   .     S
C1857  H1935   1.100   .     S
C1858  H1945   1.111   .     S
C1858  C1859   1.530   .     S
C1858  H1944   1.105   .     S
C1859  H1942   1.111   .     S
C1859  H1940   1.111   .     S
C1859  H1941   1.107   .     S
C1860  C1861   1.527   .     S
C1860  H1950   1.109   .     S
C1860  H1949   1.111   .     S
C1861  H1948   1.105   .     S
C1861  H1947   1.105   .     S
C1861  H1946   1.105   .     S
C1862  H1955   1.107   .     S
C1862  C1863   1.526   .     S
C1862  H1956   1.112   .     S
C1863  H1951   1.111   .     S
C1863  H1952   1.107   .     S
C1863  H1953   1.110   .     S
C1864  H1960   1.106   .     S
C1864  H1961   1.109   .     S
C1864  C1865   1.533   .     S
C1865  H1959   1.109   .     S
C1865  H1957   1.111   .     S
C1865  H1958   1.105   .     S
C1866  C1868   1.530   .     S
C1866  H1967   1.109   .     S
C1866  H1966   1.101   .     S
C1867  O1992   1.308   .     A
C1867  O1989   1.299   .     A
C1868  H1964   1.109   .     S
C1868  H1963   1.109   .     S
C1868  H1962   1.108   .     S
C1869  H1971   1.094   .     S
C1869  C1870   1.530   .     S
C1869  H1972   1.110   .     S
C1870  H1968   1.111   .     S
C1870  H1969   1.101   .     S
C1870  H1970   1.111   .     S
C1871  O1990   1.308   .     A
C1871  O1991   1.304   .     A
C1872  N1980   1.428   .     S
C1872  C804    1.423   1_655 S
C1872  N1777   1.389   1_655 S
Cu1873 O1997   1.979   .     S
Cu1873 N1973   2.027   .     S
Cu1873 Cu1874  2.698   .     S
Cu1873 O1985   1.978   .     S
Cu1874 O1998   1.968   .     S
Cu1874 O1995   1.991   .     S
Cu1874 N1977   2.027   .     S
Cu1875 N1978   2.027   .     S
Cu1875 O1990   1.979   .     S
Cu1875 O1987   1.991   .     S
Cu1875 Cu1876  2.698   .     S
Cu1875 O2392   1.968   1_545 S
Cu1875 O2400   1.978   1_545 S
Cu1876 N1979   2.027   .     S
Cu1876 O1986   1.978   .     S
Cu1876 O1991   1.968   .     S
Cu1876 O2388   1.991   1_545 S
Cu1876 O2389   1.979   1_545 S
H1877  N1980   1.022   .     S
H1878  N1984   1.042   .     S
H1879  N1974   1.036   .     S
H1880  N1974   1.041   .     S
H1881  N1975   1.045   .     S
H1882  N1975   1.045   .     S
H1883  N1976   1.043   .     S
H1884  N1976   1.045   .     S
H1910  N1981   1.041   .     S
H1921  N1782   1.036   1_655 S
H1926  C1652   1.110   1_655 S
H1932  N1982   1.039   .     S
H1943  N1783   1.043   1_655 S
H1954  N1983   1.044   .     S
H1965  N1984   1.027   .     S
N1978  C2208   1.360   1_545 S
N1979  C2205   1.384   1_545 S
N1980  H1688   1.043   1_655 S
N1981  H1699   1.036   1_655 S
O1988  Cu2276  1.991   .     S
O1989  Cu2276  1.979   .     S
O1992  Cu2275  1.968   .     S
O1993  Cu1674  1.978   1_655 S
O1994  Cu1673  1.991   1_655 S
O1996  Cu1674  1.979   1_655 S
O1999  Cu1673  1.968   1_655 S
O2000  Cu2275  1.978   .     S
C2001  O2195   1.310   .     A
C2001  O2185   1.303   .     A
C2001  C2030   1.494   .     S
C2002  N2181   1.437   .     S
C2002  C403    1.438   1_556 S
C2002  N2373   1.378   .     S
C2003  N2377   1.365   .     S
C2003  N2382   1.427   .     S
C2004  N2183   1.431   .     S
C2004  N2173   1.354   .     A
C2004  C672    1.423   1_456 S
C2005  N2184   1.431   .     S
C2005  N1779   1.384   1_565 S
C2006  N2178   1.379   .     A
C2006  N2174   1.438   .     S
C2006  C407    1.438   1_556 S
C2007  N2179   1.368   .     A
C2007  N2175   1.432   .     S
C2008  N2176   1.433   .     S
C2008  C405    1.429   1_556 S
C2008  N1778   1.360   1_565 S
C2009  C2036   1.523   .     S
C2009  C2020   1.402   .     A
C2009  C2028   1.404   .     A
C2010  C2027   1.422   .     A
C2010  C2021   1.407   .     A
C2010  C2038   1.523   .     S
C2011  C2018   1.408   .     A
C2011  C2040   1.533   .     S
C2011  C2027   1.425   .     A
C2012  C2029   1.480   .     S
C2012  O2193   1.295   .     A
C2012  O2194   1.313   .     A
C2013  C2028   1.405   .     A
C2013  C2042   1.525   .     S
C2013  C2019   1.408   .     A
C2014  C2044   1.523   .     S
C2014  C2030   1.423   .     A
C2014  C2025   1.399   .     A
C2015  C2047   1.531   .     S
C2015  C2029   1.433   .     A
C2015  C2026   1.403   .     A
C2016  C2049   1.520   .     S
C2016  C2029   1.413   .     A
C2016  C2022   1.400   .     A
C2017  C2051   1.507   .     S
C2017  C2030   1.436   .     A
C2017  C2024   1.416   .     A
C2018  C2053   1.529   .     S
C2018  C2032   1.410   .     A
C2019  C2031   1.422   .     A
C2019  C2055   1.522   .     S
C2020  C2058   1.530   .     S
C2020  C2031   1.422   .     A
C2021  C2032   1.404   .     A
C2021  C2060   1.526   .     S
C2022  C2035   1.421   .     A
C2022  C2062   1.519   .     S
C2023  O2199   1.301   .     A
C2023  O2196   1.305   .     A
C2023  C2028   1.474   .     S
C2024  C2064   1.524   .     S
C2024  C2033   1.404   .     A
C2025  C2066   1.526   .     S
C2025  C2033   1.405   .     A
C2026  C2069   1.514   .     S
C2026  C2035   1.413   .     A
C2027  C2034   1.490   .     S
C2031  C2071   1.486   .     S
C2032  C2067   1.474   .     S
C2033  C2056   1.472   .     S
C2034  O2198   1.305   .     A
C2034  O2197   1.308   .     A
C2035  C2045   1.474   .     S
C2036  H2089   1.103   .     S
C2036  C2037   1.530   .     S
C2036  H2090   1.105   .     S
C2037  H2085   1.111   .     S
C2037  H2086   1.108   .     S
C2037  H2087   1.109   .     S
C2038  C2039   1.524   .     S
C2038  H2095   1.112   .     S
C2038  H2094   1.106   .     S
C2039  H2093   1.106   .     S
C2039  H2091   1.102   .     S
C2039  H2092   1.104   .     S
C2040  H2101   1.106   .     S
C2040  C2041   1.528   .     S
C2040  H2100   1.105   .     S
C2041  H2096   1.111   .     S
C2041  H2097   1.105   .     S
C2041  H2098   1.111   .     S
C2042  H2106   1.110   .     S
C2042  C2043   1.526   .     S
C2042  H2105   1.111   .     S
C2043  H2104   1.105   .     S
C2043  H2102   1.109   .     S
C2043  H2103   1.105   .     S
C2044  C2046   1.524   .     S
C2044  H2112   1.111   .     S
C2044  H2111   1.107   .     S
C2045  O2200   1.290   .     A
C2045  O2188   1.313   .     A
C2046  H2108   1.104   .     S
C2046  H2107   1.111   .     S
C2046  H2109   1.110   .     S
C2047  H2116   1.093   .     S
C2047  C2048   1.531   .     S
C2047  H2117   1.105   .     S
C2048  H2115   1.106   .     S
C2048  H2114   1.111   .     S
C2048  H2113   1.111   .     S
C2049  H2123   1.105   .     S
C2049  H2122   1.102   .     S
C2049  C2050   1.529   .     S
C2050  H2120   1.111   .     S
C2050  H2119   1.110   .     S
C2050  H2118   1.110   .     S
C2051  H2128   1.103   .     S
C2051  C2052   1.534   .     S
C2051  H2127   1.094   .     S
C2052  H2125   1.108   .     S
C2052  H2124   1.111   .     S
C2052  H2326   1.110   1_455 S
C2053  C2054   1.528   .     S
C2053  H2133   1.096   .     S
C2053  H2134   1.103   .     S
C2054  H2130   1.110   .     S
C2054  H2131   1.107   .     S
C2054  H2129   1.100   .     S
C2055  H2138   1.105   .     S
C2055  H2139   1.112   .     S
C2055  C2057   1.524   .     S
C2056  O2187   1.292   .     A
C2056  O2186   1.310   .     A
C2057  H2137   1.107   .     S
C2057  H2136   1.105   .     S
C2057  H2135   1.100   .     S
C2058  H2145   1.111   .     S
C2058  C2059   1.530   .     S
C2058  H2144   1.105   .     S
C2059  H2142   1.111   .     S
C2059  H2140   1.111   .     S
C2059  H2141   1.107   .     S
C2060  C2061   1.527   .     S
C2060  H2150   1.109   .     S
C2060  H2149   1.111   .     S
C2061  H2148   1.105   .     S
C2061  H2147   1.105   .     S
C2061  H2146   1.105   .     S
C2062  H2155   1.107   .     S
C2062  C2063   1.526   .     S
C2062  H2156   1.112   .     S
C2063  H2151   1.111   .     S
C2063  H2152   1.107   .     S
C2063  H2153   1.110   .     S
C2064  H2160   1.106   .     S
C2064  H2161   1.109   .     S
C2064  C2065   1.533   .     S
C2065  H2159   1.109   .     S
C2065  H2157   1.111   .     S
C2065  H2158   1.105   .     S
C2066  C2068   1.530   .     S
C2066  H2167   1.109   .     S
C2066  H2166   1.101   .     S
C2067  O2192   1.308   .     A
C2067  O2189   1.299   .     A
C2068  H2164   1.109   .     S
C2068  H2163   1.109   .     S
C2068  H2162   1.108   .     S
C2069  H2171   1.094   .     S
C2069  C2070   1.530   .     S
C2069  H2172   1.110   .     S
C2070  H2168   1.111   .     S
C2070  H2169   1.101   .     S
C2070  H2170   1.111   .     S
C2071  O2190   1.308   .     A
C2071  O2191   1.304   .     A
C2072  N2180   1.428   .     S
C2072  N2377   1.389   .     S
Cu2073 O2197   1.979   .     S
Cu2073 N2173   2.027   .     S
Cu2073 Cu2074  2.698   .     S
Cu2073 O2185   1.978   .     S
Cu2073 O2394   1.991   1_455 S
Cu2073 O2399   1.968   1_455 S
Cu2074 O2198   1.968   .     S
Cu2074 O2195   1.991   .     S
Cu2074 N2177   2.027   .     S
Cu2074 O2393   1.978   1_455 S
Cu2074 O2396   1.979   1_455 S
Cu2075 N2178   2.027   .     S
Cu2075 O2190   1.979   .     S
Cu2075 O2187   1.991   .     S
Cu2075 Cu2076  2.698   .     S
Cu2076 N2179   2.027   .     S
Cu2076 O2186   1.978   .     S
Cu2076 O2191   1.968   .     S
H2077  N2180   1.022   .     S
H2078  N2184   1.042   .     S
H2079  N2174   1.036   .     S
H2080  N2174   1.041   .     S
H2081  N2175   1.045   .     S
H2082  N2175   1.045   .     S
H2083  N2176   1.043   .     S
H2084  N2176   1.045   .     S
H2088  N2380   1.043   1_455 S
H2099  N2381   1.036   1_455 S
H2110  N2181   1.041   .     S
H2121  N2382   1.036   .     S
H2126  C2252   1.110   .     S
H2132  N2182   1.039   .     S
H2143  N2383   1.043   .     S
H2154  N2183   1.044   .     S
H2165  N2184   1.027   .     S
N2173  C2202   1.378   1_455 S
N2177  C2272   1.389   1_455 S
N2177  C2203   1.365   1_455 S
N2180  H2288   1.043   .     S
N2181  H2299   1.036   .     S
N2182  C2203   1.427   1_455 S
N2182  H2321   1.036   1_455 S
N2183  H2343   1.043   1_455 S
O2188  Cu1676  1.991   1_565 S
O2189  Cu1676  1.979   1_565 S
O2192  Cu1675  1.968   1_565 S
O2193  Cu2274  1.978   .     S
O2194  Cu2273  1.991   .     S
O2196  Cu2274  1.979   .     S
O2199  Cu2273  1.968   .     S
O2200  Cu1675  1.978   1_565 S
C2201  O2395   1.310   .     A
C2201  O2385   1.303   .     A
C2201  C2230   1.494   .     S
C2202  N2381   1.437   .     S
C2202  C603    1.438   1_556 S
C2202  N2173   1.378   1_655 S
C2203  N2177   1.365   1_655 S
C2203  N2182   1.427   1_655 S
C2204  N2383   1.431   .     S
C2204  N2373   1.354   .     A
C2204  C472    1.423   1_556 S
C2205  N2384   1.431   .     S
C2205  N1979   1.384   1_565 S
C2206  N2378   1.379   .     A
C2206  N2374   1.438   .     S
C2206  C607    1.438   1_556 S
C2207  N2379   1.368   .     A
C2207  N2375   1.432   .     S
C2208  N2376   1.433   .     S
C2208  C605    1.429   1_556 S
C2208  N1978   1.360   1_565 S
C2209  C2236   1.523   .     S
C2209  C2220   1.402   .     A
C2209  C2228   1.404   .     A
C2210  C2227   1.422   .     A
C2210  C2221   1.407   .     A
C2210  C2238   1.523   .     S
C2211  C2218   1.408   .     A
C2211  C2240   1.533   .     S
C2211  C2227   1.425   .     A
C2212  C2229   1.480   .     S
C2212  O2393   1.295   .     A
C2212  O2394   1.313   .     A
C2213  C2228   1.405   .     A
C2213  C2242   1.525   .     S
C2213  C2219   1.408   .     A
C2214  C2244   1.523   .     S
C2214  C2230   1.423   .     A
C2214  C2225   1.399   .     A
C2215  C2247   1.531   .     S
C2215  C2229   1.433   .     A
C2215  C2226   1.403   .     A
C2216  C2249   1.520   .     S
C2216  C2229   1.413   .     A
C2216  C2222   1.400   .     A
C2217  C2251   1.507   .     S
C2217  C2230   1.436   .     A
C2217  C2224   1.416   .     A
C2218  C2253   1.529   .     S
C2218  C2232   1.410   .     A
C2219  C2231   1.422   .     A
C2219  C2255   1.522   .     S
C2220  C2258   1.530   .     S
C2220  C2231   1.422   .     A
C2221  C2232   1.404   .     A
C2221  C2260   1.526   .     S
C2222  C2235   1.421   .     A
C2222  C2262   1.519   .     S
C2223  O2399   1.301   .     A
C2223  O2396   1.305   .     A
C2223  C2228   1.474   .     S
C2224  C2264   1.524   .     S
C2224  C2233   1.404   .     A
C2225  C2266   1.526   .     S
C2225  C2233   1.405   .     A
C2226  C2269   1.514   .     S
C2226  C2235   1.413   .     A
C2227  C2234   1.490   .     S
C2231  C2271   1.486   .     S
C2232  C2267   1.474   .     S
C2233  C2256   1.472   .     S
C2234  O2398   1.305   .     A
C2234  O2397   1.308   .     A
C2235  C2245   1.474   .     S
C2236  H2289   1.103   .     S
C2236  C2237   1.530   .     S
C2236  H2290   1.105   .     S
C2237  H2285   1.111   .     S
C2237  H2286   1.108   .     S
C2237  H2287   1.109   .     S
C2238  C2239   1.524   .     S
C2238  H2295   1.112   .     S
C2238  H2294   1.106   .     S
C2239  H2293   1.106   .     S
C2239  H2291   1.102   .     S
C2239  H2292   1.104   .     S
C2240  H2301   1.106   .     S
C2240  C2241   1.528   .     S
C2240  H2300   1.105   .     S
C2241  H2296   1.111   .     S
C2241  H2297   1.105   .     S
C2241  H2298   1.111   .     S
C2242  H2306   1.110   .     S
C2242  C2243   1.526   .     S
C2242  H2305   1.111   .     S
C2243  H2304   1.105   .     S
C2243  H2302   1.109   .     S
C2243  H2303   1.105   .     S
C2244  C2246   1.524   .     S
C2244  H2312   1.111   .     S
C2244  H2311   1.107   .     S
C2245  O2400   1.290   .     A
C2245  O2388   1.313   .     A
C2246  H2308   1.104   .     S
C2246  H2307   1.111   .     S
C2246  H2309   1.110   .     S
C2247  H2316   1.093   .     S
C2247  C2248   1.531   .     S
C2247  H2317   1.105   .     S
C2248  H2315   1.106   .     S
C2248  H2314   1.111   .     S
C2248  H2313   1.111   .     S
C2249  H2323   1.105   .     S
C2249  H2322   1.102   .     S
C2249  C2250   1.529   .     S
C2250  H2320   1.111   .     S
C2250  H2319   1.110   .     S
C2250  H2318   1.110   .     S
C2251  H2328   1.103   .     S
C2251  C2252   1.534   .     S
C2251  H2327   1.094   .     S
C2252  H2325   1.108   .     S
C2252  H2324   1.111   .     S
C2253  C2254   1.528   .     S
C2253  H2333   1.096   .     S
C2253  H2334   1.103   .     S
C2254  H2330   1.110   .     S
C2254  H2331   1.107   .     S
C2254  H2329   1.100   .     S
C2255  H2338   1.105   .     S
C2255  H2339   1.112   .     S
C2255  C2257   1.524   .     S
C2256  O2387   1.292   .     A
C2256  O2386   1.310   .     A
C2257  H2337   1.107   .     S
C2257  H2336   1.105   .     S
C2257  H2335   1.100   .     S
C2258  H2345   1.111   .     S
C2258  C2259   1.530   .     S
C2258  H2344   1.105   .     S
C2259  H2342   1.111   .     S
C2259  H2340   1.111   .     S
C2259  H2341   1.107   .     S
C2260  C2261   1.527   .     S
C2260  H2350   1.109   .     S
C2260  H2349   1.111   .     S
C2261  H2348   1.105   .     S
C2261  H2347   1.105   .     S
C2261  H2346   1.105   .     S
C2262  H2355   1.107   .     S
C2262  C2263   1.526   .     S
C2262  H2356   1.112   .     S
C2263  H2351   1.111   .     S
C2263  H2352   1.107   .     S
C2263  H2353   1.110   .     S
C2264  H2360   1.106   .     S
C2264  H2361   1.109   .     S
C2264  C2265   1.533   .     S
C2265  H2359   1.109   .     S
C2265  H2357   1.111   .     S
C2265  H2358   1.105   .     S
C2266  C2268   1.530   .     S
C2266  H2367   1.109   .     S
C2266  H2366   1.101   .     S
C2267  O2392   1.308   .     A
C2267  O2389   1.299   .     A
C2268  H2364   1.109   .     S
C2268  H2363   1.109   .     S
C2268  H2362   1.108   .     S
C2269  H2371   1.094   .     S
C2269  C2270   1.530   .     S
C2269  H2372   1.110   .     S
C2270  H2368   1.111   .     S
C2270  H2369   1.101   .     S
C2270  H2370   1.111   .     S
C2271  O2390   1.308   .     A
C2271  O2391   1.304   .     A
C2272  N2380   1.428   .     S
C2272  C1204   1.423   1_655 S
C2272  N2177   1.389   1_655 S
Cu2273 O2397   1.979   .     S
Cu2273 N2373   2.027   .     S
Cu2273 Cu2274  2.698   .     S
Cu2273 O2385   1.978   .     S
Cu2274 O2398   1.968   .     S
Cu2274 O2395   1.991   .     S
Cu2274 N2377   2.027   .     S
Cu2275 N2378   2.027   .     S
Cu2275 O2390   1.979   .     S
Cu2275 O2387   1.991   .     S
Cu2275 Cu2276  2.698   .     S
Cu2276 N2379   2.027   .     S
Cu2276 O2386   1.978   .     S
Cu2276 O2391   1.968   .     S
H2277  N2380   1.022   .     S
H2278  N2384   1.042   .     S
H2279  N2374   1.036   .     S
H2280  N2374   1.041   .     S
H2281  N2375   1.045   .     S
H2282  N2375   1.045   .     S
H2283  N2376   1.043   .     S
H2284  N2376   1.045   .     S
H2310  N2381   1.041   .     S
H2321  N2182   1.036   1_655 S
H2326  C2052   1.110   1_655 S
H2332  N2382   1.039   .     S
H2343  N2183   1.043   1_655 S
H2354  N2383   1.044   .     S
H2365  N2384   1.027   .     S
N2380  H2088   1.043   1_655 S
N2381  H2099   1.036   1_655 S
O2388  Cu1876  1.991   1_565 S
O2389  Cu1876  1.979   1_565 S
O2392  Cu1875  1.968   1_565 S
O2393  Cu2074  1.978   1_655 S
O2394  Cu2073  1.991   1_655 S
O2396  Cu2074  1.979   1_655 S
O2399  Cu2073  1.968   1_655 S
O2400  Cu1875  1.978   1_565 S
