data_str_m2_o2_o5_pcu_sym.54
_audit_creation_date              2020-01-03
_audit_creation_method            'Materials Studio'
_symmetry_space_group_name_H-M    'P1'
_symmetry_Int_Tables_number       1
_symmetry_cell_setting            triclinic
loop_
_symmetry_equiv_pos_as_xyz
  x,y,z
_cell_length_a                    30.3032
_cell_length_b                    27.6476
_cell_length_c                    27.2398
_cell_angle_alpha                 90.0152
_cell_angle_beta                  89.9343
_cell_angle_gamma                 90.0824
loop_
_atom_site_label
_atom_site_type_symbol
_atom_site_fract_x
_atom_site_fract_y
_atom_site_fract_z
_atom_site_U_iso_or_equiv
_atom_site_adp_type
_atom_site_occupancy
O1     O     0.18573   0.29072   0.16667   0.00000  Uiso   1.00
O2     O     0.31427   0.20929   0.16666   0.00000  Uiso   1.00
O3     O     0.31427   0.29072   0.16666   0.00000  Uiso   1.00
O4     O     0.18573   0.20929   0.16667   0.00000  Uiso   1.00
C5     C     0.16485   0.24998   0.16673   0.00000  Uiso   1.00
C6     C     0.33515   0.25006   0.16670   0.00000  Uiso   1.00
O7     O     0.25000   0.29071   0.09613   0.00000  Uiso   1.00
O8     O     0.25000   0.20929   0.23720   0.00000  Uiso   1.00
O9     O     0.25000   0.29071   0.23720   0.00000  Uiso   1.00
O10    O     0.25000   0.20929   0.09613   0.00000  Uiso   1.00
C11    C     0.22657   0.05337   0.20279   0.00000  Uiso   1.00
C12    C     0.22785   0.44661   0.12990   0.00000  Uiso   1.00
C13    C     0.27367   0.05349   0.13089   0.00000  Uiso   1.00
C14    C     0.27241   0.44659   0.20370   0.00000  Uiso   1.00
C15    C     0.25003   0.25000   0.07348   0.00000  Uiso   1.00
C16    C     0.25005   0.25000   0.25985   0.00000  Uiso   1.00
Cu17   Cu    0.25000   0.29822   0.16667   0.00000  Uiso   1.00
Cu18   Cu    0.25000   0.20179   0.16667   0.00000  Uiso   1.00
H19    H     0.21053   0.12476   0.23043   0.00000  Uiso   1.00
H20    H     0.21255   0.37538   0.10148   0.00000  Uiso   1.00
H21    H     0.28972   0.12472   0.10304   0.00000  Uiso   1.00
H22    H     0.28723   0.37512   0.23194   0.00000  Uiso   1.00
N23    N     0.25000   0.12935   0.16667   0.00000  Uiso   1.00
N24    N     0.25000   0.37066   0.16667   0.00000  Uiso   1.00
C25    C     0.25015   0.02728   0.16684   0.00000  Uiso   1.00
C26    C     0.25017   0.47272   0.16681   0.00000  Uiso   1.00
C27    C     0.25007   0.24999   0.02183   0.00000  Uiso   1.00
C28    C     0.25008   0.25000   0.31150   0.00000  Uiso   1.00
C29    C     0.04722   0.28909   0.18782   0.00000  Uiso   1.00
C30    C     0.45273   0.21054   0.18707   0.00000  Uiso   1.00
C31    C     0.45319   0.28995   0.14953   0.00000  Uiso   1.00
C32    C     0.04682   0.21081   0.14790   0.00000  Uiso   1.00
H33    H     0.02944   0.31873   0.20472   0.00000  Uiso   1.00
H34    H     0.47034   0.17970   0.20181   0.00000  Uiso   1.00
H35    H     0.47133   0.31991   0.13362   0.00000  Uiso   1.00
H36    H     0.02871   0.18126   0.13125   0.00000  Uiso   1.00
C37    C     0.09328   0.28997   0.18669   0.00000  Uiso   1.00
C38    C     0.40676   0.21060   0.18769   0.00000  Uiso   1.00
C39    C     0.40710   0.29070   0.14945   0.00000  Uiso   1.00
C40    C     0.09292   0.21000   0.14798   0.00000  Uiso   1.00
C41    C     0.11641   0.24998   0.16711   0.00000  Uiso   1.00
C42    C     0.38357   0.25031   0.16765   0.00000  Uiso   1.00
C43    C     0.02408   0.24994   0.16813   0.00000  Uiso   1.00
C44    C     0.47591   0.25017   0.16839   0.00000  Uiso   1.00
C45    C     0.22759   0.10464   0.20219   0.00000  Uiso   1.00
C46    C     0.22882   0.39539   0.13037   0.00000  Uiso   1.00
C47    C     0.27248   0.10467   0.13125   0.00000  Uiso   1.00
C48    C     0.27125   0.39531   0.20305   0.00000  Uiso   1.00
O49    O     0.11579   0.32759   0.20909   0.00000  Uiso   1.00
C50    C     0.11157   0.36966   0.18017   0.00000  Uiso   1.00
H51    H     0.12147   0.36302   0.14135   0.00000  Uiso   1.00
H52    H     0.13402   0.39779   0.19506   0.00000  Uiso   1.00
H53    H     0.07744   0.38424   0.18183   0.00000  Uiso   1.00
O54    O     0.38477   0.17070   0.20617   0.00000  Uiso   1.00
C55    C     0.37922   0.17710   0.25716   0.00000  Uiso   1.00
H56    H     0.36072   0.14562   0.27189   0.00000  Uiso   1.00
H57    H     0.35956   0.21012   0.26544   0.00000  Uiso   1.00
H58    H     0.41160   0.17856   0.27635   0.00000  Uiso   1.00
O59    O     0.38509   0.32842   0.12676   0.00000  Uiso   1.00
C60    C     0.38864   0.37027   0.15614   0.00000  Uiso   1.00
H61    H     0.37758   0.36336   0.19453   0.00000  Uiso   1.00
H62    H     0.36674   0.39852   0.14063   0.00000  Uiso   1.00
H63    H     0.42285   0.38483   0.15583   0.00000  Uiso   1.00
O64    O     0.11507   0.17263   0.12479   0.00000  Uiso   1.00
C65    C     0.11096   0.13020   0.15320   0.00000  Uiso   1.00
H66    H     0.12110   0.13637   0.19199   0.00000  Uiso   1.00
H67    H     0.13328   0.10232   0.13769   0.00000  Uiso   1.00
H68    H     0.07680   0.11559   0.15168   0.00000  Uiso   1.00
O69    O     0.20534   0.02837   0.24004   0.00000  Uiso   1.00
C70    C     0.15959   0.03735   0.23790   0.00000  Uiso   1.00
H71    H     0.14626   0.03263   0.20011   0.00000  Uiso   1.00
H72    H     0.15170   0.07395   0.25223   0.00000  Uiso   1.00
H73    H     0.14253   0.01075   0.26180   0.00000  Uiso   1.00
O74    O     0.20755   0.47148   0.09206   0.00000  Uiso   1.00
C75    C     0.16157   0.46386   0.09442   0.00000  Uiso   1.00
H76    H     0.14825   0.47060   0.13193   0.00000  Uiso   1.00
H77    H     0.15280   0.42685   0.08183   0.00000  Uiso   1.00
H78    H     0.14529   0.48981   0.06925   0.00000  Uiso   1.00
O79    O     0.29573   0.02886   0.09409   0.00000  Uiso   1.00
C80    C     0.34157   0.03504   0.10045   0.00000  Uiso   1.00
H81    H     0.35218   0.02543   0.13835   0.00000  Uiso   1.00
H82    H     0.35189   0.07259   0.09136   0.00000  Uiso   1.00
H83    H     0.35898   0.01038   0.07482   0.00000  Uiso   1.00
O84    O     0.29232   0.47164   0.24181   0.00000  Uiso   1.00
C85    C     0.33782   0.46105   0.24311   0.00000  Uiso   1.00
H86    H     0.35340   0.46402   0.20619   0.00000  Uiso   1.00
H87    H     0.34382   0.42473   0.25917   0.00000  Uiso   1.00
H88    H     0.35428   0.48787   0.26725   0.00000  Uiso   1.00
O89    O     0.68573   0.29072   0.16667   0.00000  Uiso   1.00
O90    O     0.81427   0.20929   0.16666   0.00000  Uiso   1.00
O91    O     0.81427   0.29072   0.16666   0.00000  Uiso   1.00
O92    O     0.68573   0.20929   0.16667   0.00000  Uiso   1.00
C93    C     0.66485   0.24998   0.16673   0.00000  Uiso   1.00
C94    C     0.83515   0.25006   0.16670   0.00000  Uiso   1.00
O95    O     0.75000   0.29071   0.09613   0.00000  Uiso   1.00
O96    O     0.75000   0.20929   0.23720   0.00000  Uiso   1.00
O97    O     0.75000   0.29071   0.23720   0.00000  Uiso   1.00
O98    O     0.75000   0.20929   0.09613   0.00000  Uiso   1.00
C99    C     0.72657   0.05337   0.20279   0.00000  Uiso   1.00
C100   C     0.72785   0.44661   0.12990   0.00000  Uiso   1.00
C101   C     0.77367   0.05349   0.13089   0.00000  Uiso   1.00
C102   C     0.77241   0.44659   0.20370   0.00000  Uiso   1.00
C103   C     0.75003   0.25000   0.07348   0.00000  Uiso   1.00
C104   C     0.75005   0.25000   0.25985   0.00000  Uiso   1.00
Cu105  Cu    0.75000   0.29822   0.16667   0.00000  Uiso   1.00
Cu106  Cu    0.75000   0.20179   0.16667   0.00000  Uiso   1.00
H107   H     0.71053   0.12476   0.23043   0.00000  Uiso   1.00
H108   H     0.71255   0.37538   0.10148   0.00000  Uiso   1.00
H109   H     0.78972   0.12472   0.10304   0.00000  Uiso   1.00
H110   H     0.78723   0.37512   0.23194   0.00000  Uiso   1.00
N111   N     0.75000   0.12935   0.16667   0.00000  Uiso   1.00
N112   N     0.75000   0.37066   0.16667   0.00000  Uiso   1.00
C113   C     0.75015   0.02728   0.16684   0.00000  Uiso   1.00
C114   C     0.75017   0.47272   0.16681   0.00000  Uiso   1.00
C115   C     0.75007   0.24999   0.02183   0.00000  Uiso   1.00
C116   C     0.75008   0.25000   0.31150   0.00000  Uiso   1.00
C117   C     0.54722   0.28909   0.18782   0.00000  Uiso   1.00
C118   C     0.95273   0.21054   0.18707   0.00000  Uiso   1.00
C119   C     0.95319   0.28995   0.14953   0.00000  Uiso   1.00
C120   C     0.54682   0.21081   0.14790   0.00000  Uiso   1.00
H121   H     0.52944   0.31873   0.20472   0.00000  Uiso   1.00
H122   H     0.97034   0.17970   0.20181   0.00000  Uiso   1.00
H123   H     0.97133   0.31991   0.13362   0.00000  Uiso   1.00
H124   H     0.52871   0.18126   0.13125   0.00000  Uiso   1.00
C125   C     0.59328   0.28997   0.18669   0.00000  Uiso   1.00
C126   C     0.90676   0.21060   0.18769   0.00000  Uiso   1.00
C127   C     0.90710   0.29070   0.14945   0.00000  Uiso   1.00
C128   C     0.59292   0.21000   0.14798   0.00000  Uiso   1.00
C129   C     0.61641   0.24998   0.16711   0.00000  Uiso   1.00
C130   C     0.88357   0.25031   0.16765   0.00000  Uiso   1.00
C131   C     0.52408   0.24994   0.16813   0.00000  Uiso   1.00
C132   C     0.97591   0.25017   0.16839   0.00000  Uiso   1.00
C133   C     0.72759   0.10464   0.20219   0.00000  Uiso   1.00
C134   C     0.72882   0.39539   0.13037   0.00000  Uiso   1.00
C135   C     0.77248   0.10467   0.13125   0.00000  Uiso   1.00
C136   C     0.77125   0.39531   0.20305   0.00000  Uiso   1.00
O137   O     0.61579   0.32759   0.20909   0.00000  Uiso   1.00
C138   C     0.61157   0.36966   0.18017   0.00000  Uiso   1.00
H139   H     0.62147   0.36302   0.14135   0.00000  Uiso   1.00
H140   H     0.63402   0.39779   0.19506   0.00000  Uiso   1.00
H141   H     0.57744   0.38424   0.18183   0.00000  Uiso   1.00
O142   O     0.88477   0.17070   0.20617   0.00000  Uiso   1.00
C143   C     0.87922   0.17710   0.25716   0.00000  Uiso   1.00
H144   H     0.86072   0.14562   0.27189   0.00000  Uiso   1.00
H145   H     0.85956   0.21012   0.26544   0.00000  Uiso   1.00
H146   H     0.91160   0.17856   0.27635   0.00000  Uiso   1.00
O147   O     0.88509   0.32842   0.12676   0.00000  Uiso   1.00
C148   C     0.88864   0.37027   0.15614   0.00000  Uiso   1.00
H149   H     0.87758   0.36336   0.19453   0.00000  Uiso   1.00
H150   H     0.86674   0.39852   0.14063   0.00000  Uiso   1.00
H151   H     0.92285   0.38483   0.15583   0.00000  Uiso   1.00
O152   O     0.61507   0.17263   0.12479   0.00000  Uiso   1.00
C153   C     0.61096   0.13020   0.15320   0.00000  Uiso   1.00
H154   H     0.62110   0.13637   0.19199   0.00000  Uiso   1.00
H155   H     0.63328   0.10232   0.13769   0.00000  Uiso   1.00
H156   H     0.57680   0.11559   0.15168   0.00000  Uiso   1.00
O157   O     0.70534   0.02837   0.24004   0.00000  Uiso   1.00
C158   C     0.65959   0.03735   0.23790   0.00000  Uiso   1.00
H159   H     0.64626   0.03263   0.20011   0.00000  Uiso   1.00
H160   H     0.65170   0.07395   0.25223   0.00000  Uiso   1.00
H161   H     0.64253   0.01075   0.26180   0.00000  Uiso   1.00
O162   O     0.70755   0.47148   0.09206   0.00000  Uiso   1.00
C163   C     0.66157   0.46386   0.09442   0.00000  Uiso   1.00
H164   H     0.64825   0.47060   0.13193   0.00000  Uiso   1.00
H165   H     0.65280   0.42685   0.08183   0.00000  Uiso   1.00
H166   H     0.64529   0.48981   0.06925   0.00000  Uiso   1.00
O167   O     0.79573   0.02886   0.09409   0.00000  Uiso   1.00
C168   C     0.84157   0.03504   0.10045   0.00000  Uiso   1.00
H169   H     0.85218   0.02543   0.13835   0.00000  Uiso   1.00
H170   H     0.85189   0.07259   0.09136   0.00000  Uiso   1.00
H171   H     0.85898   0.01038   0.07482   0.00000  Uiso   1.00
O172   O     0.79232   0.47164   0.24181   0.00000  Uiso   1.00
C173   C     0.83782   0.46105   0.24311   0.00000  Uiso   1.00
H174   H     0.85340   0.46402   0.20619   0.00000  Uiso   1.00
H175   H     0.84382   0.42473   0.25917   0.00000  Uiso   1.00
H176   H     0.85428   0.48787   0.26725   0.00000  Uiso   1.00
O177   O     0.18573   0.79072   0.16667   0.00000  Uiso   1.00
O178   O     0.31427   0.70929   0.16666   0.00000  Uiso   1.00
O179   O     0.31427   0.79072   0.16666   0.00000  Uiso   1.00
O180   O     0.18573   0.70929   0.16667   0.00000  Uiso   1.00
C181   C     0.16485   0.74998   0.16673   0.00000  Uiso   1.00
C182   C     0.33515   0.75006   0.16670   0.00000  Uiso   1.00
O183   O     0.25000   0.79071   0.09613   0.00000  Uiso   1.00
O184   O     0.25000   0.70929   0.23720   0.00000  Uiso   1.00
O185   O     0.25000   0.79071   0.23720   0.00000  Uiso   1.00
O186   O     0.25000   0.70929   0.09613   0.00000  Uiso   1.00
C187   C     0.22657   0.55337   0.20279   0.00000  Uiso   1.00
C188   C     0.22785   0.94661   0.12990   0.00000  Uiso   1.00
C189   C     0.27367   0.55349   0.13089   0.00000  Uiso   1.00
C190   C     0.27241   0.94659   0.20370   0.00000  Uiso   1.00
C191   C     0.25003   0.75000   0.07348   0.00000  Uiso   1.00
C192   C     0.25005   0.75000   0.25985   0.00000  Uiso   1.00
Cu193  Cu    0.25000   0.79822   0.16667   0.00000  Uiso   1.00
Cu194  Cu    0.25000   0.70179   0.16667   0.00000  Uiso   1.00
H195   H     0.21053   0.62476   0.23043   0.00000  Uiso   1.00
H196   H     0.21255   0.87538   0.10148   0.00000  Uiso   1.00
H197   H     0.28972   0.62472   0.10304   0.00000  Uiso   1.00
H198   H     0.28723   0.87512   0.23194   0.00000  Uiso   1.00
N199   N     0.25000   0.62935   0.16667   0.00000  Uiso   1.00
N200   N     0.25000   0.87066   0.16667   0.00000  Uiso   1.00
C201   C     0.25015   0.52728   0.16684   0.00000  Uiso   1.00
C202   C     0.25017   0.97272   0.16681   0.00000  Uiso   1.00
C203   C     0.25007   0.74999   0.02183   0.00000  Uiso   1.00
C204   C     0.25008   0.75000   0.31150   0.00000  Uiso   1.00
C205   C     0.04722   0.78909   0.18782   0.00000  Uiso   1.00
C206   C     0.45273   0.71054   0.18707   0.00000  Uiso   1.00
C207   C     0.45319   0.78995   0.14953   0.00000  Uiso   1.00
C208   C     0.04682   0.71081   0.14790   0.00000  Uiso   1.00
H209   H     0.02944   0.81873   0.20472   0.00000  Uiso   1.00
H210   H     0.47034   0.67970   0.20181   0.00000  Uiso   1.00
H211   H     0.47133   0.81991   0.13362   0.00000  Uiso   1.00
H212   H     0.02871   0.68126   0.13125   0.00000  Uiso   1.00
C213   C     0.09328   0.78997   0.18669   0.00000  Uiso   1.00
C214   C     0.40676   0.71060   0.18769   0.00000  Uiso   1.00
C215   C     0.40710   0.79070   0.14945   0.00000  Uiso   1.00
C216   C     0.09292   0.71000   0.14798   0.00000  Uiso   1.00
C217   C     0.11641   0.74998   0.16711   0.00000  Uiso   1.00
C218   C     0.38357   0.75031   0.16765   0.00000  Uiso   1.00
C219   C     0.02408   0.74994   0.16813   0.00000  Uiso   1.00
C220   C     0.47591   0.75017   0.16839   0.00000  Uiso   1.00
C221   C     0.22759   0.60464   0.20219   0.00000  Uiso   1.00
C222   C     0.22882   0.89539   0.13037   0.00000  Uiso   1.00
C223   C     0.27248   0.60467   0.13125   0.00000  Uiso   1.00
C224   C     0.27125   0.89531   0.20305   0.00000  Uiso   1.00
O225   O     0.11579   0.82759   0.20909   0.00000  Uiso   1.00
C226   C     0.11157   0.86966   0.18017   0.00000  Uiso   1.00
H227   H     0.12147   0.86302   0.14135   0.00000  Uiso   1.00
H228   H     0.13402   0.89779   0.19506   0.00000  Uiso   1.00
H229   H     0.07744   0.88424   0.18183   0.00000  Uiso   1.00
O230   O     0.38477   0.67070   0.20617   0.00000  Uiso   1.00
C231   C     0.37922   0.67710   0.25716   0.00000  Uiso   1.00
H232   H     0.36072   0.64562   0.27189   0.00000  Uiso   1.00
H233   H     0.35956   0.71012   0.26544   0.00000  Uiso   1.00
H234   H     0.41160   0.67856   0.27635   0.00000  Uiso   1.00
O235   O     0.38509   0.82842   0.12676   0.00000  Uiso   1.00
C236   C     0.38864   0.87027   0.15614   0.00000  Uiso   1.00
H237   H     0.37758   0.86336   0.19453   0.00000  Uiso   1.00
H238   H     0.36674   0.89852   0.14063   0.00000  Uiso   1.00
H239   H     0.42285   0.88483   0.15583   0.00000  Uiso   1.00
O240   O     0.11507   0.67263   0.12479   0.00000  Uiso   1.00
C241   C     0.11096   0.63020   0.15320   0.00000  Uiso   1.00
H242   H     0.12110   0.63637   0.19199   0.00000  Uiso   1.00
H243   H     0.13328   0.60232   0.13769   0.00000  Uiso   1.00
H244   H     0.07680   0.61559   0.15168   0.00000  Uiso   1.00
O245   O     0.20534   0.52837   0.24004   0.00000  Uiso   1.00
C246   C     0.15959   0.53735   0.23790   0.00000  Uiso   1.00
H247   H     0.14626   0.53263   0.20011   0.00000  Uiso   1.00
H248   H     0.15170   0.57395   0.25223   0.00000  Uiso   1.00
H249   H     0.14253   0.51075   0.26180   0.00000  Uiso   1.00
O250   O     0.20755   0.97148   0.09206   0.00000  Uiso   1.00
C251   C     0.16157   0.96386   0.09442   0.00000  Uiso   1.00
H252   H     0.14825   0.97060   0.13193   0.00000  Uiso   1.00
H253   H     0.15280   0.92685   0.08183   0.00000  Uiso   1.00
H254   H     0.14529   0.98981   0.06925   0.00000  Uiso   1.00
O255   O     0.29573   0.52886   0.09409   0.00000  Uiso   1.00
C256   C     0.34157   0.53504   0.10045   0.00000  Uiso   1.00
H257   H     0.35218   0.52543   0.13835   0.00000  Uiso   1.00
H258   H     0.35189   0.57259   0.09136   0.00000  Uiso   1.00
H259   H     0.35898   0.51038   0.07482   0.00000  Uiso   1.00
O260   O     0.29232   0.97164   0.24181   0.00000  Uiso   1.00
C261   C     0.33782   0.96105   0.24311   0.00000  Uiso   1.00
H262   H     0.35340   0.96402   0.20619   0.00000  Uiso   1.00
H263   H     0.34382   0.92473   0.25917   0.00000  Uiso   1.00
H264   H     0.35428   0.98787   0.26725   0.00000  Uiso   1.00
O265   O     0.68573   0.79072   0.16667   0.00000  Uiso   1.00
O266   O     0.81427   0.70929   0.16666   0.00000  Uiso   1.00
O267   O     0.81427   0.79072   0.16666   0.00000  Uiso   1.00
O268   O     0.68573   0.70929   0.16667   0.00000  Uiso   1.00
C269   C     0.66485   0.74998   0.16673   0.00000  Uiso   1.00
C270   C     0.83515   0.75006   0.16670   0.00000  Uiso   1.00
O271   O     0.75000   0.79071   0.09613   0.00000  Uiso   1.00
O272   O     0.75000   0.70929   0.23720   0.00000  Uiso   1.00
O273   O     0.75000   0.79071   0.23720   0.00000  Uiso   1.00
O274   O     0.75000   0.70929   0.09613   0.00000  Uiso   1.00
C275   C     0.72657   0.55337   0.20279   0.00000  Uiso   1.00
C276   C     0.72785   0.94661   0.12990   0.00000  Uiso   1.00
C277   C     0.77367   0.55349   0.13089   0.00000  Uiso   1.00
C278   C     0.77241   0.94659   0.20370   0.00000  Uiso   1.00
C279   C     0.75003   0.75000   0.07348   0.00000  Uiso   1.00
C280   C     0.75005   0.75000   0.25985   0.00000  Uiso   1.00
Cu281  Cu    0.75000   0.79822   0.16667   0.00000  Uiso   1.00
Cu282  Cu    0.75000   0.70179   0.16667   0.00000  Uiso   1.00
H283   H     0.71053   0.62476   0.23043   0.00000  Uiso   1.00
H284   H     0.71255   0.87538   0.10148   0.00000  Uiso   1.00
H285   H     0.78972   0.62472   0.10304   0.00000  Uiso   1.00
H286   H     0.78723   0.87512   0.23194   0.00000  Uiso   1.00
N287   N     0.75000   0.62935   0.16667   0.00000  Uiso   1.00
N288   N     0.75000   0.87066   0.16667   0.00000  Uiso   1.00
C289   C     0.75015   0.52728   0.16684   0.00000  Uiso   1.00
C290   C     0.75017   0.97272   0.16681   0.00000  Uiso   1.00
C291   C     0.75007   0.74999   0.02183   0.00000  Uiso   1.00
C292   C     0.75008   0.75000   0.31150   0.00000  Uiso   1.00
C293   C     0.54722   0.78909   0.18782   0.00000  Uiso   1.00
C294   C     0.95273   0.71054   0.18707   0.00000  Uiso   1.00
C295   C     0.95319   0.78995   0.14953   0.00000  Uiso   1.00
C296   C     0.54682   0.71081   0.14790   0.00000  Uiso   1.00
H297   H     0.52944   0.81873   0.20472   0.00000  Uiso   1.00
H298   H     0.97034   0.67970   0.20181   0.00000  Uiso   1.00
H299   H     0.97133   0.81991   0.13362   0.00000  Uiso   1.00
H300   H     0.52871   0.68126   0.13125   0.00000  Uiso   1.00
C301   C     0.59328   0.78997   0.18669   0.00000  Uiso   1.00
C302   C     0.90676   0.71060   0.18769   0.00000  Uiso   1.00
C303   C     0.90710   0.79070   0.14945   0.00000  Uiso   1.00
C304   C     0.59292   0.71000   0.14798   0.00000  Uiso   1.00
C305   C     0.61641   0.74998   0.16711   0.00000  Uiso   1.00
C306   C     0.88357   0.75031   0.16765   0.00000  Uiso   1.00
C307   C     0.52408   0.74994   0.16813   0.00000  Uiso   1.00
C308   C     0.97591   0.75017   0.16839   0.00000  Uiso   1.00
C309   C     0.72759   0.60464   0.20219   0.00000  Uiso   1.00
C310   C     0.72882   0.89539   0.13037   0.00000  Uiso   1.00
C311   C     0.77248   0.60467   0.13125   0.00000  Uiso   1.00
C312   C     0.77125   0.89531   0.20305   0.00000  Uiso   1.00
O313   O     0.61579   0.82759   0.20909   0.00000  Uiso   1.00
C314   C     0.61157   0.86966   0.18017   0.00000  Uiso   1.00
H315   H     0.62147   0.86302   0.14135   0.00000  Uiso   1.00
H316   H     0.63402   0.89779   0.19506   0.00000  Uiso   1.00
H317   H     0.57744   0.88424   0.18183   0.00000  Uiso   1.00
O318   O     0.88477   0.67070   0.20617   0.00000  Uiso   1.00
C319   C     0.87922   0.67710   0.25716   0.00000  Uiso   1.00
H320   H     0.86072   0.64562   0.27189   0.00000  Uiso   1.00
H321   H     0.85956   0.71012   0.26544   0.00000  Uiso   1.00
H322   H     0.91160   0.67856   0.27635   0.00000  Uiso   1.00
O323   O     0.88509   0.82842   0.12676   0.00000  Uiso   1.00
C324   C     0.88864   0.87027   0.15614   0.00000  Uiso   1.00
H325   H     0.87758   0.86336   0.19453   0.00000  Uiso   1.00
H326   H     0.86674   0.89852   0.14063   0.00000  Uiso   1.00
H327   H     0.92285   0.88483   0.15583   0.00000  Uiso   1.00
O328   O     0.61507   0.67263   0.12479   0.00000  Uiso   1.00
C329   C     0.61096   0.63020   0.15320   0.00000  Uiso   1.00
H330   H     0.62110   0.63637   0.19199   0.00000  Uiso   1.00
H331   H     0.63328   0.60232   0.13769   0.00000  Uiso   1.00
H332   H     0.57680   0.61559   0.15168   0.00000  Uiso   1.00
O333   O     0.70534   0.52837   0.24004   0.00000  Uiso   1.00
C334   C     0.65959   0.53735   0.23790   0.00000  Uiso   1.00
H335   H     0.64626   0.53263   0.20011   0.00000  Uiso   1.00
H336   H     0.65170   0.57395   0.25223   0.00000  Uiso   1.00
H337   H     0.64253   0.51075   0.26180   0.00000  Uiso   1.00
O338   O     0.70755   0.97148   0.09206   0.00000  Uiso   1.00
C339   C     0.66157   0.96386   0.09442   0.00000  Uiso   1.00
H340   H     0.64825   0.97060   0.13193   0.00000  Uiso   1.00
H341   H     0.65280   0.92685   0.08183   0.00000  Uiso   1.00
H342   H     0.64529   0.98981   0.06925   0.00000  Uiso   1.00
O343   O     0.79573   0.52886   0.09409   0.00000  Uiso   1.00
C344   C     0.84157   0.53504   0.10045   0.00000  Uiso   1.00
H345   H     0.85218   0.52543   0.13835   0.00000  Uiso   1.00
H346   H     0.85189   0.57259   0.09136   0.00000  Uiso   1.00
H347   H     0.85898   0.51038   0.07482   0.00000  Uiso   1.00
O348   O     0.79232   0.97164   0.24181   0.00000  Uiso   1.00
C349   C     0.83782   0.96105   0.24311   0.00000  Uiso   1.00
H350   H     0.85340   0.96402   0.20619   0.00000  Uiso   1.00
H351   H     0.84382   0.92473   0.25917   0.00000  Uiso   1.00
H352   H     0.85428   0.98787   0.26725   0.00000  Uiso   1.00
O353   O     0.18573   0.29072   0.50000   0.00000  Uiso   1.00
O354   O     0.31427   0.20929   0.50000   0.00000  Uiso   1.00
O355   O     0.31427   0.29072   0.50000   0.00000  Uiso   1.00
O356   O     0.18573   0.20929   0.50000   0.00000  Uiso   1.00
C357   C     0.16485   0.24998   0.50007   0.00000  Uiso   1.00
C358   C     0.33515   0.25006   0.50004   0.00000  Uiso   1.00
O359   O     0.25000   0.29071   0.42946   0.00000  Uiso   1.00
O360   O     0.25000   0.20929   0.57054   0.00000  Uiso   1.00
O361   O     0.25000   0.29071   0.57054   0.00000  Uiso   1.00
O362   O     0.25000   0.20929   0.42946   0.00000  Uiso   1.00
C363   C     0.22657   0.05337   0.53612   0.00000  Uiso   1.00
C364   C     0.22785   0.44661   0.46323   0.00000  Uiso   1.00
C365   C     0.27367   0.05349   0.46422   0.00000  Uiso   1.00
C366   C     0.27241   0.44659   0.53704   0.00000  Uiso   1.00
C367   C     0.25003   0.25000   0.40681   0.00000  Uiso   1.00
C368   C     0.25005   0.25000   0.59319   0.00000  Uiso   1.00
Cu369  Cu    0.25000   0.29822   0.50000   0.00000  Uiso   1.00
Cu370  Cu    0.25000   0.20179   0.50000   0.00000  Uiso   1.00
H371   H     0.21053   0.12476   0.56377   0.00000  Uiso   1.00
H372   H     0.21255   0.37538   0.43482   0.00000  Uiso   1.00
H373   H     0.28972   0.12472   0.43637   0.00000  Uiso   1.00
H374   H     0.28723   0.37512   0.56527   0.00000  Uiso   1.00
N375   N     0.25000   0.12935   0.50000   0.00000  Uiso   1.00
N376   N     0.25000   0.37066   0.50000   0.00000  Uiso   1.00
C377   C     0.25015   0.02728   0.50017   0.00000  Uiso   1.00
C378   C     0.25017   0.47272   0.50014   0.00000  Uiso   1.00
C379   C     0.25007   0.24999   0.35516   0.00000  Uiso   1.00
C380   C     0.25008   0.25000   0.64483   0.00000  Uiso   1.00
C381   C     0.04722   0.28909   0.52116   0.00000  Uiso   1.00
C382   C     0.45273   0.21054   0.52040   0.00000  Uiso   1.00
C383   C     0.45319   0.28995   0.48286   0.00000  Uiso   1.00
C384   C     0.04682   0.21081   0.48124   0.00000  Uiso   1.00
H385   H     0.02944   0.31873   0.53805   0.00000  Uiso   1.00
H386   H     0.47034   0.17970   0.53514   0.00000  Uiso   1.00
H387   H     0.47133   0.31991   0.46696   0.00000  Uiso   1.00
H388   H     0.02871   0.18126   0.46458   0.00000  Uiso   1.00
C389   C     0.09328   0.28997   0.52002   0.00000  Uiso   1.00
C390   C     0.40676   0.21060   0.52103   0.00000  Uiso   1.00
C391   C     0.40710   0.29070   0.48279   0.00000  Uiso   1.00
C392   C     0.09292   0.21000   0.48131   0.00000  Uiso   1.00
C393   C     0.11641   0.24998   0.50044   0.00000  Uiso   1.00
C394   C     0.38357   0.25031   0.50098   0.00000  Uiso   1.00
C395   C     0.02408   0.24994   0.50146   0.00000  Uiso   1.00
C396   C     0.47591   0.25017   0.50172   0.00000  Uiso   1.00
C397   C     0.22759   0.10464   0.53553   0.00000  Uiso   1.00
C398   C     0.22882   0.39539   0.46371   0.00000  Uiso   1.00
C399   C     0.27248   0.10467   0.46458   0.00000  Uiso   1.00
C400   C     0.27125   0.39531   0.53638   0.00000  Uiso   1.00
O401   O     0.11579   0.32759   0.54242   0.00000  Uiso   1.00
C402   C     0.11157   0.36966   0.51350   0.00000  Uiso   1.00
H403   H     0.12147   0.36302   0.47468   0.00000  Uiso   1.00
H404   H     0.13402   0.39779   0.52840   0.00000  Uiso   1.00
H405   H     0.07744   0.38424   0.51516   0.00000  Uiso   1.00
O406   O     0.38477   0.17070   0.53950   0.00000  Uiso   1.00
C407   C     0.37922   0.17710   0.59049   0.00000  Uiso   1.00
H408   H     0.36072   0.14562   0.60522   0.00000  Uiso   1.00
H409   H     0.35956   0.21012   0.59878   0.00000  Uiso   1.00
H410   H     0.41160   0.17856   0.60968   0.00000  Uiso   1.00
O411   O     0.38509   0.32842   0.46009   0.00000  Uiso   1.00
C412   C     0.38864   0.37027   0.48948   0.00000  Uiso   1.00
H413   H     0.37758   0.36336   0.52786   0.00000  Uiso   1.00
H414   H     0.36674   0.39852   0.47396   0.00000  Uiso   1.00
H415   H     0.42285   0.38483   0.48917   0.00000  Uiso   1.00
O416   O     0.11507   0.17263   0.45812   0.00000  Uiso   1.00
C417   C     0.11096   0.13020   0.48653   0.00000  Uiso   1.00
H418   H     0.12110   0.13637   0.52533   0.00000  Uiso   1.00
H419   H     0.13328   0.10232   0.47102   0.00000  Uiso   1.00
H420   H     0.07680   0.11559   0.48501   0.00000  Uiso   1.00
O421   O     0.20534   0.02837   0.57337   0.00000  Uiso   1.00
C422   C     0.15959   0.03735   0.57124   0.00000  Uiso   1.00
H423   H     0.14626   0.03263   0.53344   0.00000  Uiso   1.00
H424   H     0.15170   0.07395   0.58556   0.00000  Uiso   1.00
H425   H     0.14253   0.01075   0.59514   0.00000  Uiso   1.00
O426   O     0.20755   0.47148   0.42540   0.00000  Uiso   1.00
C427   C     0.16157   0.46386   0.42775   0.00000  Uiso   1.00
H428   H     0.14825   0.47060   0.46527   0.00000  Uiso   1.00
H429   H     0.15280   0.42685   0.41516   0.00000  Uiso   1.00
H430   H     0.14529   0.48981   0.40258   0.00000  Uiso   1.00
O431   O     0.29573   0.02886   0.42742   0.00000  Uiso   1.00
C432   C     0.34157   0.03504   0.43379   0.00000  Uiso   1.00
H433   H     0.35218   0.02543   0.47169   0.00000  Uiso   1.00
H434   H     0.35189   0.07259   0.42469   0.00000  Uiso   1.00
H435   H     0.35898   0.01038   0.40815   0.00000  Uiso   1.00
O436   O     0.29232   0.47164   0.57514   0.00000  Uiso   1.00
C437   C     0.33782   0.46105   0.57645   0.00000  Uiso   1.00
H438   H     0.35340   0.46402   0.53952   0.00000  Uiso   1.00
H439   H     0.34382   0.42473   0.59250   0.00000  Uiso   1.00
H440   H     0.35428   0.48787   0.60059   0.00000  Uiso   1.00
O441   O     0.68573   0.29072   0.50000   0.00000  Uiso   1.00
O442   O     0.81427   0.20929   0.50000   0.00000  Uiso   1.00
O443   O     0.81427   0.29072   0.50000   0.00000  Uiso   1.00
O444   O     0.68573   0.20929   0.50000   0.00000  Uiso   1.00
C445   C     0.66485   0.24998   0.50007   0.00000  Uiso   1.00
C446   C     0.83515   0.25006   0.50004   0.00000  Uiso   1.00
O447   O     0.75000   0.29071   0.42946   0.00000  Uiso   1.00
O448   O     0.75000   0.20929   0.57054   0.00000  Uiso   1.00
O449   O     0.75000   0.29071   0.57054   0.00000  Uiso   1.00
O450   O     0.75000   0.20929   0.42946   0.00000  Uiso   1.00
C451   C     0.72657   0.05337   0.53612   0.00000  Uiso   1.00
C452   C     0.72785   0.44661   0.46323   0.00000  Uiso   1.00
C453   C     0.77367   0.05349   0.46422   0.00000  Uiso   1.00
C454   C     0.77241   0.44659   0.53704   0.00000  Uiso   1.00
C455   C     0.75003   0.25000   0.40681   0.00000  Uiso   1.00
C456   C     0.75005   0.25000   0.59319   0.00000  Uiso   1.00
Cu457  Cu    0.75000   0.29822   0.50000   0.00000  Uiso   1.00
Cu458  Cu    0.75000   0.20179   0.50000   0.00000  Uiso   1.00
H459   H     0.71053   0.12476   0.56377   0.00000  Uiso   1.00
H460   H     0.71255   0.37538   0.43482   0.00000  Uiso   1.00
H461   H     0.78972   0.12472   0.43637   0.00000  Uiso   1.00
H462   H     0.78723   0.37512   0.56527   0.00000  Uiso   1.00
N463   N     0.75000   0.12935   0.50000   0.00000  Uiso   1.00
N464   N     0.75000   0.37066   0.50000   0.00000  Uiso   1.00
C465   C     0.75015   0.02728   0.50017   0.00000  Uiso   1.00
C466   C     0.75017   0.47272   0.50014   0.00000  Uiso   1.00
C467   C     0.75007   0.24999   0.35516   0.00000  Uiso   1.00
C468   C     0.75008   0.25000   0.64483   0.00000  Uiso   1.00
C469   C     0.54722   0.28909   0.52116   0.00000  Uiso   1.00
C470   C     0.95273   0.21054   0.52040   0.00000  Uiso   1.00
C471   C     0.95319   0.28995   0.48286   0.00000  Uiso   1.00
C472   C     0.54682   0.21081   0.48124   0.00000  Uiso   1.00
H473   H     0.52944   0.31873   0.53805   0.00000  Uiso   1.00
H474   H     0.97034   0.17970   0.53514   0.00000  Uiso   1.00
H475   H     0.97133   0.31991   0.46696   0.00000  Uiso   1.00
H476   H     0.52871   0.18126   0.46458   0.00000  Uiso   1.00
C477   C     0.59328   0.28997   0.52002   0.00000  Uiso   1.00
C478   C     0.90676   0.21060   0.52103   0.00000  Uiso   1.00
C479   C     0.90710   0.29070   0.48279   0.00000  Uiso   1.00
C480   C     0.59292   0.21000   0.48131   0.00000  Uiso   1.00
C481   C     0.61641   0.24998   0.50044   0.00000  Uiso   1.00
C482   C     0.88357   0.25031   0.50098   0.00000  Uiso   1.00
C483   C     0.52408   0.24994   0.50146   0.00000  Uiso   1.00
C484   C     0.97591   0.25017   0.50172   0.00000  Uiso   1.00
C485   C     0.72759   0.10464   0.53553   0.00000  Uiso   1.00
C486   C     0.72882   0.39539   0.46371   0.00000  Uiso   1.00
C487   C     0.77248   0.10467   0.46458   0.00000  Uiso   1.00
C488   C     0.77125   0.39531   0.53638   0.00000  Uiso   1.00
O489   O     0.61579   0.32759   0.54242   0.00000  Uiso   1.00
C490   C     0.61157   0.36966   0.51350   0.00000  Uiso   1.00
H491   H     0.62147   0.36302   0.47468   0.00000  Uiso   1.00
H492   H     0.63402   0.39779   0.52840   0.00000  Uiso   1.00
H493   H     0.57744   0.38424   0.51516   0.00000  Uiso   1.00
O494   O     0.88477   0.17070   0.53950   0.00000  Uiso   1.00
C495   C     0.87922   0.17710   0.59049   0.00000  Uiso   1.00
H496   H     0.86072   0.14562   0.60522   0.00000  Uiso   1.00
H497   H     0.85956   0.21012   0.59878   0.00000  Uiso   1.00
H498   H     0.91160   0.17856   0.60968   0.00000  Uiso   1.00
O499   O     0.88509   0.32842   0.46009   0.00000  Uiso   1.00
C500   C     0.88864   0.37027   0.48948   0.00000  Uiso   1.00
H501   H     0.87758   0.36336   0.52786   0.00000  Uiso   1.00
H502   H     0.86674   0.39852   0.47396   0.00000  Uiso   1.00
H503   H     0.92285   0.38483   0.48917   0.00000  Uiso   1.00
O504   O     0.61507   0.17263   0.45812   0.00000  Uiso   1.00
C505   C     0.61096   0.13020   0.48653   0.00000  Uiso   1.00
H506   H     0.62110   0.13637   0.52533   0.00000  Uiso   1.00
H507   H     0.63328   0.10232   0.47102   0.00000  Uiso   1.00
H508   H     0.57680   0.11559   0.48501   0.00000  Uiso   1.00
O509   O     0.70534   0.02837   0.57337   0.00000  Uiso   1.00
C510   C     0.65959   0.03735   0.57124   0.00000  Uiso   1.00
H511   H     0.64626   0.03263   0.53344   0.00000  Uiso   1.00
H512   H     0.65170   0.07395   0.58556   0.00000  Uiso   1.00
H513   H     0.64253   0.01075   0.59514   0.00000  Uiso   1.00
O514   O     0.70755   0.47148   0.42540   0.00000  Uiso   1.00
C515   C     0.66157   0.46386   0.42775   0.00000  Uiso   1.00
H516   H     0.64825   0.47060   0.46527   0.00000  Uiso   1.00
H517   H     0.65280   0.42685   0.41516   0.00000  Uiso   1.00
H518   H     0.64529   0.48981   0.40258   0.00000  Uiso   1.00
O519   O     0.79573   0.02886   0.42742   0.00000  Uiso   1.00
C520   C     0.84157   0.03504   0.43379   0.00000  Uiso   1.00
H521   H     0.85218   0.02543   0.47169   0.00000  Uiso   1.00
H522   H     0.85189   0.07259   0.42469   0.00000  Uiso   1.00
H523   H     0.85898   0.01038   0.40815   0.00000  Uiso   1.00
O524   O     0.79232   0.47164   0.57514   0.00000  Uiso   1.00
C525   C     0.83782   0.46105   0.57645   0.00000  Uiso   1.00
H526   H     0.85340   0.46402   0.53952   0.00000  Uiso   1.00
H527   H     0.84382   0.42473   0.59250   0.00000  Uiso   1.00
H528   H     0.85428   0.48787   0.60059   0.00000  Uiso   1.00
O529   O     0.18573   0.79072   0.50000   0.00000  Uiso   1.00
O530   O     0.31427   0.70929   0.50000   0.00000  Uiso   1.00
O531   O     0.31427   0.79072   0.50000   0.00000  Uiso   1.00
O532   O     0.18573   0.70929   0.50000   0.00000  Uiso   1.00
C533   C     0.16485   0.74998   0.50007   0.00000  Uiso   1.00
C534   C     0.33515   0.75006   0.50004   0.00000  Uiso   1.00
O535   O     0.25000   0.79071   0.42946   0.00000  Uiso   1.00
O536   O     0.25000   0.70929   0.57054   0.00000  Uiso   1.00
O537   O     0.25000   0.79071   0.57054   0.00000  Uiso   1.00
O538   O     0.25000   0.70929   0.42946   0.00000  Uiso   1.00
C539   C     0.22657   0.55337   0.53612   0.00000  Uiso   1.00
C540   C     0.22785   0.94661   0.46323   0.00000  Uiso   1.00
C541   C     0.27367   0.55349   0.46422   0.00000  Uiso   1.00
C542   C     0.27241   0.94659   0.53704   0.00000  Uiso   1.00
C543   C     0.25003   0.75000   0.40681   0.00000  Uiso   1.00
C544   C     0.25005   0.75000   0.59319   0.00000  Uiso   1.00
Cu545  Cu    0.25000   0.79822   0.50000   0.00000  Uiso   1.00
Cu546  Cu    0.25000   0.70179   0.50000   0.00000  Uiso   1.00
H547   H     0.21053   0.62476   0.56377   0.00000  Uiso   1.00
H548   H     0.21255   0.87538   0.43482   0.00000  Uiso   1.00
H549   H     0.28972   0.62472   0.43637   0.00000  Uiso   1.00
H550   H     0.28723   0.87512   0.56527   0.00000  Uiso   1.00
N551   N     0.25000   0.62935   0.50000   0.00000  Uiso   1.00
N552   N     0.25000   0.87066   0.50000   0.00000  Uiso   1.00
C553   C     0.25015   0.52728   0.50017   0.00000  Uiso   1.00
C554   C     0.25017   0.97272   0.50014   0.00000  Uiso   1.00
C555   C     0.25007   0.74999   0.35516   0.00000  Uiso   1.00
C556   C     0.25008   0.75000   0.64483   0.00000  Uiso   1.00
C557   C     0.04722   0.78909   0.52116   0.00000  Uiso   1.00
C558   C     0.45273   0.71054   0.52040   0.00000  Uiso   1.00
C559   C     0.45319   0.78995   0.48286   0.00000  Uiso   1.00
C560   C     0.04682   0.71081   0.48124   0.00000  Uiso   1.00
H561   H     0.02944   0.81873   0.53805   0.00000  Uiso   1.00
H562   H     0.47034   0.67970   0.53514   0.00000  Uiso   1.00
H563   H     0.47133   0.81991   0.46696   0.00000  Uiso   1.00
H564   H     0.02871   0.68126   0.46458   0.00000  Uiso   1.00
C565   C     0.09328   0.78997   0.52002   0.00000  Uiso   1.00
C566   C     0.40676   0.71060   0.52103   0.00000  Uiso   1.00
C567   C     0.40710   0.79070   0.48279   0.00000  Uiso   1.00
C568   C     0.09292   0.71000   0.48131   0.00000  Uiso   1.00
C569   C     0.11641   0.74998   0.50044   0.00000  Uiso   1.00
C570   C     0.38357   0.75031   0.50098   0.00000  Uiso   1.00
C571   C     0.02408   0.74994   0.50146   0.00000  Uiso   1.00
C572   C     0.47591   0.75017   0.50172   0.00000  Uiso   1.00
C573   C     0.22759   0.60464   0.53553   0.00000  Uiso   1.00
C574   C     0.22882   0.89539   0.46371   0.00000  Uiso   1.00
C575   C     0.27248   0.60467   0.46458   0.00000  Uiso   1.00
C576   C     0.27125   0.89531   0.53638   0.00000  Uiso   1.00
O577   O     0.11579   0.82759   0.54242   0.00000  Uiso   1.00
C578   C     0.11157   0.86966   0.51350   0.00000  Uiso   1.00
H579   H     0.12147   0.86302   0.47468   0.00000  Uiso   1.00
H580   H     0.13402   0.89779   0.52840   0.00000  Uiso   1.00
H581   H     0.07744   0.88424   0.51516   0.00000  Uiso   1.00
O582   O     0.38477   0.67070   0.53950   0.00000  Uiso   1.00
C583   C     0.37922   0.67710   0.59049   0.00000  Uiso   1.00
H584   H     0.36072   0.64562   0.60522   0.00000  Uiso   1.00
H585   H     0.35956   0.71012   0.59878   0.00000  Uiso   1.00
H586   H     0.41160   0.67856   0.60968   0.00000  Uiso   1.00
O587   O     0.38509   0.82842   0.46009   0.00000  Uiso   1.00
C588   C     0.38864   0.87027   0.48948   0.00000  Uiso   1.00
H589   H     0.37758   0.86336   0.52786   0.00000  Uiso   1.00
H590   H     0.36674   0.89852   0.47396   0.00000  Uiso   1.00
H591   H     0.42285   0.88483   0.48917   0.00000  Uiso   1.00
O592   O     0.11507   0.67263   0.45812   0.00000  Uiso   1.00
C593   C     0.11096   0.63020   0.48653   0.00000  Uiso   1.00
H594   H     0.12110   0.63637   0.52533   0.00000  Uiso   1.00
H595   H     0.13328   0.60232   0.47102   0.00000  Uiso   1.00
H596   H     0.07680   0.61559   0.48501   0.00000  Uiso   1.00
O597   O     0.20534   0.52837   0.57337   0.00000  Uiso   1.00
C598   C     0.15959   0.53735   0.57124   0.00000  Uiso   1.00
H599   H     0.14626   0.53263   0.53344   0.00000  Uiso   1.00
H600   H     0.15170   0.57395   0.58556   0.00000  Uiso   1.00
H601   H     0.14253   0.51075   0.59514   0.00000  Uiso   1.00
O602   O     0.20755   0.97148   0.42540   0.00000  Uiso   1.00
C603   C     0.16157   0.96386   0.42775   0.00000  Uiso   1.00
H604   H     0.14825   0.97060   0.46527   0.00000  Uiso   1.00
H605   H     0.15280   0.92685   0.41516   0.00000  Uiso   1.00
H606   H     0.14529   0.98981   0.40258   0.00000  Uiso   1.00
O607   O     0.29573   0.52886   0.42742   0.00000  Uiso   1.00
C608   C     0.34157   0.53504   0.43379   0.00000  Uiso   1.00
H609   H     0.35218   0.52543   0.47169   0.00000  Uiso   1.00
H610   H     0.35189   0.57259   0.42469   0.00000  Uiso   1.00
H611   H     0.35898   0.51038   0.40815   0.00000  Uiso   1.00
O612   O     0.29232   0.97164   0.57514   0.00000  Uiso   1.00
C613   C     0.33782   0.96105   0.57645   0.00000  Uiso   1.00
H614   H     0.35340   0.96402   0.53952   0.00000  Uiso   1.00
H615   H     0.34382   0.92473   0.59250   0.00000  Uiso   1.00
H616   H     0.35428   0.98787   0.60059   0.00000  Uiso   1.00
O617   O     0.68573   0.79072   0.50000   0.00000  Uiso   1.00
O618   O     0.81427   0.70929   0.50000   0.00000  Uiso   1.00
O619   O     0.81427   0.79072   0.50000   0.00000  Uiso   1.00
O620   O     0.68573   0.70929   0.50000   0.00000  Uiso   1.00
C621   C     0.66485   0.74998   0.50007   0.00000  Uiso   1.00
C622   C     0.83515   0.75006   0.50004   0.00000  Uiso   1.00
O623   O     0.75000   0.79071   0.42946   0.00000  Uiso   1.00
O624   O     0.75000   0.70929   0.57054   0.00000  Uiso   1.00
O625   O     0.75000   0.79071   0.57054   0.00000  Uiso   1.00
O626   O     0.75000   0.70929   0.42946   0.00000  Uiso   1.00
C627   C     0.72657   0.55337   0.53612   0.00000  Uiso   1.00
C628   C     0.72785   0.94661   0.46323   0.00000  Uiso   1.00
C629   C     0.77367   0.55349   0.46422   0.00000  Uiso   1.00
C630   C     0.77241   0.94659   0.53704   0.00000  Uiso   1.00
C631   C     0.75003   0.75000   0.40681   0.00000  Uiso   1.00
C632   C     0.75005   0.75000   0.59319   0.00000  Uiso   1.00
Cu633  Cu    0.75000   0.79822   0.50000   0.00000  Uiso   1.00
Cu634  Cu    0.75000   0.70179   0.50000   0.00000  Uiso   1.00
H635   H     0.71053   0.62476   0.56377   0.00000  Uiso   1.00
H636   H     0.71255   0.87538   0.43482   0.00000  Uiso   1.00
H637   H     0.78972   0.62472   0.43637   0.00000  Uiso   1.00
H638   H     0.78723   0.87512   0.56527   0.00000  Uiso   1.00
N639   N     0.75000   0.62935   0.50000   0.00000  Uiso   1.00
N640   N     0.75000   0.87066   0.50000   0.00000  Uiso   1.00
C641   C     0.75015   0.52728   0.50017   0.00000  Uiso   1.00
C642   C     0.75017   0.97272   0.50014   0.00000  Uiso   1.00
C643   C     0.75007   0.74999   0.35516   0.00000  Uiso   1.00
C644   C     0.75008   0.75000   0.64483   0.00000  Uiso   1.00
C645   C     0.54722   0.78909   0.52116   0.00000  Uiso   1.00
C646   C     0.95273   0.71054   0.52040   0.00000  Uiso   1.00
C647   C     0.95319   0.78995   0.48286   0.00000  Uiso   1.00
C648   C     0.54682   0.71081   0.48124   0.00000  Uiso   1.00
H649   H     0.52944   0.81873   0.53805   0.00000  Uiso   1.00
H650   H     0.97034   0.67970   0.53514   0.00000  Uiso   1.00
H651   H     0.97133   0.81991   0.46696   0.00000  Uiso   1.00
H652   H     0.52871   0.68126   0.46458   0.00000  Uiso   1.00
C653   C     0.59328   0.78997   0.52002   0.00000  Uiso   1.00
C654   C     0.90676   0.71060   0.52103   0.00000  Uiso   1.00
C655   C     0.90710   0.79070   0.48279   0.00000  Uiso   1.00
C656   C     0.59292   0.71000   0.48131   0.00000  Uiso   1.00
C657   C     0.61641   0.74998   0.50044   0.00000  Uiso   1.00
C658   C     0.88357   0.75031   0.50098   0.00000  Uiso   1.00
C659   C     0.52408   0.74994   0.50146   0.00000  Uiso   1.00
C660   C     0.97591   0.75017   0.50172   0.00000  Uiso   1.00
C661   C     0.72759   0.60464   0.53553   0.00000  Uiso   1.00
C662   C     0.72882   0.89539   0.46371   0.00000  Uiso   1.00
C663   C     0.77248   0.60467   0.46458   0.00000  Uiso   1.00
C664   C     0.77125   0.89531   0.53638   0.00000  Uiso   1.00
O665   O     0.61579   0.82759   0.54242   0.00000  Uiso   1.00
C666   C     0.61157   0.86966   0.51350   0.00000  Uiso   1.00
H667   H     0.62147   0.86302   0.47468   0.00000  Uiso   1.00
H668   H     0.63402   0.89779   0.52840   0.00000  Uiso   1.00
H669   H     0.57744   0.88424   0.51516   0.00000  Uiso   1.00
O670   O     0.88477   0.67070   0.53950   0.00000  Uiso   1.00
C671   C     0.87922   0.67710   0.59049   0.00000  Uiso   1.00
H672   H     0.86072   0.64562   0.60522   0.00000  Uiso   1.00
H673   H     0.85956   0.71012   0.59878   0.00000  Uiso   1.00
H674   H     0.91160   0.67856   0.60968   0.00000  Uiso   1.00
O675   O     0.88509   0.82842   0.46009   0.00000  Uiso   1.00
C676   C     0.88864   0.87027   0.48948   0.00000  Uiso   1.00
H677   H     0.87758   0.86336   0.52786   0.00000  Uiso   1.00
H678   H     0.86674   0.89852   0.47396   0.00000  Uiso   1.00
H679   H     0.92285   0.88483   0.48917   0.00000  Uiso   1.00
O680   O     0.61507   0.67263   0.45812   0.00000  Uiso   1.00
C681   C     0.61096   0.63020   0.48653   0.00000  Uiso   1.00
H682   H     0.62110   0.63637   0.52533   0.00000  Uiso   1.00
H683   H     0.63328   0.60232   0.47102   0.00000  Uiso   1.00
H684   H     0.57680   0.61559   0.48501   0.00000  Uiso   1.00
O685   O     0.70534   0.52837   0.57337   0.00000  Uiso   1.00
C686   C     0.65959   0.53735   0.57124   0.00000  Uiso   1.00
H687   H     0.64626   0.53263   0.53344   0.00000  Uiso   1.00
H688   H     0.65170   0.57395   0.58556   0.00000  Uiso   1.00
H689   H     0.64253   0.51075   0.59514   0.00000  Uiso   1.00
O690   O     0.70755   0.97148   0.42540   0.00000  Uiso   1.00
C691   C     0.66157   0.96386   0.42775   0.00000  Uiso   1.00
H692   H     0.64825   0.97060   0.46527   0.00000  Uiso   1.00
H693   H     0.65280   0.92685   0.41516   0.00000  Uiso   1.00
H694   H     0.64529   0.98981   0.40258   0.00000  Uiso   1.00
O695   O     0.79573   0.52886   0.42742   0.00000  Uiso   1.00
C696   C     0.84157   0.53504   0.43379   0.00000  Uiso   1.00
H697   H     0.85218   0.52543   0.47169   0.00000  Uiso   1.00
H698   H     0.85189   0.57259   0.42469   0.00000  Uiso   1.00
H699   H     0.85898   0.51038   0.40815   0.00000  Uiso   1.00
O700   O     0.79232   0.97164   0.57514   0.00000  Uiso   1.00
C701   C     0.83782   0.96105   0.57645   0.00000  Uiso   1.00
H702   H     0.85340   0.96402   0.53952   0.00000  Uiso   1.00
H703   H     0.84382   0.92473   0.59250   0.00000  Uiso   1.00
H704   H     0.85428   0.98787   0.60059   0.00000  Uiso   1.00
O705   O     0.18573   0.29072   0.83334   0.00000  Uiso   1.00
O706   O     0.31427   0.20929   0.83333   0.00000  Uiso   1.00
O707   O     0.31427   0.29072   0.83333   0.00000  Uiso   1.00
O708   O     0.18573   0.20929   0.83334   0.00000  Uiso   1.00
C709   C     0.16485   0.24998   0.83340   0.00000  Uiso   1.00
C710   C     0.33515   0.25006   0.83337   0.00000  Uiso   1.00
O711   O     0.25000   0.29071   0.76280   0.00000  Uiso   1.00
O712   O     0.25000   0.20929   0.90387   0.00000  Uiso   1.00
O713   O     0.25000   0.29071   0.90387   0.00000  Uiso   1.00
O714   O     0.25000   0.20929   0.76280   0.00000  Uiso   1.00
C715   C     0.22657   0.05337   0.86945   0.00000  Uiso   1.00
C716   C     0.22785   0.44661   0.79657   0.00000  Uiso   1.00
C717   C     0.27367   0.05349   0.79755   0.00000  Uiso   1.00
C718   C     0.27241   0.44659   0.87037   0.00000  Uiso   1.00
C719   C     0.25003   0.25000   0.74015   0.00000  Uiso   1.00
C720   C     0.25005   0.25000   0.92652   0.00000  Uiso   1.00
Cu721  Cu    0.25000   0.29822   0.83333   0.00000  Uiso   1.00
Cu722  Cu    0.25000   0.20179   0.83333   0.00000  Uiso   1.00
H723   H     0.21053   0.12476   0.89710   0.00000  Uiso   1.00
H724   H     0.21255   0.37538   0.76815   0.00000  Uiso   1.00
H725   H     0.28972   0.12472   0.76971   0.00000  Uiso   1.00
H726   H     0.28723   0.37512   0.89861   0.00000  Uiso   1.00
N727   N     0.25000   0.12935   0.83333   0.00000  Uiso   1.00
N728   N     0.25000   0.37066   0.83333   0.00000  Uiso   1.00
C729   C     0.25015   0.02728   0.83351   0.00000  Uiso   1.00
C730   C     0.25017   0.47272   0.83347   0.00000  Uiso   1.00
C731   C     0.25007   0.24999   0.68849   0.00000  Uiso   1.00
C732   C     0.25008   0.25000   0.97817   0.00000  Uiso   1.00
C733   C     0.04722   0.28909   0.85449   0.00000  Uiso   1.00
C734   C     0.45273   0.21054   0.85374   0.00000  Uiso   1.00
C735   C     0.45319   0.28995   0.81619   0.00000  Uiso   1.00
C736   C     0.04682   0.21081   0.81457   0.00000  Uiso   1.00
H737   H     0.02944   0.31873   0.87138   0.00000  Uiso   1.00
H738   H     0.47034   0.17970   0.86847   0.00000  Uiso   1.00
H739   H     0.47133   0.31991   0.80029   0.00000  Uiso   1.00
H740   H     0.02871   0.18126   0.79791   0.00000  Uiso   1.00
C741   C     0.09328   0.28997   0.85335   0.00000  Uiso   1.00
C742   C     0.40676   0.21060   0.85436   0.00000  Uiso   1.00
C743   C     0.40710   0.29070   0.81612   0.00000  Uiso   1.00
C744   C     0.09292   0.21000   0.81464   0.00000  Uiso   1.00
C745   C     0.11641   0.24998   0.83378   0.00000  Uiso   1.00
C746   C     0.38357   0.25031   0.83431   0.00000  Uiso   1.00
C747   C     0.02408   0.24994   0.83480   0.00000  Uiso   1.00
C748   C     0.47591   0.25017   0.83505   0.00000  Uiso   1.00
C749   C     0.22759   0.10464   0.86886   0.00000  Uiso   1.00
C750   C     0.22882   0.39539   0.79704   0.00000  Uiso   1.00
C751   C     0.27248   0.10467   0.79792   0.00000  Uiso   1.00
C752   C     0.27125   0.39531   0.86972   0.00000  Uiso   1.00
O753   O     0.11579   0.32759   0.87576   0.00000  Uiso   1.00
C754   C     0.11157   0.36966   0.84683   0.00000  Uiso   1.00
H755   H     0.12147   0.36302   0.80802   0.00000  Uiso   1.00
H756   H     0.13402   0.39779   0.86173   0.00000  Uiso   1.00
H757   H     0.07744   0.38424   0.84850   0.00000  Uiso   1.00
O758   O     0.38477   0.17070   0.87284   0.00000  Uiso   1.00
C759   C     0.37922   0.17710   0.92382   0.00000  Uiso   1.00
H760   H     0.36072   0.14562   0.93856   0.00000  Uiso   1.00
H761   H     0.35956   0.21012   0.93211   0.00000  Uiso   1.00
H762   H     0.41160   0.17856   0.94302   0.00000  Uiso   1.00
O763   O     0.38509   0.32842   0.79343   0.00000  Uiso   1.00
C764   C     0.38864   0.37027   0.82281   0.00000  Uiso   1.00
H765   H     0.37758   0.36336   0.86120   0.00000  Uiso   1.00
H766   H     0.36674   0.39852   0.80729   0.00000  Uiso   1.00
H767   H     0.42285   0.38483   0.82250   0.00000  Uiso   1.00
O768   O     0.11507   0.17263   0.79146   0.00000  Uiso   1.00
C769   C     0.11096   0.13020   0.81986   0.00000  Uiso   1.00
H770   H     0.12110   0.13637   0.85866   0.00000  Uiso   1.00
H771   H     0.13328   0.10232   0.80435   0.00000  Uiso   1.00
H772   H     0.07680   0.11559   0.81834   0.00000  Uiso   1.00
O773   O     0.20534   0.02837   0.90671   0.00000  Uiso   1.00
C774   C     0.15959   0.03735   0.90457   0.00000  Uiso   1.00
H775   H     0.14626   0.03263   0.86677   0.00000  Uiso   1.00
H776   H     0.15170   0.07395   0.91890   0.00000  Uiso   1.00
H777   H     0.14253   0.01075   0.92847   0.00000  Uiso   1.00
O778   O     0.20755   0.47148   0.75873   0.00000  Uiso   1.00
C779   C     0.16157   0.46386   0.76108   0.00000  Uiso   1.00
H780   H     0.14825   0.47060   0.79860   0.00000  Uiso   1.00
H781   H     0.15280   0.42685   0.74850   0.00000  Uiso   1.00
H782   H     0.14529   0.48981   0.73591   0.00000  Uiso   1.00
O783   O     0.29573   0.02886   0.76076   0.00000  Uiso   1.00
C784   C     0.34157   0.03504   0.76712   0.00000  Uiso   1.00
H785   H     0.35218   0.02543   0.80502   0.00000  Uiso   1.00
H786   H     0.35189   0.07259   0.75802   0.00000  Uiso   1.00
H787   H     0.35898   0.01038   0.74149   0.00000  Uiso   1.00
O788   O     0.29232   0.47164   0.90848   0.00000  Uiso   1.00
C789   C     0.33782   0.46105   0.90978   0.00000  Uiso   1.00
H790   H     0.35340   0.46402   0.87285   0.00000  Uiso   1.00
H791   H     0.34382   0.42473   0.92583   0.00000  Uiso   1.00
H792   H     0.35428   0.48787   0.93392   0.00000  Uiso   1.00
O793   O     0.68573   0.29072   0.83334   0.00000  Uiso   1.00
O794   O     0.81427   0.20929   0.83333   0.00000  Uiso   1.00
O795   O     0.81427   0.29072   0.83333   0.00000  Uiso   1.00
O796   O     0.68573   0.20929   0.83334   0.00000  Uiso   1.00
C797   C     0.66485   0.24998   0.83340   0.00000  Uiso   1.00
C798   C     0.83515   0.25006   0.83337   0.00000  Uiso   1.00
O799   O     0.75000   0.29071   0.76280   0.00000  Uiso   1.00
O800   O     0.75000   0.20929   0.90387   0.00000  Uiso   1.00
O801   O     0.75000   0.29071   0.90387   0.00000  Uiso   1.00
O802   O     0.75000   0.20929   0.76280   0.00000  Uiso   1.00
C803   C     0.72657   0.05337   0.86945   0.00000  Uiso   1.00
C804   C     0.72785   0.44661   0.79657   0.00000  Uiso   1.00
C805   C     0.77367   0.05349   0.79755   0.00000  Uiso   1.00
C806   C     0.77241   0.44659   0.87037   0.00000  Uiso   1.00
C807   C     0.75003   0.25000   0.74015   0.00000  Uiso   1.00
C808   C     0.75005   0.25000   0.92652   0.00000  Uiso   1.00
Cu809  Cu    0.75000   0.29822   0.83333   0.00000  Uiso   1.00
Cu810  Cu    0.75000   0.20179   0.83333   0.00000  Uiso   1.00
H811   H     0.71053   0.12476   0.89710   0.00000  Uiso   1.00
H812   H     0.71255   0.37538   0.76815   0.00000  Uiso   1.00
H813   H     0.78972   0.12472   0.76971   0.00000  Uiso   1.00
H814   H     0.78723   0.37512   0.89861   0.00000  Uiso   1.00
N815   N     0.75000   0.12935   0.83333   0.00000  Uiso   1.00
N816   N     0.75000   0.37066   0.83333   0.00000  Uiso   1.00
C817   C     0.75015   0.02728   0.83351   0.00000  Uiso   1.00
C818   C     0.75017   0.47272   0.83347   0.00000  Uiso   1.00
C819   C     0.75007   0.24999   0.68849   0.00000  Uiso   1.00
C820   C     0.75008   0.25000   0.97817   0.00000  Uiso   1.00
C821   C     0.54722   0.28909   0.85449   0.00000  Uiso   1.00
C822   C     0.95273   0.21054   0.85374   0.00000  Uiso   1.00
C823   C     0.95319   0.28995   0.81619   0.00000  Uiso   1.00
C824   C     0.54682   0.21081   0.81457   0.00000  Uiso   1.00
H825   H     0.52944   0.31873   0.87138   0.00000  Uiso   1.00
H826   H     0.97034   0.17970   0.86847   0.00000  Uiso   1.00
H827   H     0.97133   0.31991   0.80029   0.00000  Uiso   1.00
H828   H     0.52871   0.18126   0.79791   0.00000  Uiso   1.00
C829   C     0.59328   0.28997   0.85335   0.00000  Uiso   1.00
C830   C     0.90676   0.21060   0.85436   0.00000  Uiso   1.00
C831   C     0.90710   0.29070   0.81612   0.00000  Uiso   1.00
C832   C     0.59292   0.21000   0.81464   0.00000  Uiso   1.00
C833   C     0.61641   0.24998   0.83378   0.00000  Uiso   1.00
C834   C     0.88357   0.25031   0.83431   0.00000  Uiso   1.00
C835   C     0.52408   0.24994   0.83480   0.00000  Uiso   1.00
C836   C     0.97591   0.25017   0.83505   0.00000  Uiso   1.00
C837   C     0.72759   0.10464   0.86886   0.00000  Uiso   1.00
C838   C     0.72882   0.39539   0.79704   0.00000  Uiso   1.00
C839   C     0.77248   0.10467   0.79792   0.00000  Uiso   1.00
C840   C     0.77125   0.39531   0.86972   0.00000  Uiso   1.00
O841   O     0.61579   0.32759   0.87576   0.00000  Uiso   1.00
C842   C     0.61157   0.36966   0.84683   0.00000  Uiso   1.00
H843   H     0.62147   0.36302   0.80802   0.00000  Uiso   1.00
H844   H     0.63402   0.39779   0.86173   0.00000  Uiso   1.00
H845   H     0.57744   0.38424   0.84850   0.00000  Uiso   1.00
O846   O     0.88477   0.17070   0.87284   0.00000  Uiso   1.00
C847   C     0.87922   0.17710   0.92382   0.00000  Uiso   1.00
H848   H     0.86072   0.14562   0.93856   0.00000  Uiso   1.00
H849   H     0.85956   0.21012   0.93211   0.00000  Uiso   1.00
H850   H     0.91160   0.17856   0.94302   0.00000  Uiso   1.00
O851   O     0.88509   0.32842   0.79343   0.00000  Uiso   1.00
C852   C     0.88864   0.37027   0.82281   0.00000  Uiso   1.00
H853   H     0.87758   0.36336   0.86120   0.00000  Uiso   1.00
H854   H     0.86674   0.39852   0.80729   0.00000  Uiso   1.00
H855   H     0.92285   0.38483   0.82250   0.00000  Uiso   1.00
O856   O     0.61507   0.17263   0.79146   0.00000  Uiso   1.00
C857   C     0.61096   0.13020   0.81986   0.00000  Uiso   1.00
H858   H     0.62110   0.13637   0.85866   0.00000  Uiso   1.00
H859   H     0.63328   0.10232   0.80435   0.00000  Uiso   1.00
H860   H     0.57680   0.11559   0.81834   0.00000  Uiso   1.00
O861   O     0.70534   0.02837   0.90671   0.00000  Uiso   1.00
C862   C     0.65959   0.03735   0.90457   0.00000  Uiso   1.00
H863   H     0.64626   0.03263   0.86677   0.00000  Uiso   1.00
H864   H     0.65170   0.07395   0.91890   0.00000  Uiso   1.00
H865   H     0.64253   0.01075   0.92847   0.00000  Uiso   1.00
O866   O     0.70755   0.47148   0.75873   0.00000  Uiso   1.00
C867   C     0.66157   0.46386   0.76108   0.00000  Uiso   1.00
H868   H     0.64825   0.47060   0.79860   0.00000  Uiso   1.00
H869   H     0.65280   0.42685   0.74850   0.00000  Uiso   1.00
H870   H     0.64529   0.48981   0.73591   0.00000  Uiso   1.00
O871   O     0.79573   0.02886   0.76076   0.00000  Uiso   1.00
C872   C     0.84157   0.03504   0.76712   0.00000  Uiso   1.00
H873   H     0.85218   0.02543   0.80502   0.00000  Uiso   1.00
H874   H     0.85189   0.07259   0.75802   0.00000  Uiso   1.00
H875   H     0.85898   0.01038   0.74149   0.00000  Uiso   1.00
O876   O     0.79232   0.47164   0.90848   0.00000  Uiso   1.00
C877   C     0.83782   0.46105   0.90978   0.00000  Uiso   1.00
H878   H     0.85340   0.46402   0.87285   0.00000  Uiso   1.00
H879   H     0.84382   0.42473   0.92583   0.00000  Uiso   1.00
H880   H     0.85428   0.48787   0.93392   0.00000  Uiso   1.00
O881   O     0.18573   0.79072   0.83334   0.00000  Uiso   1.00
O882   O     0.31427   0.70929   0.83333   0.00000  Uiso   1.00
O883   O     0.31427   0.79072   0.83333   0.00000  Uiso   1.00
O884   O     0.18573   0.70929   0.83334   0.00000  Uiso   1.00
C885   C     0.16485   0.74998   0.83340   0.00000  Uiso   1.00
C886   C     0.33515   0.75006   0.83337   0.00000  Uiso   1.00
O887   O     0.25000   0.79071   0.76280   0.00000  Uiso   1.00
O888   O     0.25000   0.70929   0.90387   0.00000  Uiso   1.00
O889   O     0.25000   0.79071   0.90387   0.00000  Uiso   1.00
O890   O     0.25000   0.70929   0.76280   0.00000  Uiso   1.00
C891   C     0.22657   0.55337   0.86945   0.00000  Uiso   1.00
C892   C     0.22785   0.94661   0.79657   0.00000  Uiso   1.00
C893   C     0.27367   0.55349   0.79755   0.00000  Uiso   1.00
C894   C     0.27241   0.94659   0.87037   0.00000  Uiso   1.00
C895   C     0.25003   0.75000   0.74015   0.00000  Uiso   1.00
C896   C     0.25005   0.75000   0.92652   0.00000  Uiso   1.00
Cu897  Cu    0.25000   0.79822   0.83333   0.00000  Uiso   1.00
Cu898  Cu    0.25000   0.70179   0.83333   0.00000  Uiso   1.00
H899   H     0.21053   0.62476   0.89710   0.00000  Uiso   1.00
H900   H     0.21255   0.87538   0.76815   0.00000  Uiso   1.00
H901   H     0.28972   0.62472   0.76971   0.00000  Uiso   1.00
H902   H     0.28723   0.87512   0.89861   0.00000  Uiso   1.00
N903   N     0.25000   0.62935   0.83333   0.00000  Uiso   1.00
N904   N     0.25000   0.87066   0.83333   0.00000  Uiso   1.00
C905   C     0.25015   0.52728   0.83351   0.00000  Uiso   1.00
C906   C     0.25017   0.97272   0.83347   0.00000  Uiso   1.00
C907   C     0.25007   0.74999   0.68849   0.00000  Uiso   1.00
C908   C     0.25008   0.75000   0.97817   0.00000  Uiso   1.00
C909   C     0.04722   0.78909   0.85449   0.00000  Uiso   1.00
C910   C     0.45273   0.71054   0.85374   0.00000  Uiso   1.00
C911   C     0.45319   0.78995   0.81619   0.00000  Uiso   1.00
C912   C     0.04682   0.71081   0.81457   0.00000  Uiso   1.00
H913   H     0.02944   0.81873   0.87138   0.00000  Uiso   1.00
H914   H     0.47034   0.67970   0.86847   0.00000  Uiso   1.00
H915   H     0.47133   0.81991   0.80029   0.00000  Uiso   1.00
H916   H     0.02871   0.68126   0.79791   0.00000  Uiso   1.00
C917   C     0.09328   0.78997   0.85335   0.00000  Uiso   1.00
C918   C     0.40676   0.71060   0.85436   0.00000  Uiso   1.00
C919   C     0.40710   0.79070   0.81612   0.00000  Uiso   1.00
C920   C     0.09292   0.71000   0.81464   0.00000  Uiso   1.00
C921   C     0.11641   0.74998   0.83378   0.00000  Uiso   1.00
C922   C     0.38357   0.75031   0.83431   0.00000  Uiso   1.00
C923   C     0.02408   0.74994   0.83480   0.00000  Uiso   1.00
C924   C     0.47591   0.75017   0.83505   0.00000  Uiso   1.00
C925   C     0.22759   0.60464   0.86886   0.00000  Uiso   1.00
C926   C     0.22882   0.89539   0.79704   0.00000  Uiso   1.00
C927   C     0.27248   0.60467   0.79792   0.00000  Uiso   1.00
C928   C     0.27125   0.89531   0.86972   0.00000  Uiso   1.00
O929   O     0.11579   0.82759   0.87576   0.00000  Uiso   1.00
C930   C     0.11157   0.86966   0.84683   0.00000  Uiso   1.00
H931   H     0.12147   0.86302   0.80802   0.00000  Uiso   1.00
H932   H     0.13402   0.89779   0.86173   0.00000  Uiso   1.00
H933   H     0.07744   0.88424   0.84850   0.00000  Uiso   1.00
O934   O     0.38477   0.67070   0.87284   0.00000  Uiso   1.00
C935   C     0.37922   0.67710   0.92382   0.00000  Uiso   1.00
H936   H     0.36072   0.64562   0.93856   0.00000  Uiso   1.00
H937   H     0.35956   0.71012   0.93211   0.00000  Uiso   1.00
H938   H     0.41160   0.67856   0.94302   0.00000  Uiso   1.00
O939   O     0.38509   0.82842   0.79343   0.00000  Uiso   1.00
C940   C     0.38864   0.87027   0.82281   0.00000  Uiso   1.00
H941   H     0.37758   0.86336   0.86120   0.00000  Uiso   1.00
H942   H     0.36674   0.89852   0.80729   0.00000  Uiso   1.00
H943   H     0.42285   0.88483   0.82250   0.00000  Uiso   1.00
O944   O     0.11507   0.67263   0.79146   0.00000  Uiso   1.00
C945   C     0.11096   0.63020   0.81986   0.00000  Uiso   1.00
H946   H     0.12110   0.63637   0.85866   0.00000  Uiso   1.00
H947   H     0.13328   0.60232   0.80435   0.00000  Uiso   1.00
H948   H     0.07680   0.61559   0.81834   0.00000  Uiso   1.00
O949   O     0.20534   0.52837   0.90671   0.00000  Uiso   1.00
C950   C     0.15959   0.53735   0.90457   0.00000  Uiso   1.00
H951   H     0.14626   0.53263   0.86677   0.00000  Uiso   1.00
H952   H     0.15170   0.57395   0.91890   0.00000  Uiso   1.00
H953   H     0.14253   0.51075   0.92847   0.00000  Uiso   1.00
O954   O     0.20755   0.97148   0.75873   0.00000  Uiso   1.00
C955   C     0.16157   0.96386   0.76108   0.00000  Uiso   1.00
H956   H     0.14825   0.97060   0.79860   0.00000  Uiso   1.00
H957   H     0.15280   0.92685   0.74850   0.00000  Uiso   1.00
H958   H     0.14529   0.98981   0.73591   0.00000  Uiso   1.00
O959   O     0.29573   0.52886   0.76076   0.00000  Uiso   1.00
C960   C     0.34157   0.53504   0.76712   0.00000  Uiso   1.00
H961   H     0.35218   0.52543   0.80502   0.00000  Uiso   1.00
H962   H     0.35189   0.57259   0.75802   0.00000  Uiso   1.00
H963   H     0.35898   0.51038   0.74149   0.00000  Uiso   1.00
O964   O     0.29232   0.97164   0.90848   0.00000  Uiso   1.00
C965   C     0.33782   0.96105   0.90978   0.00000  Uiso   1.00
H966   H     0.35340   0.96402   0.87285   0.00000  Uiso   1.00
H967   H     0.34382   0.92473   0.92583   0.00000  Uiso   1.00
H968   H     0.35428   0.98787   0.93392   0.00000  Uiso   1.00
O969   O     0.68573   0.79072   0.83334   0.00000  Uiso   1.00
O970   O     0.81427   0.70929   0.83333   0.00000  Uiso   1.00
O971   O     0.81427   0.79072   0.83333   0.00000  Uiso   1.00
O972   O     0.68573   0.70929   0.83334   0.00000  Uiso   1.00
C973   C     0.66485   0.74998   0.83340   0.00000  Uiso   1.00
C974   C     0.83515   0.75006   0.83337   0.00000  Uiso   1.00
O975   O     0.75000   0.79071   0.76280   0.00000  Uiso   1.00
O976   O     0.75000   0.70929   0.90387   0.00000  Uiso   1.00
O977   O     0.75000   0.79071   0.90387   0.00000  Uiso   1.00
O978   O     0.75000   0.70929   0.76280   0.00000  Uiso   1.00
C979   C     0.72657   0.55337   0.86945   0.00000  Uiso   1.00
C980   C     0.72785   0.94661   0.79657   0.00000  Uiso   1.00
C981   C     0.77367   0.55349   0.79755   0.00000  Uiso   1.00
C982   C     0.77241   0.94659   0.87037   0.00000  Uiso   1.00
C983   C     0.75003   0.75000   0.74015   0.00000  Uiso   1.00
C984   C     0.75005   0.75000   0.92652   0.00000  Uiso   1.00
Cu985  Cu    0.75000   0.79822   0.83333   0.00000  Uiso   1.00
Cu986  Cu    0.75000   0.70179   0.83333   0.00000  Uiso   1.00
H987   H     0.71053   0.62476   0.89710   0.00000  Uiso   1.00
H988   H     0.71255   0.87538   0.76815   0.00000  Uiso   1.00
H989   H     0.78972   0.62472   0.76971   0.00000  Uiso   1.00
H990   H     0.78723   0.87512   0.89861   0.00000  Uiso   1.00
N991   N     0.75000   0.62935   0.83333   0.00000  Uiso   1.00
N992   N     0.75000   0.87066   0.83333   0.00000  Uiso   1.00
C993   C     0.75015   0.52728   0.83351   0.00000  Uiso   1.00
C994   C     0.75017   0.97272   0.83347   0.00000  Uiso   1.00
C995   C     0.75007   0.74999   0.68849   0.00000  Uiso   1.00
C996   C     0.75008   0.75000   0.97817   0.00000  Uiso   1.00
C997   C     0.54722   0.78909   0.85449   0.00000  Uiso   1.00
C998   C     0.95273   0.71054   0.85374   0.00000  Uiso   1.00
C999   C     0.95319   0.78995   0.81619   0.00000  Uiso   1.00
C1000  C     0.54682   0.71081   0.81457   0.00000  Uiso   1.00
H1001  H     0.52944   0.81873   0.87138   0.00000  Uiso   1.00
H1002  H     0.97034   0.67970   0.86847   0.00000  Uiso   1.00
H1003  H     0.97133   0.81991   0.80029   0.00000  Uiso   1.00
H1004  H     0.52871   0.68126   0.79791   0.00000  Uiso   1.00
C1005  C     0.59328   0.78997   0.85335   0.00000  Uiso   1.00
C1006  C     0.90676   0.71060   0.85436   0.00000  Uiso   1.00
C1007  C     0.90710   0.79070   0.81612   0.00000  Uiso   1.00
C1008  C     0.59292   0.71000   0.81464   0.00000  Uiso   1.00
C1009  C     0.61641   0.74998   0.83378   0.00000  Uiso   1.00
C1010  C     0.88357   0.75031   0.83431   0.00000  Uiso   1.00
C1011  C     0.52408   0.74994   0.83480   0.00000  Uiso   1.00
C1012  C     0.97591   0.75017   0.83505   0.00000  Uiso   1.00
C1013  C     0.72759   0.60464   0.86886   0.00000  Uiso   1.00
C1014  C     0.72882   0.89539   0.79704   0.00000  Uiso   1.00
C1015  C     0.77248   0.60467   0.79792   0.00000  Uiso   1.00
C1016  C     0.77125   0.89531   0.86972   0.00000  Uiso   1.00
O1017  O     0.61579   0.82759   0.87576   0.00000  Uiso   1.00
C1018  C     0.61157   0.86966   0.84683   0.00000  Uiso   1.00
H1019  H     0.62147   0.86302   0.80802   0.00000  Uiso   1.00
H1020  H     0.63402   0.89779   0.86173   0.00000  Uiso   1.00
H1021  H     0.57744   0.88424   0.84850   0.00000  Uiso   1.00
O1022  O     0.88477   0.67070   0.87284   0.00000  Uiso   1.00
C1023  C     0.87922   0.67710   0.92382   0.00000  Uiso   1.00
H1024  H     0.86072   0.64562   0.93856   0.00000  Uiso   1.00
H1025  H     0.85956   0.71012   0.93211   0.00000  Uiso   1.00
H1026  H     0.91160   0.67856   0.94302   0.00000  Uiso   1.00
O1027  O     0.88509   0.82842   0.79343   0.00000  Uiso   1.00
C1028  C     0.88864   0.87027   0.82281   0.00000  Uiso   1.00
H1029  H     0.87758   0.86336   0.86120   0.00000  Uiso   1.00
H1030  H     0.86674   0.89852   0.80729   0.00000  Uiso   1.00
H1031  H     0.92285   0.88483   0.82250   0.00000  Uiso   1.00
O1032  O     0.61507   0.67263   0.79146   0.00000  Uiso   1.00
C1033  C     0.61096   0.63020   0.81986   0.00000  Uiso   1.00
H1034  H     0.62110   0.63637   0.85866   0.00000  Uiso   1.00
H1035  H     0.63328   0.60232   0.80435   0.00000  Uiso   1.00
H1036  H     0.57680   0.61559   0.81834   0.00000  Uiso   1.00
O1037  O     0.70534   0.52837   0.90671   0.00000  Uiso   1.00
C1038  C     0.65959   0.53735   0.90457   0.00000  Uiso   1.00
H1039  H     0.64626   0.53263   0.86677   0.00000  Uiso   1.00
H1040  H     0.65170   0.57395   0.91890   0.00000  Uiso   1.00
H1041  H     0.64253   0.51075   0.92847   0.00000  Uiso   1.00
O1042  O     0.70755   0.97148   0.75873   0.00000  Uiso   1.00
C1043  C     0.66157   0.96386   0.76108   0.00000  Uiso   1.00
H1044  H     0.64825   0.97060   0.79860   0.00000  Uiso   1.00
H1045  H     0.65280   0.92685   0.74850   0.00000  Uiso   1.00
H1046  H     0.64529   0.98981   0.73591   0.00000  Uiso   1.00
O1047  O     0.79573   0.52886   0.76076   0.00000  Uiso   1.00
C1048  C     0.84157   0.53504   0.76712   0.00000  Uiso   1.00
H1049  H     0.85218   0.52543   0.80502   0.00000  Uiso   1.00
H1050  H     0.85189   0.57259   0.75802   0.00000  Uiso   1.00
H1051  H     0.85898   0.51038   0.74149   0.00000  Uiso   1.00
O1052  O     0.79232   0.97164   0.90848   0.00000  Uiso   1.00
C1053  C     0.83782   0.96105   0.90978   0.00000  Uiso   1.00
H1054  H     0.85340   0.96402   0.87285   0.00000  Uiso   1.00
H1055  H     0.84382   0.92473   0.92583   0.00000  Uiso   1.00
H1056  H     0.85428   0.98787   0.93392   0.00000  Uiso   1.00
loop_
_geom_bond_atom_site_label_1
_geom_bond_atom_site_label_2
_geom_bond_distance
_geom_bond_site_symmetry_2
_ccdc_geom_bond_type
O1     C5      1.291   .     A
O1     Cu17    1.958   .     S
O2     Cu18    1.958   .     S
O2     C6      1.292   .     A
O3     C6      1.291   .     A
O3     Cu17    1.959   .     S
O4     Cu18    1.959   .     S
O4     C5      1.292   .     A
C5     C41     1.468   .     S
C6     C42     1.468   .     S
O7     C15     1.284   .     A
O7     Cu17    1.933   .     S
O8     C16     1.283   .     A
O8     Cu18    1.933   .     S
O9     C16     1.284   .     A
O9     Cu17    1.933   .     S
O10    C15     1.284   .     A
O10    Cu18    1.933   .     S
C11    C25     1.410   .     A
C11    C45     1.418   .     A
C11    O69     1.385   .     S
C12    O74     1.384   .     S
C12    C26     1.410   .     A
C12    C46     1.416   .     A
C13    O79     1.384   .     S
C13    C25     1.411   .     A
C13    C47     1.416   .     A
C14    O84     1.386   .     S
C14    C48     1.418   .     A
C14    C26     1.411   .     A
C15    C27     1.407   .     S
C16    C28     1.407   .     S
Cu17   N24     2.003   .     S
Cu17   Cu18    2.666   .     S
Cu18   N23     2.003   .     S
H19    C45     1.081   .     S
H20    C46     1.081   .     S
H21    C47     1.081   .     S
H22    C48     1.080   .     S
N23    C45     1.364   .     A
N23    C47     1.364   .     A
N24    C48     1.364   .     A
N24    C46     1.364   .     A
C25    C202    1.508   1_545 S
C26    C201    1.508   .     S
C27    C732    1.189   1_554 S
C28    C379    1.189   .     S
C29    H33     1.084   .     S
C29    C43     1.396   .     A
C29    C37     1.396   .     A
C30    C38     1.393   .     A
C30    C44     1.396   .     A
C30    H34     1.084   .     S
C31    C44     1.397   .     A
C31    H35     1.084   .     S
C31    C39     1.397   .     A
C32    H36     1.083   .     S
C32    C43     1.396   .     A
C32    C40     1.397   .     A
C37    O49     1.385   .     S
C37    C41     1.414   .     A
C38    C42     1.414   .     A
C38    O54     1.382   .     S
C39    C42     1.414   .     A
C39    O59     1.385   .     S
C40    C41     1.414   .     A
C40    O64     1.385   .     S
C43    C132    1.460   1_455 S
C44    C131    1.460   .     S
O49    C50     1.411   .     S
C50    H52     1.110   .     S
C50    H51     1.114   .     S
C50    H53     1.111   .     S
O54    C55     1.410   .     S
C55    H56     1.109   .     S
C55    H57     1.114   .     S
C55    H58     1.113   .     S
O59    C60     1.411   .     S
C60    H63     1.111   .     S
C60    H62     1.109   .     S
C60    H61     1.114   .     S
O64    C65     1.411   .     S
C65    H67     1.109   .     S
C65    H68     1.111   .     S
C65    H66     1.114   .     S
O69    C70     1.410   .     S
C70    H71     1.114   .     S
C70    H73     1.109   .     S
C70    H72     1.111   .     S
O74    C75     1.410   .     S
C75    H76     1.114   .     S
C75    H77     1.111   .     S
C75    H78     1.109   .     S
O79    C80     1.410   .     S
C80    H83     1.109   .     S
C80    H82     1.112   .     S
C80    H81     1.114   .     S
O84    C85     1.411   .     S
C85    H86     1.114   .     S
C85    H87     1.111   .     S
C85    H88     1.109   .     S
O89    C93     1.291   .     A
O89    Cu105   1.958   .     S
O90    Cu106   1.958   .     S
O90    C94     1.292   .     A
O91    C94     1.291   .     A
O91    Cu105   1.959   .     S
O92    Cu106   1.959   .     S
O92    C93     1.292   .     A
C93    C129    1.468   .     S
C94    C130    1.468   .     S
O95    C103    1.284   .     A
O95    Cu105   1.933   .     S
O96    C104    1.283   .     A
O96    Cu106   1.933   .     S
O97    C104    1.284   .     A
O97    Cu105   1.933   .     S
O98    C103    1.284   .     A
O98    Cu106   1.933   .     S
C99    C113    1.410   .     A
C99    C133    1.418   .     A
C99    O157    1.385   .     S
C100   O162    1.384   .     S
C100   C114    1.410   .     A
C100   C134    1.416   .     A
C101   O167    1.384   .     S
C101   C113    1.411   .     A
C101   C135    1.416   .     A
C102   O172    1.386   .     S
C102   C136    1.418   .     A
C102   C114    1.411   .     A
C103   C115    1.407   .     S
C104   C116    1.407   .     S
Cu105  N112    2.003   .     S
Cu105  Cu106   2.666   .     S
Cu106  N111    2.003   .     S
H107   C133    1.081   .     S
H108   C134    1.081   .     S
H109   C135    1.081   .     S
H110   C136    1.080   .     S
N111   C133    1.364   .     A
N111   C135    1.364   .     A
N112   C136    1.364   .     A
N112   C134    1.364   .     A
C113   C290    1.508   1_545 S
C114   C289    1.508   .     S
C115   C820    1.189   1_554 S
C116   C467    1.189   .     S
C117   H121    1.084   .     S
C117   C131    1.396   .     A
C117   C125    1.396   .     A
C118   C126    1.393   .     A
C118   C132    1.396   .     A
C118   H122    1.084   .     S
C119   C132    1.397   .     A
C119   H123    1.084   .     S
C119   C127    1.397   .     A
C120   H124    1.083   .     S
C120   C131    1.396   .     A
C120   C128    1.397   .     A
C125   O137    1.385   .     S
C125   C129    1.414   .     A
C126   C130    1.414   .     A
C126   O142    1.382   .     S
C127   C130    1.414   .     A
C127   O147    1.385   .     S
C128   C129    1.414   .     A
C128   O152    1.385   .     S
C132   C43     1.460   1_655 S
O137   C138    1.411   .     S
C138   H140    1.110   .     S
C138   H139    1.114   .     S
C138   H141    1.111   .     S
O142   C143    1.410   .     S
C143   H144    1.109   .     S
C143   H145    1.114   .     S
C143   H146    1.113   .     S
O147   C148    1.411   .     S
C148   H151    1.111   .     S
C148   H150    1.109   .     S
C148   H149    1.114   .     S
O152   C153    1.411   .     S
C153   H155    1.109   .     S
C153   H156    1.111   .     S
C153   H154    1.114   .     S
O157   C158    1.410   .     S
C158   H159    1.114   .     S
C158   H161    1.109   .     S
C158   H160    1.111   .     S
O162   C163    1.410   .     S
C163   H164    1.114   .     S
C163   H165    1.111   .     S
C163   H166    1.109   .     S
O167   C168    1.410   .     S
C168   H171    1.109   .     S
C168   H170    1.112   .     S
C168   H169    1.114   .     S
O172   C173    1.411   .     S
C173   H174    1.114   .     S
C173   H175    1.111   .     S
C173   H176    1.109   .     S
O177   C181    1.291   .     A
O177   Cu193   1.958   .     S
O178   Cu194   1.958   .     S
O178   C182    1.292   .     A
O179   C182    1.291   .     A
O179   Cu193   1.959   .     S
O180   Cu194   1.959   .     S
O180   C181    1.292   .     A
C181   C217    1.468   .     S
C182   C218    1.468   .     S
O183   C191    1.284   .     A
O183   Cu193   1.933   .     S
O184   C192    1.283   .     A
O184   Cu194   1.933   .     S
O185   C192    1.284   .     A
O185   Cu193   1.933   .     S
O186   C191    1.284   .     A
O186   Cu194   1.933   .     S
C187   C201    1.410   .     A
C187   C221    1.418   .     A
C187   O245    1.385   .     S
C188   O250    1.384   .     S
C188   C202    1.410   .     A
C188   C222    1.416   .     A
C189   O255    1.384   .     S
C189   C201    1.411   .     A
C189   C223    1.416   .     A
C190   O260    1.386   .     S
C190   C224    1.418   .     A
C190   C202    1.411   .     A
C191   C203    1.407   .     S
C192   C204    1.407   .     S
Cu193  N200    2.003   .     S
Cu193  Cu194   2.666   .     S
Cu194  N199    2.003   .     S
H195   C221    1.081   .     S
H196   C222    1.081   .     S
H197   C223    1.081   .     S
H198   C224    1.080   .     S
N199   C221    1.364   .     A
N199   C223    1.364   .     A
N200   C224    1.364   .     A
N200   C222    1.364   .     A
C202   C25     1.508   1_565 S
C203   C908    1.189   1_554 S
C204   C555    1.189   .     S
C205   H209    1.084   .     S
C205   C219    1.396   .     A
C205   C213    1.396   .     A
C206   C214    1.393   .     A
C206   C220    1.396   .     A
C206   H210    1.084   .     S
C207   C220    1.397   .     A
C207   H211    1.084   .     S
C207   C215    1.397   .     A
C208   H212    1.083   .     S
C208   C219    1.396   .     A
C208   C216    1.397   .     A
C213   O225    1.385   .     S
C213   C217    1.414   .     A
C214   C218    1.414   .     A
C214   O230    1.382   .     S
C215   C218    1.414   .     A
C215   O235    1.385   .     S
C216   C217    1.414   .     A
C216   O240    1.385   .     S
C219   C308    1.460   1_455 S
C220   C307    1.460   .     S
O225   C226    1.411   .     S
C226   H228    1.110   .     S
C226   H227    1.114   .     S
C226   H229    1.111   .     S
O230   C231    1.410   .     S
C231   H232    1.109   .     S
C231   H233    1.114   .     S
C231   H234    1.113   .     S
O235   C236    1.411   .     S
C236   H239    1.111   .     S
C236   H238    1.109   .     S
C236   H237    1.114   .     S
O240   C241    1.411   .     S
C241   H243    1.109   .     S
C241   H244    1.111   .     S
C241   H242    1.114   .     S
O245   C246    1.410   .     S
C246   H247    1.114   .     S
C246   H249    1.109   .     S
C246   H248    1.111   .     S
O250   C251    1.410   .     S
C251   H252    1.114   .     S
C251   H253    1.111   .     S
C251   H254    1.109   .     S
O255   C256    1.410   .     S
C256   H259    1.109   .     S
C256   H258    1.112   .     S
C256   H257    1.114   .     S
O260   C261    1.411   .     S
C261   H262    1.114   .     S
C261   H263    1.111   .     S
C261   H264    1.109   .     S
O265   C269    1.291   .     A
O265   Cu281   1.958   .     S
O266   Cu282   1.958   .     S
O266   C270    1.292   .     A
O267   C270    1.291   .     A
O267   Cu281   1.959   .     S
O268   Cu282   1.959   .     S
O268   C269    1.292   .     A
C269   C305    1.468   .     S
C270   C306    1.468   .     S
O271   C279    1.284   .     A
O271   Cu281   1.933   .     S
O272   C280    1.283   .     A
O272   Cu282   1.933   .     S
O273   C280    1.284   .     A
O273   Cu281   1.933   .     S
O274   C279    1.284   .     A
O274   Cu282   1.933   .     S
C275   C289    1.410   .     A
C275   C309    1.418   .     A
C275   O333    1.385   .     S
C276   O338    1.384   .     S
C276   C290    1.410   .     A
C276   C310    1.416   .     A
C277   O343    1.384   .     S
C277   C289    1.411   .     A
C277   C311    1.416   .     A
C278   O348    1.386   .     S
C278   C312    1.418   .     A
C278   C290    1.411   .     A
C279   C291    1.407   .     S
C280   C292    1.407   .     S
Cu281  N288    2.003   .     S
Cu281  Cu282   2.666   .     S
Cu282  N287    2.003   .     S
H283   C309    1.081   .     S
H284   C310    1.081   .     S
H285   C311    1.081   .     S
H286   C312    1.080   .     S
N287   C309    1.364   .     A
N287   C311    1.364   .     A
N288   C312    1.364   .     A
N288   C310    1.364   .     A
C290   C113    1.508   1_565 S
C291   C996    1.189   1_554 S
C292   C643    1.189   .     S
C293   H297    1.084   .     S
C293   C307    1.396   .     A
C293   C301    1.396   .     A
C294   C302    1.393   .     A
C294   C308    1.396   .     A
C294   H298    1.084   .     S
C295   C308    1.397   .     A
C295   H299    1.084   .     S
C295   C303    1.397   .     A
C296   H300    1.083   .     S
C296   C307    1.396   .     A
C296   C304    1.397   .     A
C301   O313    1.385   .     S
C301   C305    1.414   .     A
C302   C306    1.414   .     A
C302   O318    1.382   .     S
C303   C306    1.414   .     A
C303   O323    1.385   .     S
C304   C305    1.414   .     A
C304   O328    1.385   .     S
C308   C219    1.460   1_655 S
O313   C314    1.411   .     S
C314   H316    1.110   .     S
C314   H315    1.114   .     S
C314   H317    1.111   .     S
O318   C319    1.410   .     S
C319   H320    1.109   .     S
C319   H321    1.114   .     S
C319   H322    1.113   .     S
O323   C324    1.411   .     S
C324   H327    1.111   .     S
C324   H326    1.109   .     S
C324   H325    1.114   .     S
O328   C329    1.411   .     S
C329   H331    1.109   .     S
C329   H332    1.111   .     S
C329   H330    1.114   .     S
O333   C334    1.410   .     S
C334   H335    1.114   .     S
C334   H337    1.109   .     S
C334   H336    1.111   .     S
O338   C339    1.410   .     S
C339   H340    1.114   .     S
C339   H341    1.111   .     S
C339   H342    1.109   .     S
O343   C344    1.410   .     S
C344   H347    1.109   .     S
C344   H346    1.112   .     S
C344   H345    1.114   .     S
O348   C349    1.411   .     S
C349   H350    1.114   .     S
C349   H351    1.111   .     S
C349   H352    1.109   .     S
O353   C357    1.291   .     A
O353   Cu369   1.958   .     S
O354   Cu370   1.958   .     S
O354   C358    1.292   .     A
O355   C358    1.291   .     A
O355   Cu369   1.959   .     S
O356   Cu370   1.959   .     S
O356   C357    1.292   .     A
C357   C393    1.468   .     S
C358   C394    1.468   .     S
O359   C367    1.284   .     A
O359   Cu369   1.933   .     S
O360   C368    1.283   .     A
O360   Cu370   1.933   .     S
O361   C368    1.284   .     A
O361   Cu369   1.933   .     S
O362   C367    1.284   .     A
O362   Cu370   1.933   .     S
C363   C377    1.410   .     A
C363   C397    1.418   .     A
C363   O421    1.385   .     S
C364   O426    1.384   .     S
C364   C378    1.410   .     A
C364   C398    1.416   .     A
C365   O431    1.384   .     S
C365   C377    1.411   .     A
C365   C399    1.416   .     A
C366   O436    1.386   .     S
C366   C400    1.418   .     A
C366   C378    1.411   .     A
C367   C379    1.407   .     S
C368   C380    1.407   .     S
Cu369  N376    2.003   .     S
Cu369  Cu370   2.666   .     S
Cu370  N375    2.003   .     S
H371   C397    1.081   .     S
H372   C398    1.081   .     S
H373   C399    1.081   .     S
H374   C400    1.080   .     S
N375   C397    1.364   .     A
N375   C399    1.364   .     A
N376   C400    1.364   .     A
N376   C398    1.364   .     A
C377   C554    1.508   1_545 S
C378   C553    1.508   .     S
C380   C731    1.189   .     S
C381   H385    1.084   .     S
C381   C395    1.396   .     A
C381   C389    1.396   .     A
C382   C390    1.393   .     A
C382   C396    1.396   .     A
C382   H386    1.084   .     S
C383   C396    1.397   .     A
C383   H387    1.084   .     S
C383   C391    1.397   .     A
C384   H388    1.083   .     S
C384   C395    1.396   .     A
C384   C392    1.397   .     A
C389   O401    1.385   .     S
C389   C393    1.414   .     A
C390   C394    1.414   .     A
C390   O406    1.382   .     S
C391   C394    1.414   .     A
C391   O411    1.385   .     S
C392   C393    1.414   .     A
C392   O416    1.385   .     S
C395   C484    1.460   1_455 S
C396   C483    1.460   .     S
O401   C402    1.411   .     S
C402   H404    1.110   .     S
C402   H403    1.114   .     S
C402   H405    1.111   .     S
O406   C407    1.410   .     S
C407   H408    1.109   .     S
C407   H409    1.114   .     S
C407   H410    1.113   .     S
O411   C412    1.411   .     S
C412   H415    1.111   .     S
C412   H414    1.109   .     S
C412   H413    1.114   .     S
O416   C417    1.411   .     S
C417   H419    1.109   .     S
C417   H420    1.111   .     S
C417   H418    1.114   .     S
O421   C422    1.410   .     S
C422   H423    1.114   .     S
C422   H425    1.109   .     S
C422   H424    1.111   .     S
O426   C427    1.410   .     S
C427   H428    1.114   .     S
C427   H429    1.111   .     S
C427   H430    1.109   .     S
O431   C432    1.410   .     S
C432   H435    1.109   .     S
C432   H434    1.112   .     S
C432   H433    1.114   .     S
O436   C437    1.411   .     S
C437   H438    1.114   .     S
C437   H439    1.111   .     S
C437   H440    1.109   .     S
O441   C445    1.291   .     A
O441   Cu457   1.958   .     S
O442   Cu458   1.958   .     S
O442   C446    1.292   .     A
O443   C446    1.291   .     A
O443   Cu457   1.959   .     S
O444   Cu458   1.959   .     S
O444   C445    1.292   .     A
C445   C481    1.468   .     S
C446   C482    1.468   .     S
O447   C455    1.284   .     A
O447   Cu457   1.933   .     S
O448   C456    1.283   .     A
O448   Cu458   1.933   .     S
O449   C456    1.284   .     A
O449   Cu457   1.933   .     S
O450   C455    1.284   .     A
O450   Cu458   1.933   .     S
C451   C465    1.410   .     A
C451   C485    1.418   .     A
C451   O509    1.385   .     S
C452   O514    1.384   .     S
C452   C466    1.410   .     A
C452   C486    1.416   .     A
C453   O519    1.384   .     S
C453   C465    1.411   .     A
C453   C487    1.416   .     A
C454   O524    1.386   .     S
C454   C488    1.418   .     A
C454   C466    1.411   .     A
C455   C467    1.407   .     S
C456   C468    1.407   .     S
Cu457  N464    2.003   .     S
Cu457  Cu458   2.666   .     S
Cu458  N463    2.003   .     S
H459   C485    1.081   .     S
H460   C486    1.081   .     S
H461   C487    1.081   .     S
H462   C488    1.080   .     S
N463   C485    1.364   .     A
N463   C487    1.364   .     A
N464   C488    1.364   .     A
N464   C486    1.364   .     A
C465   C642    1.508   1_545 S
C466   C641    1.508   .     S
C468   C819    1.189   .     S
C469   H473    1.084   .     S
C469   C483    1.396   .     A
C469   C477    1.396   .     A
C470   C478    1.393   .     A
C470   C484    1.396   .     A
C470   H474    1.084   .     S
C471   C484    1.397   .     A
C471   H475    1.084   .     S
C471   C479    1.397   .     A
C472   H476    1.083   .     S
C472   C483    1.396   .     A
C472   C480    1.397   .     A
C477   O489    1.385   .     S
C477   C481    1.414   .     A
C478   C482    1.414   .     A
C478   O494    1.382   .     S
C479   C482    1.414   .     A
C479   O499    1.385   .     S
C480   C481    1.414   .     A
C480   O504    1.385   .     S
C484   C395    1.460   1_655 S
O489   C490    1.411   .     S
C490   H492    1.110   .     S
C490   H491    1.114   .     S
C490   H493    1.111   .     S
O494   C495    1.410   .     S
C495   H496    1.109   .     S
C495   H497    1.114   .     S
C495   H498    1.113   .     S
O499   C500    1.411   .     S
C500   H503    1.111   .     S
C500   H502    1.109   .     S
C500   H501    1.114   .     S
O504   C505    1.411   .     S
C505   H507    1.109   .     S
C505   H508    1.111   .     S
C505   H506    1.114   .     S
O509   C510    1.410   .     S
C510   H511    1.114   .     S
C510   H513    1.109   .     S
C510   H512    1.111   .     S
O514   C515    1.410   .     S
C515   H516    1.114   .     S
C515   H517    1.111   .     S
C515   H518    1.109   .     S
O519   C520    1.410   .     S
C520   H523    1.109   .     S
C520   H522    1.112   .     S
C520   H521    1.114   .     S
O524   C525    1.411   .     S
C525   H526    1.114   .     S
C525   H527    1.111   .     S
C525   H528    1.109   .     S
O529   C533    1.291   .     A
O529   Cu545   1.958   .     S
O530   Cu546   1.958   .     S
O530   C534    1.292   .     A
O531   C534    1.291   .     A
O531   Cu545   1.959   .     S
O532   Cu546   1.959   .     S
O532   C533    1.292   .     A
C533   C569    1.468   .     S
C534   C570    1.468   .     S
O535   C543    1.284   .     A
O535   Cu545   1.933   .     S
O536   C544    1.283   .     A
O536   Cu546   1.933   .     S
O537   C544    1.284   .     A
O537   Cu545   1.933   .     S
O538   C543    1.284   .     A
O538   Cu546   1.933   .     S
C539   C553    1.410   .     A
C539   C573    1.418   .     A
C539   O597    1.385   .     S
C540   O602    1.384   .     S
C540   C554    1.410   .     A
C540   C574    1.416   .     A
C541   O607    1.384   .     S
C541   C553    1.411   .     A
C541   C575    1.416   .     A
C542   O612    1.386   .     S
C542   C576    1.418   .     A
C542   C554    1.411   .     A
C543   C555    1.407   .     S
C544   C556    1.407   .     S
Cu545  N552    2.003   .     S
Cu545  Cu546   2.666   .     S
Cu546  N551    2.003   .     S
H547   C573    1.081   .     S
H548   C574    1.081   .     S
H549   C575    1.081   .     S
H550   C576    1.080   .     S
N551   C573    1.364   .     A
N551   C575    1.364   .     A
N552   C576    1.364   .     A
N552   C574    1.364   .     A
C554   C377    1.508   1_565 S
C556   C907    1.189   .     S
C557   H561    1.084   .     S
C557   C571    1.396   .     A
C557   C565    1.396   .     A
C558   C566    1.393   .     A
C558   C572    1.396   .     A
C558   H562    1.084   .     S
C559   C572    1.397   .     A
C559   H563    1.084   .     S
C559   C567    1.397   .     A
C560   H564    1.083   .     S
C560   C571    1.396   .     A
C560   C568    1.397   .     A
C565   O577    1.385   .     S
C565   C569    1.414   .     A
C566   C570    1.414   .     A
C566   O582    1.382   .     S
C567   C570    1.414   .     A
C567   O587    1.385   .     S
C568   C569    1.414   .     A
C568   O592    1.385   .     S
C571   C660    1.460   1_455 S
C572   C659    1.460   .     S
O577   C578    1.411   .     S
C578   H580    1.110   .     S
C578   H579    1.114   .     S
C578   H581    1.111   .     S
O582   C583    1.410   .     S
C583   H584    1.109   .     S
C583   H585    1.114   .     S
C583   H586    1.113   .     S
O587   C588    1.411   .     S
C588   H591    1.111   .     S
C588   H590    1.109   .     S
C588   H589    1.114   .     S
O592   C593    1.411   .     S
C593   H595    1.109   .     S
C593   H596    1.111   .     S
C593   H594    1.114   .     S
O597   C598    1.410   .     S
C598   H599    1.114   .     S
C598   H601    1.109   .     S
C598   H600    1.111   .     S
O602   C603    1.410   .     S
C603   H604    1.114   .     S
C603   H605    1.111   .     S
C603   H606    1.109   .     S
O607   C608    1.410   .     S
C608   H611    1.109   .     S
C608   H610    1.112   .     S
C608   H609    1.114   .     S
O612   C613    1.411   .     S
C613   H614    1.114   .     S
C613   H615    1.111   .     S
C613   H616    1.109   .     S
O617   C621    1.291   .     A
O617   Cu633   1.958   .     S
O618   Cu634   1.958   .     S
O618   C622    1.292   .     A
O619   C622    1.291   .     A
O619   Cu633   1.959   .     S
O620   Cu634   1.959   .     S
O620   C621    1.292   .     A
C621   C657    1.468   .     S
C622   C658    1.468   .     S
O623   C631    1.284   .     A
O623   Cu633   1.933   .     S
O624   C632    1.283   .     A
O624   Cu634   1.933   .     S
O625   C632    1.284   .     A
O625   Cu633   1.933   .     S
O626   C631    1.284   .     A
O626   Cu634   1.933   .     S
C627   C641    1.410   .     A
C627   C661    1.418   .     A
C627   O685    1.385   .     S
C628   O690    1.384   .     S
C628   C642    1.410   .     A
C628   C662    1.416   .     A
C629   O695    1.384   .     S
C629   C641    1.411   .     A
C629   C663    1.416   .     A
C630   O700    1.386   .     S
C630   C664    1.418   .     A
C630   C642    1.411   .     A
C631   C643    1.407   .     S
C632   C644    1.407   .     S
Cu633  N640    2.003   .     S
Cu633  Cu634   2.666   .     S
Cu634  N639    2.003   .     S
H635   C661    1.081   .     S
H636   C662    1.081   .     S
H637   C663    1.081   .     S
H638   C664    1.080   .     S
N639   C661    1.364   .     A
N639   C663    1.364   .     A
N640   C664    1.364   .     A
N640   C662    1.364   .     A
C642   C465    1.508   1_565 S
C644   C995    1.189   .     S
C645   H649    1.084   .     S
C645   C659    1.396   .     A
C645   C653    1.396   .     A
C646   C654    1.393   .     A
C646   C660    1.396   .     A
C646   H650    1.084   .     S
C647   C660    1.397   .     A
C647   H651    1.084   .     S
C647   C655    1.397   .     A
C648   H652    1.083   .     S
C648   C659    1.396   .     A
C648   C656    1.397   .     A
C653   O665    1.385   .     S
C653   C657    1.414   .     A
C654   C658    1.414   .     A
C654   O670    1.382   .     S
C655   C658    1.414   .     A
C655   O675    1.385   .     S
C656   C657    1.414   .     A
C656   O680    1.385   .     S
C660   C571    1.460   1_655 S
O665   C666    1.411   .     S
C666   H668    1.110   .     S
C666   H667    1.114   .     S
C666   H669    1.111   .     S
O670   C671    1.410   .     S
C671   H672    1.109   .     S
C671   H673    1.114   .     S
C671   H674    1.113   .     S
O675   C676    1.411   .     S
C676   H679    1.111   .     S
C676   H678    1.109   .     S
C676   H677    1.114   .     S
O680   C681    1.411   .     S
C681   H683    1.109   .     S
C681   H684    1.111   .     S
C681   H682    1.114   .     S
O685   C686    1.410   .     S
C686   H687    1.114   .     S
C686   H689    1.109   .     S
C686   H688    1.111   .     S
O690   C691    1.410   .     S
C691   H692    1.114   .     S
C691   H693    1.111   .     S
C691   H694    1.109   .     S
O695   C696    1.410   .     S
C696   H699    1.109   .     S
C696   H698    1.112   .     S
C696   H697    1.114   .     S
O700   C701    1.411   .     S
C701   H702    1.114   .     S
C701   H703    1.111   .     S
C701   H704    1.109   .     S
O705   C709    1.291   .     A
O705   Cu721   1.958   .     S
O706   Cu722   1.958   .     S
O706   C710    1.292   .     A
O707   C710    1.291   .     A
O707   Cu721   1.959   .     S
O708   Cu722   1.959   .     S
O708   C709    1.292   .     A
C709   C745    1.468   .     S
C710   C746    1.468   .     S
O711   C719    1.284   .     A
O711   Cu721   1.933   .     S
O712   C720    1.283   .     A
O712   Cu722   1.933   .     S
O713   C720    1.284   .     A
O713   Cu721   1.933   .     S
O714   C719    1.284   .     A
O714   Cu722   1.933   .     S
C715   C729    1.410   .     A
C715   C749    1.418   .     A
C715   O773    1.385   .     S
C716   O778    1.384   .     S
C716   C730    1.410   .     A
C716   C750    1.416   .     A
C717   O783    1.384   .     S
C717   C729    1.411   .     A
C717   C751    1.416   .     A
C718   O788    1.386   .     S
C718   C752    1.418   .     A
C718   C730    1.411   .     A
C719   C731    1.407   .     S
C720   C732    1.407   .     S
Cu721  N728    2.003   .     S
Cu721  Cu722   2.666   .     S
Cu722  N727    2.003   .     S
H723   C749    1.081   .     S
H724   C750    1.081   .     S
H725   C751    1.081   .     S
H726   C752    1.080   .     S
N727   C749    1.364   .     A
N727   C751    1.364   .     A
N728   C752    1.364   .     A
N728   C750    1.364   .     A
C729   C906    1.508   1_545 S
C730   C905    1.508   .     S
C732   C27     1.189   1_556 S
C733   H737    1.084   .     S
C733   C747    1.396   .     A
C733   C741    1.396   .     A
C734   C742    1.393   .     A
C734   C748    1.396   .     A
C734   H738    1.084   .     S
C735   C748    1.397   .     A
C735   H739    1.084   .     S
C735   C743    1.397   .     A
C736   H740    1.083   .     S
C736   C747    1.396   .     A
C736   C744    1.397   .     A
C741   O753    1.385   .     S
C741   C745    1.414   .     A
C742   C746    1.414   .     A
C742   O758    1.382   .     S
C743   C746    1.414   .     A
C743   O763    1.385   .     S
C744   C745    1.414   .     A
C744   O768    1.385   .     S
C747   C836    1.460   1_455 S
C748   C835    1.460   .     S
O753   C754    1.411   .     S
C754   H756    1.110   .     S
C754   H755    1.114   .     S
C754   H757    1.111   .     S
O758   C759    1.410   .     S
C759   H760    1.109   .     S
C759   H761    1.114   .     S
C759   H762    1.113   .     S
O763   C764    1.411   .     S
C764   H767    1.111   .     S
C764   H766    1.109   .     S
C764   H765    1.114   .     S
O768   C769    1.411   .     S
C769   H771    1.109   .     S
C769   H772    1.111   .     S
C769   H770    1.114   .     S
O773   C774    1.410   .     S
C774   H775    1.114   .     S
C774   H777    1.109   .     S
C774   H776    1.111   .     S
O778   C779    1.410   .     S
C779   H780    1.114   .     S
C779   H781    1.111   .     S
C779   H782    1.109   .     S
O783   C784    1.410   .     S
C784   H787    1.109   .     S
C784   H786    1.112   .     S
C784   H785    1.114   .     S
O788   C789    1.411   .     S
C789   H790    1.114   .     S
C789   H791    1.111   .     S
C789   H792    1.109   .     S
O793   C797    1.291   .     A
O793   Cu809   1.958   .     S
O794   Cu810   1.958   .     S
O794   C798    1.292   .     A
O795   C798    1.291   .     A
O795   Cu809   1.959   .     S
O796   Cu810   1.959   .     S
O796   C797    1.292   .     A
C797   C833    1.468   .     S
C798   C834    1.468   .     S
O799   C807    1.284   .     A
O799   Cu809   1.933   .     S
O800   C808    1.283   .     A
O800   Cu810   1.933   .     S
O801   C808    1.284   .     A
O801   Cu809   1.933   .     S
O802   C807    1.284   .     A
O802   Cu810   1.933   .     S
C803   C817    1.410   .     A
C803   C837    1.418   .     A
C803   O861    1.385   .     S
C804   O866    1.384   .     S
C804   C818    1.410   .     A
C804   C838    1.416   .     A
C805   O871    1.384   .     S
C805   C817    1.411   .     A
C805   C839    1.416   .     A
C806   O876    1.386   .     S
C806   C840    1.418   .     A
C806   C818    1.411   .     A
C807   C819    1.407   .     S
C808   C820    1.407   .     S
Cu809  N816    2.003   .     S
Cu809  Cu810   2.666   .     S
Cu810  N815    2.003   .     S
H811   C837    1.081   .     S
H812   C838    1.081   .     S
H813   C839    1.081   .     S
H814   C840    1.080   .     S
N815   C837    1.364   .     A
N815   C839    1.364   .     A
N816   C840    1.364   .     A
N816   C838    1.364   .     A
C817   C994    1.508   1_545 S
C818   C993    1.508   .     S
C820   C115    1.189   1_556 S
C821   H825    1.084   .     S
C821   C835    1.396   .     A
C821   C829    1.396   .     A
C822   C830    1.393   .     A
C822   C836    1.396   .     A
C822   H826    1.084   .     S
C823   C836    1.397   .     A
C823   H827    1.084   .     S
C823   C831    1.397   .     A
C824   H828    1.083   .     S
C824   C835    1.396   .     A
C824   C832    1.397   .     A
C829   O841    1.385   .     S
C829   C833    1.414   .     A
C830   C834    1.414   .     A
C830   O846    1.382   .     S
C831   C834    1.414   .     A
C831   O851    1.385   .     S
C832   C833    1.414   .     A
C832   O856    1.385   .     S
C836   C747    1.460   1_655 S
O841   C842    1.411   .     S
C842   H844    1.110   .     S
C842   H843    1.114   .     S
C842   H845    1.111   .     S
O846   C847    1.410   .     S
C847   H848    1.109   .     S
C847   H849    1.114   .     S
C847   H850    1.113   .     S
O851   C852    1.411   .     S
C852   H855    1.111   .     S
C852   H854    1.109   .     S
C852   H853    1.114   .     S
O856   C857    1.411   .     S
C857   H859    1.109   .     S
C857   H860    1.111   .     S
C857   H858    1.114   .     S
O861   C862    1.410   .     S
C862   H863    1.114   .     S
C862   H865    1.109   .     S
C862   H864    1.111   .     S
O866   C867    1.410   .     S
C867   H868    1.114   .     S
C867   H869    1.111   .     S
C867   H870    1.109   .     S
O871   C872    1.410   .     S
C872   H875    1.109   .     S
C872   H874    1.112   .     S
C872   H873    1.114   .     S
O876   C877    1.411   .     S
C877   H878    1.114   .     S
C877   H879    1.111   .     S
C877   H880    1.109   .     S
O881   C885    1.291   .     A
O881   Cu897   1.958   .     S
O882   Cu898   1.958   .     S
O882   C886    1.292   .     A
O883   C886    1.291   .     A
O883   Cu897   1.959   .     S
O884   Cu898   1.959   .     S
O884   C885    1.292   .     A
C885   C921    1.468   .     S
C886   C922    1.468   .     S
O887   C895    1.284   .     A
O887   Cu897   1.933   .     S
O888   C896    1.283   .     A
O888   Cu898   1.933   .     S
O889   C896    1.284   .     A
O889   Cu897   1.933   .     S
O890   C895    1.284   .     A
O890   Cu898   1.933   .     S
C891   C905    1.410   .     A
C891   C925    1.418   .     A
C891   O949    1.385   .     S
C892   O954    1.384   .     S
C892   C906    1.410   .     A
C892   C926    1.416   .     A
C893   O959    1.384   .     S
C893   C905    1.411   .     A
C893   C927    1.416   .     A
C894   O964    1.386   .     S
C894   C928    1.418   .     A
C894   C906    1.411   .     A
C895   C907    1.407   .     S
C896   C908    1.407   .     S
Cu897  N904    2.003   .     S
Cu897  Cu898   2.666   .     S
Cu898  N903    2.003   .     S
H899   C925    1.081   .     S
H900   C926    1.081   .     S
H901   C927    1.081   .     S
H902   C928    1.080   .     S
N903   C925    1.364   .     A
N903   C927    1.364   .     A
N904   C928    1.364   .     A
N904   C926    1.364   .     A
C906   C729    1.508   1_565 S
C908   C203    1.189   1_556 S
C909   H913    1.084   .     S
C909   C923    1.396   .     A
C909   C917    1.396   .     A
C910   C918    1.393   .     A
C910   C924    1.396   .     A
C910   H914    1.084   .     S
C911   C924    1.397   .     A
C911   H915    1.084   .     S
C911   C919    1.397   .     A
C912   H916    1.083   .     S
C912   C923    1.396   .     A
C912   C920    1.397   .     A
C917   O929    1.385   .     S
C917   C921    1.414   .     A
C918   C922    1.414   .     A
C918   O934    1.382   .     S
C919   C922    1.414   .     A
C919   O939    1.385   .     S
C920   C921    1.414   .     A
C920   O944    1.385   .     S
C923   C1012   1.460   1_455 S
C924   C1011   1.460   .     S
O929   C930    1.411   .     S
C930   H932    1.110   .     S
C930   H931    1.114   .     S
C930   H933    1.111   .     S
O934   C935    1.410   .     S
C935   H936    1.109   .     S
C935   H937    1.114   .     S
C935   H938    1.113   .     S
O939   C940    1.411   .     S
C940   H943    1.111   .     S
C940   H942    1.109   .     S
C940   H941    1.114   .     S
O944   C945    1.411   .     S
C945   H947    1.109   .     S
C945   H948    1.111   .     S
C945   H946    1.114   .     S
O949   C950    1.410   .     S
C950   H951    1.114   .     S
C950   H953    1.109   .     S
C950   H952    1.111   .     S
O954   C955    1.410   .     S
C955   H956    1.114   .     S
C955   H957    1.111   .     S
C955   H958    1.109   .     S
O959   C960    1.410   .     S
C960   H963    1.109   .     S
C960   H962    1.112   .     S
C960   H961    1.114   .     S
O964   C965    1.411   .     S
C965   H966    1.114   .     S
C965   H967    1.111   .     S
C965   H968    1.109   .     S
O969   C973    1.291   .     A
O969   Cu985   1.958   .     S
O970   Cu986   1.958   .     S
O970   C974    1.292   .     A
O971   C974    1.291   .     A
O971   Cu985   1.959   .     S
O972   Cu986   1.959   .     S
O972   C973    1.292   .     A
C973   C1009   1.468   .     S
C974   C1010   1.468   .     S
O975   C983    1.284   .     A
O975   Cu985   1.933   .     S
O976   C984    1.283   .     A
O976   Cu986   1.933   .     S
O977   C984    1.284   .     A
O977   Cu985   1.933   .     S
O978   C983    1.284   .     A
O978   Cu986   1.933   .     S
C979   C993    1.410   .     A
C979   C1013   1.418   .     A
C979   O1037   1.385   .     S
C980   O1042   1.384   .     S
C980   C994    1.410   .     A
C980   C1014   1.416   .     A
C981   O1047   1.384   .     S
C981   C993    1.411   .     A
C981   C1015   1.416   .     A
C982   O1052   1.386   .     S
C982   C1016   1.418   .     A
C982   C994    1.411   .     A
C983   C995    1.407   .     S
C984   C996    1.407   .     S
Cu985  N992    2.003   .     S
Cu985  Cu986   2.666   .     S
Cu986  N991    2.003   .     S
H987   C1013   1.081   .     S
H988   C1014   1.081   .     S
H989   C1015   1.081   .     S
H990   C1016   1.080   .     S
N991   C1013   1.364   .     A
N991   C1015   1.364   .     A
N992   C1016   1.364   .     A
N992   C1014   1.364   .     A
C994   C817    1.508   1_565 S
C996   C291    1.189   1_556 S
C997   H1001   1.084   .     S
C997   C1011   1.396   .     A
C997   C1005   1.396   .     A
C998   C1006   1.393   .     A
C998   C1012   1.396   .     A
C998   H1002   1.084   .     S
C999   C1012   1.397   .     A
C999   H1003   1.084   .     S
C999   C1007   1.397   .     A
C1000  H1004   1.083   .     S
C1000  C1011   1.396   .     A
C1000  C1008   1.397   .     A
C1005  O1017   1.385   .     S
C1005  C1009   1.414   .     A
C1006  C1010   1.414   .     A
C1006  O1022   1.382   .     S
C1007  C1010   1.414   .     A
C1007  O1027   1.385   .     S
C1008  C1009   1.414   .     A
C1008  O1032   1.385   .     S
C1012  C923    1.460   1_655 S
O1017  C1018   1.411   .     S
C1018  H1020   1.110   .     S
C1018  H1019   1.114   .     S
C1018  H1021   1.111   .     S
O1022  C1023   1.410   .     S
C1023  H1024   1.109   .     S
C1023  H1025   1.114   .     S
C1023  H1026   1.113   .     S
O1027  C1028   1.411   .     S
C1028  H1031   1.111   .     S
C1028  H1030   1.109   .     S
C1028  H1029   1.114   .     S
O1032  C1033   1.411   .     S
C1033  H1035   1.109   .     S
C1033  H1036   1.111   .     S
C1033  H1034   1.114   .     S
O1037  C1038   1.410   .     S
C1038  H1039   1.114   .     S
C1038  H1041   1.109   .     S
C1038  H1040   1.111   .     S
O1042  C1043   1.410   .     S
C1043  H1044   1.114   .     S
C1043  H1045   1.111   .     S
C1043  H1046   1.109   .     S
O1047  C1048   1.410   .     S
C1048  H1051   1.109   .     S
C1048  H1050   1.112   .     S
C1048  H1049   1.114   .     S
O1052  C1053   1.411   .     S
C1053  H1054   1.114   .     S
C1053  H1055   1.111   .     S
C1053  H1056   1.109   .     S
