data_str_m2_o1_o2_pcu_sym.141
_audit_creation_date              2020-01-03
_audit_creation_method            'Materials Studio'
_symmetry_space_group_name_H-M    'P1'
_symmetry_Int_Tables_number       1
_symmetry_cell_setting            triclinic
loop_
_symmetry_equiv_pos_as_xyz
  x,y,z
_cell_length_a                    32.5142
_cell_length_b                    28.5884
_cell_length_c                    30.2749
_cell_angle_alpha                 90.0031
_cell_angle_beta                  90.4625
_cell_angle_gamma                 89.8727
loop_
_atom_site_label
_atom_site_type_symbol
_atom_site_fract_x
_atom_site_fract_y
_atom_site_fract_z
_atom_site_U_iso_or_equiv
_atom_site_adp_type
_atom_site_occupancy
C1     C     0.08739   0.16670   0.24997   0.00000  Uiso   1.00
C2     C     0.24594   0.16663   0.25003   0.00000  Uiso   1.00
C3     C     0.16662   0.16667   0.16497   0.00000  Uiso   1.00
C4     C     0.16672   0.16667   0.33503   0.00000  Uiso   1.00
C5     C     0.14184   0.02485   0.22160   0.00000  Uiso   1.00
C6     C     0.19148   0.30849   0.27841   0.00000  Uiso   1.00
C7     C     0.19143   0.02470   0.27845   0.00000  Uiso   1.00
C8     C     0.14191   0.30863   0.22153   0.00000  Uiso   1.00
C9     C     0.02154   0.12877   0.26828   0.00000  Uiso   1.00
C10    C     0.31179   0.20456   0.23171   0.00000  Uiso   1.00
C11    C     0.31229   0.12871   0.26826   0.00000  Uiso   1.00
C12    C     0.02104   0.20462   0.23174   0.00000  Uiso   1.00
C13    C     0.17915   0.20665   0.04775   0.00000  Uiso   1.00
C14    C     0.17922   0.12666   0.45250   0.00000  Uiso   1.00
C15    C     0.15431   0.20673   0.45227   0.00000  Uiso   1.00
C16    C     0.15418   0.12674   0.04749   0.00000  Uiso   1.00
C17    C     0.17883   0.20675   0.09365   0.00000  Uiso   1.00
C18    C     0.17895   0.12655   0.40658   0.00000  Uiso   1.00
C19    C     0.15461   0.20683   0.40636   0.00000  Uiso   1.00
C20    C     0.15442   0.12662   0.09341   0.00000  Uiso   1.00
C21    C     0.16661   0.16668   0.11673   0.00000  Uiso   1.00
C22    C     0.16676   0.16668   0.38327   0.00000  Uiso   1.00
C23    C     0.16670   0.16669   0.02429   0.00000  Uiso   1.00
C24    C     0.16675   0.16669   0.47572   0.00000  Uiso   1.00
C25    C     0.29055   0.16660   0.24998   0.00000  Uiso   1.00
C26    C     0.04278   0.16673   0.25001   0.00000  Uiso   1.00
Cu27   Cu    0.16667   0.21355   0.25000   0.00000  Uiso   1.00
Cu28   Cu    0.16667   0.11978   0.25000   0.00000  Uiso   1.00
H29    H     0.18963   0.23762   0.03065   0.00000  Uiso   1.00
H30    H     0.18966   0.09563   0.46980   0.00000  Uiso   1.00
H31    H     0.14386   0.23777   0.46938   0.00000  Uiso   1.00
H32    H     0.14373   0.09576   0.03018   0.00000  Uiso   1.00
H33    H     0.18868   0.23793   0.11107   0.00000  Uiso   1.00
H34    H     0.18880   0.09531   0.38936   0.00000  Uiso   1.00
H35    H     0.14477   0.23807   0.38896   0.00000  Uiso   1.00
H36    H     0.14453   0.09544   0.11062   0.00000  Uiso   1.00
N37    N     0.16667   0.28402   0.25000   0.00000  Uiso   1.00
N38    N     0.16667   0.04931   0.25000   0.00000  Uiso   1.00
O39    O     0.10655   0.20625   0.24999   0.00000  Uiso   1.00
O40    O     0.22679   0.12709   0.25000   0.00000  Uiso   1.00
O41    O     0.22679   0.20625   0.25000   0.00000  Uiso   1.00
O42    O     0.10655   0.12709   0.24999   0.00000  Uiso   1.00
O43    O     0.16666   0.20626   0.18573   0.00000  Uiso   1.00
O44    O     0.16667   0.12707   0.31427   0.00000  Uiso   1.00
O45    O     0.16667   0.20626   0.31427   0.00000  Uiso   1.00
O46    O     0.16666   0.12707   0.18573   0.00000  Uiso   1.00
F47    F     0.11674   0.04813   0.19316   0.00000  Uiso   1.00
F48    F     0.21654   0.28520   0.30689   0.00000  Uiso   1.00
F49    F     0.21621   0.04783   0.30720   0.00000  Uiso   1.00
F50    F     0.11718   0.28550   0.19274   0.00000  Uiso   1.00
F51    F     0.04188   0.09226   0.28721   0.00000  Uiso   1.00
F52    F     0.29144   0.24107   0.21278   0.00000  Uiso   1.00
F53    F     0.29249   0.09215   0.28716   0.00000  Uiso   1.00
F54    F     0.04084   0.24119   0.21285   0.00000  Uiso   1.00
C55    C     0.42072   0.16670   0.24997   0.00000  Uiso   1.00
C56    C     0.57927   0.16663   0.25003   0.00000  Uiso   1.00
C57    C     0.49996   0.16667   0.16497   0.00000  Uiso   1.00
C58    C     0.50005   0.16667   0.33503   0.00000  Uiso   1.00
C59    C     0.47518   0.02485   0.22160   0.00000  Uiso   1.00
C60    C     0.52481   0.30849   0.27841   0.00000  Uiso   1.00
C61    C     0.52477   0.02470   0.27845   0.00000  Uiso   1.00
C62    C     0.47525   0.30863   0.22153   0.00000  Uiso   1.00
C63    C     0.35488   0.12877   0.26828   0.00000  Uiso   1.00
C64    C     0.64512   0.20456   0.23171   0.00000  Uiso   1.00
C65    C     0.64563   0.12871   0.26826   0.00000  Uiso   1.00
C66    C     0.35437   0.20462   0.23174   0.00000  Uiso   1.00
C67    C     0.51249   0.20665   0.04775   0.00000  Uiso   1.00
C68    C     0.51256   0.12666   0.45250   0.00000  Uiso   1.00
C69    C     0.48764   0.20673   0.45227   0.00000  Uiso   1.00
C70    C     0.48751   0.12674   0.04749   0.00000  Uiso   1.00
C71    C     0.51216   0.20675   0.09365   0.00000  Uiso   1.00
C72    C     0.51228   0.12655   0.40658   0.00000  Uiso   1.00
C73    C     0.48794   0.20683   0.40636   0.00000  Uiso   1.00
C74    C     0.48775   0.12662   0.09341   0.00000  Uiso   1.00
C75    C     0.49995   0.16668   0.11673   0.00000  Uiso   1.00
C76    C     0.50010   0.16668   0.38327   0.00000  Uiso   1.00
C77    C     0.50003   0.16669   0.02429   0.00000  Uiso   1.00
C78    C     0.50008   0.16669   0.47572   0.00000  Uiso   1.00
C79    C     0.62388   0.16660   0.24998   0.00000  Uiso   1.00
C80    C     0.37612   0.16673   0.25001   0.00000  Uiso   1.00
Cu81   Cu    0.50000   0.21355   0.25000   0.00000  Uiso   1.00
Cu82   Cu    0.50000   0.11978   0.25000   0.00000  Uiso   1.00
H83    H     0.52297   0.23762   0.03065   0.00000  Uiso   1.00
H84    H     0.52299   0.09563   0.46980   0.00000  Uiso   1.00
H85    H     0.47720   0.23777   0.46938   0.00000  Uiso   1.00
H86    H     0.47706   0.09576   0.03018   0.00000  Uiso   1.00
H87    H     0.52201   0.23793   0.11107   0.00000  Uiso   1.00
H88    H     0.52213   0.09531   0.38936   0.00000  Uiso   1.00
H89    H     0.47810   0.23807   0.38896   0.00000  Uiso   1.00
H90    H     0.47787   0.09544   0.11062   0.00000  Uiso   1.00
N91    N     0.50000   0.28402   0.25000   0.00000  Uiso   1.00
N92    N     0.50000   0.04931   0.25000   0.00000  Uiso   1.00
O93    O     0.43988   0.20625   0.24999   0.00000  Uiso   1.00
O94    O     0.56012   0.12709   0.25000   0.00000  Uiso   1.00
O95    O     0.56012   0.20625   0.25000   0.00000  Uiso   1.00
O96    O     0.43988   0.12709   0.24999   0.00000  Uiso   1.00
O97    O     0.50000   0.20626   0.18573   0.00000  Uiso   1.00
O98    O     0.50000   0.12707   0.31427   0.00000  Uiso   1.00
O99    O     0.50000   0.20626   0.31427   0.00000  Uiso   1.00
O100   O     0.50000   0.12707   0.18573   0.00000  Uiso   1.00
F101   F     0.45008   0.04813   0.19316   0.00000  Uiso   1.00
F102   F     0.54987   0.28520   0.30689   0.00000  Uiso   1.00
F103   F     0.54955   0.04783   0.30720   0.00000  Uiso   1.00
F104   F     0.45051   0.28550   0.19274   0.00000  Uiso   1.00
F105   F     0.37522   0.09226   0.28721   0.00000  Uiso   1.00
F106   F     0.62478   0.24107   0.21278   0.00000  Uiso   1.00
F107   F     0.62582   0.09215   0.28716   0.00000  Uiso   1.00
F108   F     0.37418   0.24119   0.21285   0.00000  Uiso   1.00
C109   C     0.75406   0.16670   0.24997   0.00000  Uiso   1.00
C110   C     0.91261   0.16663   0.25003   0.00000  Uiso   1.00
C111   C     0.83329   0.16667   0.16497   0.00000  Uiso   1.00
C112   C     0.83339   0.16667   0.33503   0.00000  Uiso   1.00
C113   C     0.80851   0.02485   0.22160   0.00000  Uiso   1.00
C114   C     0.85815   0.30849   0.27841   0.00000  Uiso   1.00
C115   C     0.85810   0.02470   0.27845   0.00000  Uiso   1.00
C116   C     0.80858   0.30863   0.22153   0.00000  Uiso   1.00
C117   C     0.68821   0.12877   0.26828   0.00000  Uiso   1.00
C118   C     0.97845   0.20456   0.23171   0.00000  Uiso   1.00
C119   C     0.97896   0.12871   0.26826   0.00000  Uiso   1.00
C120   C     0.68770   0.20462   0.23174   0.00000  Uiso   1.00
C121   C     0.84582   0.20665   0.04775   0.00000  Uiso   1.00
C122   C     0.84589   0.12666   0.45250   0.00000  Uiso   1.00
C123   C     0.82098   0.20673   0.45227   0.00000  Uiso   1.00
C124   C     0.82084   0.12674   0.04749   0.00000  Uiso   1.00
C125   C     0.84549   0.20675   0.09365   0.00000  Uiso   1.00
C126   C     0.84562   0.12655   0.40658   0.00000  Uiso   1.00
C127   C     0.82127   0.20683   0.40636   0.00000  Uiso   1.00
C128   C     0.82109   0.12662   0.09341   0.00000  Uiso   1.00
C129   C     0.83328   0.16668   0.11673   0.00000  Uiso   1.00
C130   C     0.83343   0.16668   0.38327   0.00000  Uiso   1.00
C131   C     0.83336   0.16669   0.02429   0.00000  Uiso   1.00
C132   C     0.83341   0.16669   0.47572   0.00000  Uiso   1.00
C133   C     0.95721   0.16660   0.24998   0.00000  Uiso   1.00
C134   C     0.70945   0.16673   0.25001   0.00000  Uiso   1.00
Cu135  Cu    0.83333   0.21355   0.25000   0.00000  Uiso   1.00
Cu136  Cu    0.83333   0.11978   0.25000   0.00000  Uiso   1.00
H137   H     0.85630   0.23762   0.03065   0.00000  Uiso   1.00
H138   H     0.85632   0.09563   0.46980   0.00000  Uiso   1.00
H139   H     0.81053   0.23777   0.46938   0.00000  Uiso   1.00
H140   H     0.81039   0.09576   0.03018   0.00000  Uiso   1.00
H141   H     0.85535   0.23793   0.11107   0.00000  Uiso   1.00
H142   H     0.85547   0.09531   0.38936   0.00000  Uiso   1.00
H143   H     0.81144   0.23807   0.38896   0.00000  Uiso   1.00
H144   H     0.81120   0.09544   0.11062   0.00000  Uiso   1.00
N145   N     0.83333   0.28402   0.25000   0.00000  Uiso   1.00
N146   N     0.83333   0.04931   0.25000   0.00000  Uiso   1.00
O147   O     0.77321   0.20625   0.24999   0.00000  Uiso   1.00
O148   O     0.89345   0.12709   0.25000   0.00000  Uiso   1.00
O149   O     0.89345   0.20625   0.25000   0.00000  Uiso   1.00
O150   O     0.77321   0.12709   0.24999   0.00000  Uiso   1.00
O151   O     0.83333   0.20626   0.18573   0.00000  Uiso   1.00
O152   O     0.83334   0.12707   0.31427   0.00000  Uiso   1.00
O153   O     0.83334   0.20626   0.31427   0.00000  Uiso   1.00
O154   O     0.83333   0.12707   0.18573   0.00000  Uiso   1.00
F155   F     0.78341   0.04813   0.19316   0.00000  Uiso   1.00
F156   F     0.88320   0.28520   0.30689   0.00000  Uiso   1.00
F157   F     0.88288   0.04783   0.30720   0.00000  Uiso   1.00
F158   F     0.78384   0.28550   0.19274   0.00000  Uiso   1.00
F159   F     0.70855   0.09226   0.28721   0.00000  Uiso   1.00
F160   F     0.95811   0.24107   0.21278   0.00000  Uiso   1.00
F161   F     0.95915   0.09215   0.28716   0.00000  Uiso   1.00
F162   F     0.70751   0.24119   0.21285   0.00000  Uiso   1.00
C163   C     0.08739   0.50004   0.24997   0.00000  Uiso   1.00
C164   C     0.24594   0.49996   0.25003   0.00000  Uiso   1.00
C165   C     0.16662   0.50000   0.16497   0.00000  Uiso   1.00
C166   C     0.16672   0.50000   0.33503   0.00000  Uiso   1.00
C167   C     0.14184   0.35818   0.22160   0.00000  Uiso   1.00
C168   C     0.19148   0.64182   0.27841   0.00000  Uiso   1.00
C169   C     0.19143   0.35804   0.27845   0.00000  Uiso   1.00
C170   C     0.14191   0.64196   0.22153   0.00000  Uiso   1.00
C171   C     0.02154   0.46211   0.26828   0.00000  Uiso   1.00
C172   C     0.31179   0.53789   0.23171   0.00000  Uiso   1.00
C173   C     0.31229   0.46205   0.26826   0.00000  Uiso   1.00
C174   C     0.02104   0.53795   0.23174   0.00000  Uiso   1.00
C175   C     0.17915   0.53998   0.04775   0.00000  Uiso   1.00
C176   C     0.17922   0.46000   0.45250   0.00000  Uiso   1.00
C177   C     0.15431   0.54006   0.45227   0.00000  Uiso   1.00
C178   C     0.15418   0.46007   0.04749   0.00000  Uiso   1.00
C179   C     0.17883   0.54009   0.09365   0.00000  Uiso   1.00
C180   C     0.17895   0.45988   0.40658   0.00000  Uiso   1.00
C181   C     0.15461   0.54016   0.40636   0.00000  Uiso   1.00
C182   C     0.15442   0.45995   0.09341   0.00000  Uiso   1.00
C183   C     0.16661   0.50001   0.11673   0.00000  Uiso   1.00
C184   C     0.16676   0.50001   0.38327   0.00000  Uiso   1.00
C185   C     0.16670   0.50002   0.02429   0.00000  Uiso   1.00
C186   C     0.16675   0.50003   0.47572   0.00000  Uiso   1.00
C187   C     0.29055   0.49994   0.24998   0.00000  Uiso   1.00
C188   C     0.04278   0.50006   0.25001   0.00000  Uiso   1.00
Cu189  Cu    0.16667   0.54689   0.25000   0.00000  Uiso   1.00
Cu190  Cu    0.16667   0.45311   0.25000   0.00000  Uiso   1.00
H191   H     0.18963   0.57096   0.03065   0.00000  Uiso   1.00
H192   H     0.18966   0.42896   0.46980   0.00000  Uiso   1.00
H193   H     0.14386   0.57110   0.46938   0.00000  Uiso   1.00
H194   H     0.14373   0.42910   0.03018   0.00000  Uiso   1.00
H195   H     0.18868   0.57127   0.11107   0.00000  Uiso   1.00
H196   H     0.18880   0.42864   0.38936   0.00000  Uiso   1.00
H197   H     0.14477   0.57141   0.38896   0.00000  Uiso   1.00
H198   H     0.14453   0.42877   0.11062   0.00000  Uiso   1.00
N199   N     0.16667   0.61736   0.25000   0.00000  Uiso   1.00
N200   N     0.16667   0.38264   0.25000   0.00000  Uiso   1.00
O201   O     0.10655   0.53958   0.24999   0.00000  Uiso   1.00
O202   O     0.22679   0.46042   0.25000   0.00000  Uiso   1.00
O203   O     0.22679   0.53958   0.25000   0.00000  Uiso   1.00
O204   O     0.10655   0.46042   0.24999   0.00000  Uiso   1.00
O205   O     0.16666   0.53959   0.18573   0.00000  Uiso   1.00
O206   O     0.16667   0.46041   0.31427   0.00000  Uiso   1.00
O207   O     0.16667   0.53959   0.31427   0.00000  Uiso   1.00
O208   O     0.16666   0.46041   0.18573   0.00000  Uiso   1.00
F209   F     0.11674   0.38146   0.19316   0.00000  Uiso   1.00
F210   F     0.21654   0.61854   0.30689   0.00000  Uiso   1.00
F211   F     0.21621   0.38116   0.30720   0.00000  Uiso   1.00
F212   F     0.11718   0.61884   0.19274   0.00000  Uiso   1.00
F213   F     0.04188   0.42559   0.28721   0.00000  Uiso   1.00
F214   F     0.29144   0.57440   0.21278   0.00000  Uiso   1.00
F215   F     0.29249   0.42549   0.28716   0.00000  Uiso   1.00
F216   F     0.04084   0.57452   0.21285   0.00000  Uiso   1.00
C217   C     0.42072   0.50004   0.24997   0.00000  Uiso   1.00
C218   C     0.57927   0.49996   0.25003   0.00000  Uiso   1.00
C219   C     0.49996   0.50000   0.16497   0.00000  Uiso   1.00
C220   C     0.50005   0.50000   0.33503   0.00000  Uiso   1.00
C221   C     0.47518   0.35818   0.22160   0.00000  Uiso   1.00
C222   C     0.52481   0.64182   0.27841   0.00000  Uiso   1.00
C223   C     0.52477   0.35804   0.27845   0.00000  Uiso   1.00
C224   C     0.47525   0.64196   0.22153   0.00000  Uiso   1.00
C225   C     0.35488   0.46211   0.26828   0.00000  Uiso   1.00
C226   C     0.64512   0.53789   0.23171   0.00000  Uiso   1.00
C227   C     0.64563   0.46205   0.26826   0.00000  Uiso   1.00
C228   C     0.35437   0.53795   0.23174   0.00000  Uiso   1.00
C229   C     0.51249   0.53998   0.04775   0.00000  Uiso   1.00
C230   C     0.51256   0.46000   0.45250   0.00000  Uiso   1.00
C231   C     0.48764   0.54006   0.45227   0.00000  Uiso   1.00
C232   C     0.48751   0.46007   0.04749   0.00000  Uiso   1.00
C233   C     0.51216   0.54009   0.09365   0.00000  Uiso   1.00
C234   C     0.51228   0.45988   0.40658   0.00000  Uiso   1.00
C235   C     0.48794   0.54016   0.40636   0.00000  Uiso   1.00
C236   C     0.48775   0.45995   0.09341   0.00000  Uiso   1.00
C237   C     0.49995   0.50001   0.11673   0.00000  Uiso   1.00
C238   C     0.50010   0.50001   0.38327   0.00000  Uiso   1.00
C239   C     0.50003   0.50002   0.02429   0.00000  Uiso   1.00
C240   C     0.50008   0.50003   0.47572   0.00000  Uiso   1.00
C241   C     0.62388   0.49994   0.24998   0.00000  Uiso   1.00
C242   C     0.37612   0.50006   0.25001   0.00000  Uiso   1.00
Cu243  Cu    0.50000   0.54689   0.25000   0.00000  Uiso   1.00
Cu244  Cu    0.50000   0.45311   0.25000   0.00000  Uiso   1.00
H245   H     0.52297   0.57096   0.03065   0.00000  Uiso   1.00
H246   H     0.52299   0.42896   0.46980   0.00000  Uiso   1.00
H247   H     0.47720   0.57110   0.46938   0.00000  Uiso   1.00
H248   H     0.47706   0.42910   0.03018   0.00000  Uiso   1.00
H249   H     0.52201   0.57127   0.11107   0.00000  Uiso   1.00
H250   H     0.52213   0.42864   0.38936   0.00000  Uiso   1.00
H251   H     0.47810   0.57141   0.38896   0.00000  Uiso   1.00
H252   H     0.47787   0.42877   0.11062   0.00000  Uiso   1.00
N253   N     0.50000   0.61736   0.25000   0.00000  Uiso   1.00
N254   N     0.50000   0.38264   0.25000   0.00000  Uiso   1.00
O255   O     0.43988   0.53958   0.24999   0.00000  Uiso   1.00
O256   O     0.56012   0.46042   0.25000   0.00000  Uiso   1.00
O257   O     0.56012   0.53958   0.25000   0.00000  Uiso   1.00
O258   O     0.43988   0.46042   0.24999   0.00000  Uiso   1.00
O259   O     0.50000   0.53959   0.18573   0.00000  Uiso   1.00
O260   O     0.50000   0.46041   0.31427   0.00000  Uiso   1.00
O261   O     0.50000   0.53959   0.31427   0.00000  Uiso   1.00
O262   O     0.50000   0.46041   0.18573   0.00000  Uiso   1.00
F263   F     0.45008   0.38146   0.19316   0.00000  Uiso   1.00
F264   F     0.54987   0.61854   0.30689   0.00000  Uiso   1.00
F265   F     0.54955   0.38116   0.30720   0.00000  Uiso   1.00
F266   F     0.45051   0.61884   0.19274   0.00000  Uiso   1.00
F267   F     0.37522   0.42559   0.28721   0.00000  Uiso   1.00
F268   F     0.62478   0.57440   0.21278   0.00000  Uiso   1.00
F269   F     0.62582   0.42549   0.28716   0.00000  Uiso   1.00
F270   F     0.37418   0.57452   0.21285   0.00000  Uiso   1.00
C271   C     0.75406   0.50004   0.24997   0.00000  Uiso   1.00
C272   C     0.91261   0.49996   0.25003   0.00000  Uiso   1.00
C273   C     0.83329   0.50000   0.16497   0.00000  Uiso   1.00
C274   C     0.83339   0.50000   0.33503   0.00000  Uiso   1.00
C275   C     0.80851   0.35818   0.22160   0.00000  Uiso   1.00
C276   C     0.85815   0.64182   0.27841   0.00000  Uiso   1.00
C277   C     0.85810   0.35804   0.27845   0.00000  Uiso   1.00
C278   C     0.80858   0.64196   0.22153   0.00000  Uiso   1.00
C279   C     0.68821   0.46211   0.26828   0.00000  Uiso   1.00
C280   C     0.97845   0.53789   0.23171   0.00000  Uiso   1.00
C281   C     0.97896   0.46205   0.26826   0.00000  Uiso   1.00
C282   C     0.68770   0.53795   0.23174   0.00000  Uiso   1.00
C283   C     0.84582   0.53998   0.04775   0.00000  Uiso   1.00
C284   C     0.84589   0.46000   0.45250   0.00000  Uiso   1.00
C285   C     0.82098   0.54006   0.45227   0.00000  Uiso   1.00
C286   C     0.82084   0.46007   0.04749   0.00000  Uiso   1.00
C287   C     0.84549   0.54009   0.09365   0.00000  Uiso   1.00
C288   C     0.84562   0.45988   0.40658   0.00000  Uiso   1.00
C289   C     0.82127   0.54016   0.40636   0.00000  Uiso   1.00
C290   C     0.82109   0.45995   0.09341   0.00000  Uiso   1.00
C291   C     0.83328   0.50001   0.11673   0.00000  Uiso   1.00
C292   C     0.83343   0.50001   0.38327   0.00000  Uiso   1.00
C293   C     0.83336   0.50002   0.02429   0.00000  Uiso   1.00
C294   C     0.83341   0.50003   0.47572   0.00000  Uiso   1.00
C295   C     0.95721   0.49994   0.24998   0.00000  Uiso   1.00
C296   C     0.70945   0.50006   0.25001   0.00000  Uiso   1.00
Cu297  Cu    0.83333   0.54689   0.25000   0.00000  Uiso   1.00
Cu298  Cu    0.83333   0.45311   0.25000   0.00000  Uiso   1.00
H299   H     0.85630   0.57096   0.03065   0.00000  Uiso   1.00
H300   H     0.85632   0.42896   0.46980   0.00000  Uiso   1.00
H301   H     0.81053   0.57110   0.46938   0.00000  Uiso   1.00
H302   H     0.81039   0.42910   0.03018   0.00000  Uiso   1.00
H303   H     0.85535   0.57127   0.11107   0.00000  Uiso   1.00
H304   H     0.85547   0.42864   0.38936   0.00000  Uiso   1.00
H305   H     0.81144   0.57141   0.38896   0.00000  Uiso   1.00
H306   H     0.81120   0.42877   0.11062   0.00000  Uiso   1.00
N307   N     0.83333   0.61736   0.25000   0.00000  Uiso   1.00
N308   N     0.83333   0.38264   0.25000   0.00000  Uiso   1.00
O309   O     0.77321   0.53958   0.24999   0.00000  Uiso   1.00
O310   O     0.89345   0.46042   0.25000   0.00000  Uiso   1.00
O311   O     0.89345   0.53958   0.25000   0.00000  Uiso   1.00
O312   O     0.77321   0.46042   0.24999   0.00000  Uiso   1.00
O313   O     0.83333   0.53959   0.18573   0.00000  Uiso   1.00
O314   O     0.83334   0.46041   0.31427   0.00000  Uiso   1.00
O315   O     0.83334   0.53959   0.31427   0.00000  Uiso   1.00
O316   O     0.83333   0.46041   0.18573   0.00000  Uiso   1.00
F317   F     0.78341   0.38146   0.19316   0.00000  Uiso   1.00
F318   F     0.88320   0.61854   0.30689   0.00000  Uiso   1.00
F319   F     0.88288   0.38116   0.30720   0.00000  Uiso   1.00
F320   F     0.78384   0.61884   0.19274   0.00000  Uiso   1.00
F321   F     0.70855   0.42559   0.28721   0.00000  Uiso   1.00
F322   F     0.95811   0.57440   0.21278   0.00000  Uiso   1.00
F323   F     0.95915   0.42549   0.28716   0.00000  Uiso   1.00
F324   F     0.70751   0.57452   0.21285   0.00000  Uiso   1.00
C325   C     0.08739   0.83337   0.24997   0.00000  Uiso   1.00
C326   C     0.24594   0.83330   0.25003   0.00000  Uiso   1.00
C327   C     0.16662   0.83333   0.16497   0.00000  Uiso   1.00
C328   C     0.16672   0.83333   0.33503   0.00000  Uiso   1.00
C329   C     0.14184   0.69151   0.22160   0.00000  Uiso   1.00
C330   C     0.19148   0.97515   0.27841   0.00000  Uiso   1.00
C331   C     0.19143   0.69137   0.27845   0.00000  Uiso   1.00
C332   C     0.14191   0.97530   0.22153   0.00000  Uiso   1.00
C333   C     0.02154   0.79544   0.26828   0.00000  Uiso   1.00
C334   C     0.31179   0.87122   0.23171   0.00000  Uiso   1.00
C335   C     0.31229   0.79538   0.26826   0.00000  Uiso   1.00
C336   C     0.02104   0.87129   0.23174   0.00000  Uiso   1.00
C337   C     0.17915   0.87332   0.04775   0.00000  Uiso   1.00
C338   C     0.17922   0.79333   0.45250   0.00000  Uiso   1.00
C339   C     0.15431   0.87340   0.45227   0.00000  Uiso   1.00
C340   C     0.15418   0.79340   0.04749   0.00000  Uiso   1.00
C341   C     0.17883   0.87342   0.09365   0.00000  Uiso   1.00
C342   C     0.17895   0.79322   0.40658   0.00000  Uiso   1.00
C343   C     0.15461   0.87350   0.40636   0.00000  Uiso   1.00
C344   C     0.15442   0.79329   0.09341   0.00000  Uiso   1.00
C345   C     0.16661   0.83335   0.11673   0.00000  Uiso   1.00
C346   C     0.16676   0.83335   0.38327   0.00000  Uiso   1.00
C347   C     0.16670   0.83336   0.02429   0.00000  Uiso   1.00
C348   C     0.16675   0.83336   0.47572   0.00000  Uiso   1.00
C349   C     0.29055   0.83327   0.24998   0.00000  Uiso   1.00
C350   C     0.04278   0.83340   0.25001   0.00000  Uiso   1.00
Cu351  Cu    0.16667   0.88022   0.25000   0.00000  Uiso   1.00
Cu352  Cu    0.16667   0.78645   0.25000   0.00000  Uiso   1.00
H353   H     0.18963   0.90429   0.03065   0.00000  Uiso   1.00
H354   H     0.18966   0.76230   0.46980   0.00000  Uiso   1.00
H355   H     0.14386   0.90444   0.46938   0.00000  Uiso   1.00
H356   H     0.14373   0.76243   0.03018   0.00000  Uiso   1.00
H357   H     0.18868   0.90460   0.11107   0.00000  Uiso   1.00
H358   H     0.18880   0.76198   0.38936   0.00000  Uiso   1.00
H359   H     0.14477   0.90474   0.38896   0.00000  Uiso   1.00
H360   H     0.14453   0.76210   0.11062   0.00000  Uiso   1.00
N361   N     0.16667   0.95069   0.25000   0.00000  Uiso   1.00
N362   N     0.16667   0.71598   0.25000   0.00000  Uiso   1.00
O363   O     0.10655   0.87291   0.24999   0.00000  Uiso   1.00
O364   O     0.22679   0.79375   0.25000   0.00000  Uiso   1.00
O365   O     0.22679   0.87291   0.25000   0.00000  Uiso   1.00
O366   O     0.10655   0.79375   0.24999   0.00000  Uiso   1.00
O367   O     0.16666   0.87293   0.18573   0.00000  Uiso   1.00
O368   O     0.16667   0.79374   0.31427   0.00000  Uiso   1.00
O369   O     0.16667   0.87293   0.31427   0.00000  Uiso   1.00
O370   O     0.16666   0.79374   0.18573   0.00000  Uiso   1.00
F371   F     0.11674   0.71479   0.19316   0.00000  Uiso   1.00
F372   F     0.21654   0.95187   0.30689   0.00000  Uiso   1.00
F373   F     0.21621   0.71449   0.30720   0.00000  Uiso   1.00
F374   F     0.11718   0.95217   0.19274   0.00000  Uiso   1.00
F375   F     0.04188   0.75893   0.28721   0.00000  Uiso   1.00
F376   F     0.29144   0.90773   0.21278   0.00000  Uiso   1.00
F377   F     0.29249   0.75882   0.28716   0.00000  Uiso   1.00
F378   F     0.04084   0.90785   0.21285   0.00000  Uiso   1.00
C379   C     0.42072   0.83337   0.24997   0.00000  Uiso   1.00
C380   C     0.57927   0.83330   0.25003   0.00000  Uiso   1.00
C381   C     0.49996   0.83333   0.16497   0.00000  Uiso   1.00
C382   C     0.50005   0.83333   0.33503   0.00000  Uiso   1.00
C383   C     0.47518   0.69151   0.22160   0.00000  Uiso   1.00
C384   C     0.52481   0.97515   0.27841   0.00000  Uiso   1.00
C385   C     0.52477   0.69137   0.27845   0.00000  Uiso   1.00
C386   C     0.47525   0.97530   0.22153   0.00000  Uiso   1.00
C387   C     0.35488   0.79544   0.26828   0.00000  Uiso   1.00
C388   C     0.64512   0.87122   0.23171   0.00000  Uiso   1.00
C389   C     0.64563   0.79538   0.26826   0.00000  Uiso   1.00
C390   C     0.35437   0.87129   0.23174   0.00000  Uiso   1.00
C391   C     0.51249   0.87332   0.04775   0.00000  Uiso   1.00
C392   C     0.51256   0.79333   0.45250   0.00000  Uiso   1.00
C393   C     0.48764   0.87340   0.45227   0.00000  Uiso   1.00
C394   C     0.48751   0.79340   0.04749   0.00000  Uiso   1.00
C395   C     0.51216   0.87342   0.09365   0.00000  Uiso   1.00
C396   C     0.51228   0.79322   0.40658   0.00000  Uiso   1.00
C397   C     0.48794   0.87350   0.40636   0.00000  Uiso   1.00
C398   C     0.48775   0.79329   0.09341   0.00000  Uiso   1.00
C399   C     0.49995   0.83335   0.11673   0.00000  Uiso   1.00
C400   C     0.50010   0.83335   0.38327   0.00000  Uiso   1.00
C401   C     0.50003   0.83336   0.02429   0.00000  Uiso   1.00
C402   C     0.50008   0.83336   0.47572   0.00000  Uiso   1.00
C403   C     0.62388   0.83327   0.24998   0.00000  Uiso   1.00
C404   C     0.37612   0.83340   0.25001   0.00000  Uiso   1.00
Cu405  Cu    0.50000   0.88022   0.25000   0.00000  Uiso   1.00
Cu406  Cu    0.50000   0.78645   0.25000   0.00000  Uiso   1.00
H407   H     0.52297   0.90429   0.03065   0.00000  Uiso   1.00
H408   H     0.52299   0.76230   0.46980   0.00000  Uiso   1.00
H409   H     0.47720   0.90444   0.46938   0.00000  Uiso   1.00
H410   H     0.47706   0.76243   0.03018   0.00000  Uiso   1.00
H411   H     0.52201   0.90460   0.11107   0.00000  Uiso   1.00
H412   H     0.52213   0.76198   0.38936   0.00000  Uiso   1.00
H413   H     0.47810   0.90474   0.38896   0.00000  Uiso   1.00
H414   H     0.47787   0.76210   0.11062   0.00000  Uiso   1.00
N415   N     0.50000   0.95069   0.25000   0.00000  Uiso   1.00
N416   N     0.50000   0.71598   0.25000   0.00000  Uiso   1.00
O417   O     0.43988   0.87291   0.24999   0.00000  Uiso   1.00
O418   O     0.56012   0.79375   0.25000   0.00000  Uiso   1.00
O419   O     0.56012   0.87291   0.25000   0.00000  Uiso   1.00
O420   O     0.43988   0.79375   0.24999   0.00000  Uiso   1.00
O421   O     0.50000   0.87293   0.18573   0.00000  Uiso   1.00
O422   O     0.50000   0.79374   0.31427   0.00000  Uiso   1.00
O423   O     0.50000   0.87293   0.31427   0.00000  Uiso   1.00
O424   O     0.50000   0.79374   0.18573   0.00000  Uiso   1.00
F425   F     0.45008   0.71479   0.19316   0.00000  Uiso   1.00
F426   F     0.54987   0.95187   0.30689   0.00000  Uiso   1.00
F427   F     0.54955   0.71449   0.30720   0.00000  Uiso   1.00
F428   F     0.45051   0.95217   0.19274   0.00000  Uiso   1.00
F429   F     0.37522   0.75893   0.28721   0.00000  Uiso   1.00
F430   F     0.62478   0.90773   0.21278   0.00000  Uiso   1.00
F431   F     0.62582   0.75882   0.28716   0.00000  Uiso   1.00
F432   F     0.37418   0.90785   0.21285   0.00000  Uiso   1.00
C433   C     0.75406   0.83337   0.24997   0.00000  Uiso   1.00
C434   C     0.91261   0.83330   0.25003   0.00000  Uiso   1.00
C435   C     0.83329   0.83333   0.16497   0.00000  Uiso   1.00
C436   C     0.83339   0.83333   0.33503   0.00000  Uiso   1.00
C437   C     0.80851   0.69151   0.22160   0.00000  Uiso   1.00
C438   C     0.85815   0.97515   0.27841   0.00000  Uiso   1.00
C439   C     0.85810   0.69137   0.27845   0.00000  Uiso   1.00
C440   C     0.80858   0.97530   0.22153   0.00000  Uiso   1.00
C441   C     0.68821   0.79544   0.26828   0.00000  Uiso   1.00
C442   C     0.97845   0.87122   0.23171   0.00000  Uiso   1.00
C443   C     0.97896   0.79538   0.26826   0.00000  Uiso   1.00
C444   C     0.68770   0.87129   0.23174   0.00000  Uiso   1.00
C445   C     0.84582   0.87332   0.04775   0.00000  Uiso   1.00
C446   C     0.84589   0.79333   0.45250   0.00000  Uiso   1.00
C447   C     0.82098   0.87340   0.45227   0.00000  Uiso   1.00
C448   C     0.82084   0.79340   0.04749   0.00000  Uiso   1.00
C449   C     0.84549   0.87342   0.09365   0.00000  Uiso   1.00
C450   C     0.84562   0.79322   0.40658   0.00000  Uiso   1.00
C451   C     0.82127   0.87350   0.40636   0.00000  Uiso   1.00
C452   C     0.82109   0.79329   0.09341   0.00000  Uiso   1.00
C453   C     0.83328   0.83335   0.11673   0.00000  Uiso   1.00
C454   C     0.83343   0.83335   0.38327   0.00000  Uiso   1.00
C455   C     0.83336   0.83336   0.02429   0.00000  Uiso   1.00
C456   C     0.83341   0.83336   0.47572   0.00000  Uiso   1.00
C457   C     0.95721   0.83327   0.24998   0.00000  Uiso   1.00
C458   C     0.70945   0.83340   0.25001   0.00000  Uiso   1.00
Cu459  Cu    0.83333   0.88022   0.25000   0.00000  Uiso   1.00
Cu460  Cu    0.83333   0.78645   0.25000   0.00000  Uiso   1.00
H461   H     0.85630   0.90429   0.03065   0.00000  Uiso   1.00
H462   H     0.85632   0.76230   0.46980   0.00000  Uiso   1.00
H463   H     0.81053   0.90444   0.46938   0.00000  Uiso   1.00
H464   H     0.81039   0.76243   0.03018   0.00000  Uiso   1.00
H465   H     0.85535   0.90460   0.11107   0.00000  Uiso   1.00
H466   H     0.85547   0.76198   0.38936   0.00000  Uiso   1.00
H467   H     0.81144   0.90474   0.38896   0.00000  Uiso   1.00
H468   H     0.81120   0.76210   0.11062   0.00000  Uiso   1.00
N469   N     0.83333   0.95069   0.25000   0.00000  Uiso   1.00
N470   N     0.83333   0.71598   0.25000   0.00000  Uiso   1.00
O471   O     0.77321   0.87291   0.24999   0.00000  Uiso   1.00
O472   O     0.89345   0.79375   0.25000   0.00000  Uiso   1.00
O473   O     0.89345   0.87291   0.25000   0.00000  Uiso   1.00
O474   O     0.77321   0.79375   0.24999   0.00000  Uiso   1.00
O475   O     0.83333   0.87293   0.18573   0.00000  Uiso   1.00
O476   O     0.83334   0.79374   0.31427   0.00000  Uiso   1.00
O477   O     0.83334   0.87293   0.31427   0.00000  Uiso   1.00
O478   O     0.83333   0.79374   0.18573   0.00000  Uiso   1.00
F479   F     0.78341   0.71479   0.19316   0.00000  Uiso   1.00
F480   F     0.88320   0.95187   0.30689   0.00000  Uiso   1.00
F481   F     0.88288   0.71449   0.30720   0.00000  Uiso   1.00
F482   F     0.78384   0.95217   0.19274   0.00000  Uiso   1.00
F483   F     0.70855   0.75893   0.28721   0.00000  Uiso   1.00
F484   F     0.95811   0.90773   0.21278   0.00000  Uiso   1.00
F485   F     0.95915   0.75882   0.28716   0.00000  Uiso   1.00
F486   F     0.70751   0.90785   0.21285   0.00000  Uiso   1.00
C487   C     0.08739   0.16670   0.74997   0.00000  Uiso   1.00
C488   C     0.24594   0.16663   0.75003   0.00000  Uiso   1.00
C489   C     0.16662   0.16667   0.66497   0.00000  Uiso   1.00
C490   C     0.16672   0.16667   0.83503   0.00000  Uiso   1.00
C491   C     0.14184   0.02485   0.72160   0.00000  Uiso   1.00
C492   C     0.19148   0.30849   0.77841   0.00000  Uiso   1.00
C493   C     0.19143   0.02470   0.77845   0.00000  Uiso   1.00
C494   C     0.14191   0.30863   0.72153   0.00000  Uiso   1.00
C495   C     0.02154   0.12877   0.76828   0.00000  Uiso   1.00
C496   C     0.31179   0.20456   0.73171   0.00000  Uiso   1.00
C497   C     0.31229   0.12871   0.76826   0.00000  Uiso   1.00
C498   C     0.02104   0.20462   0.73174   0.00000  Uiso   1.00
C499   C     0.17915   0.20665   0.54775   0.00000  Uiso   1.00
C500   C     0.17922   0.12666   0.95250   0.00000  Uiso   1.00
C501   C     0.15431   0.20673   0.95227   0.00000  Uiso   1.00
C502   C     0.15418   0.12674   0.54749   0.00000  Uiso   1.00
C503   C     0.17883   0.20675   0.59365   0.00000  Uiso   1.00
C504   C     0.17895   0.12655   0.90658   0.00000  Uiso   1.00
C505   C     0.15461   0.20683   0.90636   0.00000  Uiso   1.00
C506   C     0.15442   0.12662   0.59341   0.00000  Uiso   1.00
C507   C     0.16661   0.16668   0.61673   0.00000  Uiso   1.00
C508   C     0.16676   0.16668   0.88327   0.00000  Uiso   1.00
C509   C     0.16670   0.16669   0.52429   0.00000  Uiso   1.00
C510   C     0.16675   0.16669   0.97572   0.00000  Uiso   1.00
C511   C     0.29055   0.16660   0.74998   0.00000  Uiso   1.00
C512   C     0.04278   0.16673   0.75001   0.00000  Uiso   1.00
Cu513  Cu    0.16667   0.21355   0.75000   0.00000  Uiso   1.00
Cu514  Cu    0.16667   0.11978   0.75000   0.00000  Uiso   1.00
H515   H     0.18963   0.23762   0.53065   0.00000  Uiso   1.00
H516   H     0.18966   0.09563   0.96980   0.00000  Uiso   1.00
H517   H     0.14386   0.23777   0.96938   0.00000  Uiso   1.00
H518   H     0.14373   0.09576   0.53018   0.00000  Uiso   1.00
H519   H     0.18868   0.23793   0.61107   0.00000  Uiso   1.00
H520   H     0.18880   0.09531   0.88936   0.00000  Uiso   1.00
H521   H     0.14477   0.23807   0.88896   0.00000  Uiso   1.00
H522   H     0.14453   0.09544   0.61062   0.00000  Uiso   1.00
N523   N     0.16667   0.28402   0.75000   0.00000  Uiso   1.00
N524   N     0.16667   0.04931   0.75000   0.00000  Uiso   1.00
O525   O     0.10655   0.20625   0.74999   0.00000  Uiso   1.00
O526   O     0.22679   0.12709   0.75000   0.00000  Uiso   1.00
O527   O     0.22679   0.20625   0.75000   0.00000  Uiso   1.00
O528   O     0.10655   0.12709   0.74999   0.00000  Uiso   1.00
O529   O     0.16666   0.20626   0.68573   0.00000  Uiso   1.00
O530   O     0.16667   0.12707   0.81427   0.00000  Uiso   1.00
O531   O     0.16667   0.20626   0.81427   0.00000  Uiso   1.00
O532   O     0.16666   0.12707   0.68573   0.00000  Uiso   1.00
F533   F     0.11674   0.04813   0.69316   0.00000  Uiso   1.00
F534   F     0.21654   0.28520   0.80689   0.00000  Uiso   1.00
F535   F     0.21621   0.04783   0.80720   0.00000  Uiso   1.00
F536   F     0.11718   0.28550   0.69274   0.00000  Uiso   1.00
F537   F     0.04188   0.09226   0.78721   0.00000  Uiso   1.00
F538   F     0.29144   0.24107   0.71278   0.00000  Uiso   1.00
F539   F     0.29249   0.09215   0.78716   0.00000  Uiso   1.00
F540   F     0.04084   0.24119   0.71285   0.00000  Uiso   1.00
C541   C     0.42072   0.16670   0.74997   0.00000  Uiso   1.00
C542   C     0.57927   0.16663   0.75003   0.00000  Uiso   1.00
C543   C     0.49996   0.16667   0.66497   0.00000  Uiso   1.00
C544   C     0.50005   0.16667   0.83503   0.00000  Uiso   1.00
C545   C     0.47518   0.02485   0.72160   0.00000  Uiso   1.00
C546   C     0.52481   0.30849   0.77841   0.00000  Uiso   1.00
C547   C     0.52477   0.02470   0.77845   0.00000  Uiso   1.00
C548   C     0.47525   0.30863   0.72153   0.00000  Uiso   1.00
C549   C     0.35488   0.12877   0.76828   0.00000  Uiso   1.00
C550   C     0.64512   0.20456   0.73171   0.00000  Uiso   1.00
C551   C     0.64563   0.12871   0.76826   0.00000  Uiso   1.00
C552   C     0.35437   0.20462   0.73174   0.00000  Uiso   1.00
C553   C     0.51249   0.20665   0.54775   0.00000  Uiso   1.00
C554   C     0.51256   0.12666   0.95250   0.00000  Uiso   1.00
C555   C     0.48764   0.20673   0.95227   0.00000  Uiso   1.00
C556   C     0.48751   0.12674   0.54749   0.00000  Uiso   1.00
C557   C     0.51216   0.20675   0.59365   0.00000  Uiso   1.00
C558   C     0.51228   0.12655   0.90658   0.00000  Uiso   1.00
C559   C     0.48794   0.20683   0.90636   0.00000  Uiso   1.00
C560   C     0.48775   0.12662   0.59341   0.00000  Uiso   1.00
C561   C     0.49995   0.16668   0.61673   0.00000  Uiso   1.00
C562   C     0.50010   0.16668   0.88327   0.00000  Uiso   1.00
C563   C     0.50003   0.16669   0.52429   0.00000  Uiso   1.00
C564   C     0.50008   0.16669   0.97572   0.00000  Uiso   1.00
C565   C     0.62388   0.16660   0.74998   0.00000  Uiso   1.00
C566   C     0.37612   0.16673   0.75001   0.00000  Uiso   1.00
Cu567  Cu    0.50000   0.21355   0.75000   0.00000  Uiso   1.00
Cu568  Cu    0.50000   0.11978   0.75000   0.00000  Uiso   1.00
H569   H     0.52297   0.23762   0.53065   0.00000  Uiso   1.00
H570   H     0.52299   0.09563   0.96980   0.00000  Uiso   1.00
H571   H     0.47720   0.23777   0.96938   0.00000  Uiso   1.00
H572   H     0.47706   0.09576   0.53018   0.00000  Uiso   1.00
H573   H     0.52201   0.23793   0.61107   0.00000  Uiso   1.00
H574   H     0.52213   0.09531   0.88936   0.00000  Uiso   1.00
H575   H     0.47810   0.23807   0.88896   0.00000  Uiso   1.00
H576   H     0.47787   0.09544   0.61062   0.00000  Uiso   1.00
N577   N     0.50000   0.28402   0.75000   0.00000  Uiso   1.00
N578   N     0.50000   0.04931   0.75000   0.00000  Uiso   1.00
O579   O     0.43988   0.20625   0.74999   0.00000  Uiso   1.00
O580   O     0.56012   0.12709   0.75000   0.00000  Uiso   1.00
O581   O     0.56012   0.20625   0.75000   0.00000  Uiso   1.00
O582   O     0.43988   0.12709   0.74999   0.00000  Uiso   1.00
O583   O     0.50000   0.20626   0.68573   0.00000  Uiso   1.00
O584   O     0.50000   0.12707   0.81427   0.00000  Uiso   1.00
O585   O     0.50000   0.20626   0.81427   0.00000  Uiso   1.00
O586   O     0.50000   0.12707   0.68573   0.00000  Uiso   1.00
F587   F     0.45008   0.04813   0.69316   0.00000  Uiso   1.00
F588   F     0.54987   0.28520   0.80689   0.00000  Uiso   1.00
F589   F     0.54955   0.04783   0.80720   0.00000  Uiso   1.00
F590   F     0.45051   0.28550   0.69274   0.00000  Uiso   1.00
F591   F     0.37522   0.09226   0.78721   0.00000  Uiso   1.00
F592   F     0.62478   0.24107   0.71278   0.00000  Uiso   1.00
F593   F     0.62582   0.09215   0.78716   0.00000  Uiso   1.00
F594   F     0.37418   0.24119   0.71285   0.00000  Uiso   1.00
C595   C     0.75406   0.16670   0.74997   0.00000  Uiso   1.00
C596   C     0.91261   0.16663   0.75003   0.00000  Uiso   1.00
C597   C     0.83329   0.16667   0.66497   0.00000  Uiso   1.00
C598   C     0.83339   0.16667   0.83503   0.00000  Uiso   1.00
C599   C     0.80851   0.02485   0.72160   0.00000  Uiso   1.00
C600   C     0.85815   0.30849   0.77841   0.00000  Uiso   1.00
C601   C     0.85810   0.02470   0.77845   0.00000  Uiso   1.00
C602   C     0.80858   0.30863   0.72153   0.00000  Uiso   1.00
C603   C     0.68821   0.12877   0.76828   0.00000  Uiso   1.00
C604   C     0.97845   0.20456   0.73171   0.00000  Uiso   1.00
C605   C     0.97896   0.12871   0.76826   0.00000  Uiso   1.00
C606   C     0.68770   0.20462   0.73174   0.00000  Uiso   1.00
C607   C     0.84582   0.20665   0.54775   0.00000  Uiso   1.00
C608   C     0.84589   0.12666   0.95250   0.00000  Uiso   1.00
C609   C     0.82098   0.20673   0.95227   0.00000  Uiso   1.00
C610   C     0.82084   0.12674   0.54749   0.00000  Uiso   1.00
C611   C     0.84549   0.20675   0.59365   0.00000  Uiso   1.00
C612   C     0.84562   0.12655   0.90658   0.00000  Uiso   1.00
C613   C     0.82127   0.20683   0.90636   0.00000  Uiso   1.00
C614   C     0.82109   0.12662   0.59341   0.00000  Uiso   1.00
C615   C     0.83328   0.16668   0.61673   0.00000  Uiso   1.00
C616   C     0.83343   0.16668   0.88327   0.00000  Uiso   1.00
C617   C     0.83336   0.16669   0.52429   0.00000  Uiso   1.00
C618   C     0.83341   0.16669   0.97572   0.00000  Uiso   1.00
C619   C     0.95721   0.16660   0.74998   0.00000  Uiso   1.00
C620   C     0.70945   0.16673   0.75001   0.00000  Uiso   1.00
Cu621  Cu    0.83333   0.21355   0.75000   0.00000  Uiso   1.00
Cu622  Cu    0.83333   0.11978   0.75000   0.00000  Uiso   1.00
H623   H     0.85630   0.23762   0.53065   0.00000  Uiso   1.00
H624   H     0.85632   0.09563   0.96980   0.00000  Uiso   1.00
H625   H     0.81053   0.23777   0.96938   0.00000  Uiso   1.00
H626   H     0.81039   0.09576   0.53018   0.00000  Uiso   1.00
H627   H     0.85535   0.23793   0.61107   0.00000  Uiso   1.00
H628   H     0.85547   0.09531   0.88936   0.00000  Uiso   1.00
H629   H     0.81144   0.23807   0.88896   0.00000  Uiso   1.00
H630   H     0.81120   0.09544   0.61062   0.00000  Uiso   1.00
N631   N     0.83333   0.28402   0.75000   0.00000  Uiso   1.00
N632   N     0.83333   0.04931   0.75000   0.00000  Uiso   1.00
O633   O     0.77321   0.20625   0.74999   0.00000  Uiso   1.00
O634   O     0.89345   0.12709   0.75000   0.00000  Uiso   1.00
O635   O     0.89345   0.20625   0.75000   0.00000  Uiso   1.00
O636   O     0.77321   0.12709   0.74999   0.00000  Uiso   1.00
O637   O     0.83333   0.20626   0.68573   0.00000  Uiso   1.00
O638   O     0.83334   0.12707   0.81427   0.00000  Uiso   1.00
O639   O     0.83334   0.20626   0.81427   0.00000  Uiso   1.00
O640   O     0.83333   0.12707   0.68573   0.00000  Uiso   1.00
F641   F     0.78341   0.04813   0.69316   0.00000  Uiso   1.00
F642   F     0.88320   0.28520   0.80689   0.00000  Uiso   1.00
F643   F     0.88288   0.04783   0.80720   0.00000  Uiso   1.00
F644   F     0.78384   0.28550   0.69274   0.00000  Uiso   1.00
F645   F     0.70855   0.09226   0.78721   0.00000  Uiso   1.00
F646   F     0.95811   0.24107   0.71278   0.00000  Uiso   1.00
F647   F     0.95915   0.09215   0.78716   0.00000  Uiso   1.00
F648   F     0.70751   0.24119   0.71285   0.00000  Uiso   1.00
C649   C     0.08739   0.50004   0.74997   0.00000  Uiso   1.00
C650   C     0.24594   0.49996   0.75003   0.00000  Uiso   1.00
C651   C     0.16662   0.50000   0.66497   0.00000  Uiso   1.00
C652   C     0.16672   0.50000   0.83503   0.00000  Uiso   1.00
C653   C     0.14184   0.35818   0.72160   0.00000  Uiso   1.00
C654   C     0.19148   0.64182   0.77841   0.00000  Uiso   1.00
C655   C     0.19143   0.35804   0.77845   0.00000  Uiso   1.00
C656   C     0.14191   0.64196   0.72153   0.00000  Uiso   1.00
C657   C     0.02154   0.46211   0.76828   0.00000  Uiso   1.00
C658   C     0.31179   0.53789   0.73171   0.00000  Uiso   1.00
C659   C     0.31229   0.46205   0.76826   0.00000  Uiso   1.00
C660   C     0.02104   0.53795   0.73174   0.00000  Uiso   1.00
C661   C     0.17915   0.53998   0.54775   0.00000  Uiso   1.00
C662   C     0.17922   0.46000   0.95250   0.00000  Uiso   1.00
C663   C     0.15431   0.54006   0.95227   0.00000  Uiso   1.00
C664   C     0.15418   0.46007   0.54749   0.00000  Uiso   1.00
C665   C     0.17883   0.54009   0.59365   0.00000  Uiso   1.00
C666   C     0.17895   0.45988   0.90658   0.00000  Uiso   1.00
C667   C     0.15461   0.54016   0.90636   0.00000  Uiso   1.00
C668   C     0.15442   0.45995   0.59341   0.00000  Uiso   1.00
C669   C     0.16661   0.50001   0.61673   0.00000  Uiso   1.00
C670   C     0.16676   0.50001   0.88327   0.00000  Uiso   1.00
C671   C     0.16670   0.50002   0.52429   0.00000  Uiso   1.00
C672   C     0.16675   0.50003   0.97572   0.00000  Uiso   1.00
C673   C     0.29055   0.49994   0.74998   0.00000  Uiso   1.00
C674   C     0.04278   0.50006   0.75001   0.00000  Uiso   1.00
Cu675  Cu    0.16667   0.54689   0.75000   0.00000  Uiso   1.00
Cu676  Cu    0.16667   0.45311   0.75000   0.00000  Uiso   1.00
H677   H     0.18963   0.57096   0.53065   0.00000  Uiso   1.00
H678   H     0.18966   0.42896   0.96980   0.00000  Uiso   1.00
H679   H     0.14386   0.57110   0.96938   0.00000  Uiso   1.00
H680   H     0.14373   0.42910   0.53018   0.00000  Uiso   1.00
H681   H     0.18868   0.57127   0.61107   0.00000  Uiso   1.00
H682   H     0.18880   0.42864   0.88936   0.00000  Uiso   1.00
H683   H     0.14477   0.57141   0.88896   0.00000  Uiso   1.00
H684   H     0.14453   0.42877   0.61062   0.00000  Uiso   1.00
N685   N     0.16667   0.61736   0.75000   0.00000  Uiso   1.00
N686   N     0.16667   0.38264   0.75000   0.00000  Uiso   1.00
O687   O     0.10655   0.53958   0.74999   0.00000  Uiso   1.00
O688   O     0.22679   0.46042   0.75000   0.00000  Uiso   1.00
O689   O     0.22679   0.53958   0.75000   0.00000  Uiso   1.00
O690   O     0.10655   0.46042   0.74999   0.00000  Uiso   1.00
O691   O     0.16666   0.53959   0.68573   0.00000  Uiso   1.00
O692   O     0.16667   0.46041   0.81427   0.00000  Uiso   1.00
O693   O     0.16667   0.53959   0.81427   0.00000  Uiso   1.00
O694   O     0.16666   0.46041   0.68573   0.00000  Uiso   1.00
F695   F     0.11674   0.38146   0.69316   0.00000  Uiso   1.00
F696   F     0.21654   0.61854   0.80689   0.00000  Uiso   1.00
F697   F     0.21621   0.38116   0.80720   0.00000  Uiso   1.00
F698   F     0.11718   0.61884   0.69274   0.00000  Uiso   1.00
F699   F     0.04188   0.42559   0.78721   0.00000  Uiso   1.00
F700   F     0.29144   0.57440   0.71278   0.00000  Uiso   1.00
F701   F     0.29249   0.42549   0.78716   0.00000  Uiso   1.00
F702   F     0.04084   0.57452   0.71285   0.00000  Uiso   1.00
C703   C     0.42072   0.50004   0.74997   0.00000  Uiso   1.00
C704   C     0.57927   0.49996   0.75003   0.00000  Uiso   1.00
C705   C     0.49996   0.50000   0.66497   0.00000  Uiso   1.00
C706   C     0.50005   0.50000   0.83503   0.00000  Uiso   1.00
C707   C     0.47518   0.35818   0.72160   0.00000  Uiso   1.00
C708   C     0.52481   0.64182   0.77841   0.00000  Uiso   1.00
C709   C     0.52477   0.35804   0.77845   0.00000  Uiso   1.00
C710   C     0.47525   0.64196   0.72153   0.00000  Uiso   1.00
C711   C     0.35488   0.46211   0.76828   0.00000  Uiso   1.00
C712   C     0.64512   0.53789   0.73171   0.00000  Uiso   1.00
C713   C     0.64563   0.46205   0.76826   0.00000  Uiso   1.00
C714   C     0.35437   0.53795   0.73174   0.00000  Uiso   1.00
C715   C     0.51249   0.53998   0.54775   0.00000  Uiso   1.00
C716   C     0.51256   0.46000   0.95250   0.00000  Uiso   1.00
C717   C     0.48764   0.54006   0.95227   0.00000  Uiso   1.00
C718   C     0.48751   0.46007   0.54749   0.00000  Uiso   1.00
C719   C     0.51216   0.54009   0.59365   0.00000  Uiso   1.00
C720   C     0.51228   0.45988   0.90658   0.00000  Uiso   1.00
C721   C     0.48794   0.54016   0.90636   0.00000  Uiso   1.00
C722   C     0.48775   0.45995   0.59341   0.00000  Uiso   1.00
C723   C     0.49995   0.50001   0.61673   0.00000  Uiso   1.00
C724   C     0.50010   0.50001   0.88327   0.00000  Uiso   1.00
C725   C     0.50003   0.50002   0.52429   0.00000  Uiso   1.00
C726   C     0.50008   0.50003   0.97572   0.00000  Uiso   1.00
C727   C     0.62388   0.49994   0.74998   0.00000  Uiso   1.00
C728   C     0.37612   0.50006   0.75001   0.00000  Uiso   1.00
Cu729  Cu    0.50000   0.54689   0.75000   0.00000  Uiso   1.00
Cu730  Cu    0.50000   0.45311   0.75000   0.00000  Uiso   1.00
H731   H     0.52297   0.57096   0.53065   0.00000  Uiso   1.00
H732   H     0.52299   0.42896   0.96980   0.00000  Uiso   1.00
H733   H     0.47720   0.57110   0.96938   0.00000  Uiso   1.00
H734   H     0.47706   0.42910   0.53018   0.00000  Uiso   1.00
H735   H     0.52201   0.57127   0.61107   0.00000  Uiso   1.00
H736   H     0.52213   0.42864   0.88936   0.00000  Uiso   1.00
H737   H     0.47810   0.57141   0.88896   0.00000  Uiso   1.00
H738   H     0.47787   0.42877   0.61062   0.00000  Uiso   1.00
N739   N     0.50000   0.61736   0.75000   0.00000  Uiso   1.00
N740   N     0.50000   0.38264   0.75000   0.00000  Uiso   1.00
O741   O     0.43988   0.53958   0.74999   0.00000  Uiso   1.00
O742   O     0.56012   0.46042   0.75000   0.00000  Uiso   1.00
O743   O     0.56012   0.53958   0.75000   0.00000  Uiso   1.00
O744   O     0.43988   0.46042   0.74999   0.00000  Uiso   1.00
O745   O     0.50000   0.53959   0.68573   0.00000  Uiso   1.00
O746   O     0.50000   0.46041   0.81427   0.00000  Uiso   1.00
O747   O     0.50000   0.53959   0.81427   0.00000  Uiso   1.00
O748   O     0.50000   0.46041   0.68573   0.00000  Uiso   1.00
F749   F     0.45008   0.38146   0.69316   0.00000  Uiso   1.00
F750   F     0.54987   0.61854   0.80689   0.00000  Uiso   1.00
F751   F     0.54955   0.38116   0.80720   0.00000  Uiso   1.00
F752   F     0.45051   0.61884   0.69274   0.00000  Uiso   1.00
F753   F     0.37522   0.42559   0.78721   0.00000  Uiso   1.00
F754   F     0.62478   0.57440   0.71278   0.00000  Uiso   1.00
F755   F     0.62582   0.42549   0.78716   0.00000  Uiso   1.00
F756   F     0.37418   0.57452   0.71285   0.00000  Uiso   1.00
C757   C     0.75406   0.50004   0.74997   0.00000  Uiso   1.00
C758   C     0.91261   0.49996   0.75003   0.00000  Uiso   1.00
C759   C     0.83329   0.50000   0.66497   0.00000  Uiso   1.00
C760   C     0.83339   0.50000   0.83503   0.00000  Uiso   1.00
C761   C     0.80851   0.35818   0.72160   0.00000  Uiso   1.00
C762   C     0.85815   0.64182   0.77841   0.00000  Uiso   1.00
C763   C     0.85810   0.35804   0.77845   0.00000  Uiso   1.00
C764   C     0.80858   0.64196   0.72153   0.00000  Uiso   1.00
C765   C     0.68821   0.46211   0.76828   0.00000  Uiso   1.00
C766   C     0.97845   0.53789   0.73171   0.00000  Uiso   1.00
C767   C     0.97896   0.46205   0.76826   0.00000  Uiso   1.00
C768   C     0.68770   0.53795   0.73174   0.00000  Uiso   1.00
C769   C     0.84582   0.53998   0.54775   0.00000  Uiso   1.00
C770   C     0.84589   0.46000   0.95250   0.00000  Uiso   1.00
C771   C     0.82098   0.54006   0.95227   0.00000  Uiso   1.00
C772   C     0.82084   0.46007   0.54749   0.00000  Uiso   1.00
C773   C     0.84549   0.54009   0.59365   0.00000  Uiso   1.00
C774   C     0.84562   0.45988   0.90658   0.00000  Uiso   1.00
C775   C     0.82127   0.54016   0.90636   0.00000  Uiso   1.00
C776   C     0.82109   0.45995   0.59341   0.00000  Uiso   1.00
C777   C     0.83328   0.50001   0.61673   0.00000  Uiso   1.00
C778   C     0.83343   0.50001   0.88327   0.00000  Uiso   1.00
C779   C     0.83336   0.50002   0.52429   0.00000  Uiso   1.00
C780   C     0.83341   0.50003   0.97572   0.00000  Uiso   1.00
C781   C     0.95721   0.49994   0.74998   0.00000  Uiso   1.00
C782   C     0.70945   0.50006   0.75001   0.00000  Uiso   1.00
Cu783  Cu    0.83333   0.54689   0.75000   0.00000  Uiso   1.00
Cu784  Cu    0.83333   0.45311   0.75000   0.00000  Uiso   1.00
H785   H     0.85630   0.57096   0.53065   0.00000  Uiso   1.00
H786   H     0.85632   0.42896   0.96980   0.00000  Uiso   1.00
H787   H     0.81053   0.57110   0.96938   0.00000  Uiso   1.00
H788   H     0.81039   0.42910   0.53018   0.00000  Uiso   1.00
H789   H     0.85535   0.57127   0.61107   0.00000  Uiso   1.00
H790   H     0.85547   0.42864   0.88936   0.00000  Uiso   1.00
H791   H     0.81144   0.57141   0.88896   0.00000  Uiso   1.00
H792   H     0.81120   0.42877   0.61062   0.00000  Uiso   1.00
N793   N     0.83333   0.61736   0.75000   0.00000  Uiso   1.00
N794   N     0.83333   0.38264   0.75000   0.00000  Uiso   1.00
O795   O     0.77321   0.53958   0.74999   0.00000  Uiso   1.00
O796   O     0.89345   0.46042   0.75000   0.00000  Uiso   1.00
O797   O     0.89345   0.53958   0.75000   0.00000  Uiso   1.00
O798   O     0.77321   0.46042   0.74999   0.00000  Uiso   1.00
O799   O     0.83333   0.53959   0.68573   0.00000  Uiso   1.00
O800   O     0.83334   0.46041   0.81427   0.00000  Uiso   1.00
O801   O     0.83334   0.53959   0.81427   0.00000  Uiso   1.00
O802   O     0.83333   0.46041   0.68573   0.00000  Uiso   1.00
F803   F     0.78341   0.38146   0.69316   0.00000  Uiso   1.00
F804   F     0.88320   0.61854   0.80689   0.00000  Uiso   1.00
F805   F     0.88288   0.38116   0.80720   0.00000  Uiso   1.00
F806   F     0.78384   0.61884   0.69274   0.00000  Uiso   1.00
F807   F     0.70855   0.42559   0.78721   0.00000  Uiso   1.00
F808   F     0.95811   0.57440   0.71278   0.00000  Uiso   1.00
F809   F     0.95915   0.42549   0.78716   0.00000  Uiso   1.00
F810   F     0.70751   0.57452   0.71285   0.00000  Uiso   1.00
C811   C     0.08739   0.83337   0.74997   0.00000  Uiso   1.00
C812   C     0.24594   0.83330   0.75003   0.00000  Uiso   1.00
C813   C     0.16662   0.83333   0.66497   0.00000  Uiso   1.00
C814   C     0.16672   0.83333   0.83503   0.00000  Uiso   1.00
C815   C     0.14184   0.69151   0.72160   0.00000  Uiso   1.00
C816   C     0.19148   0.97515   0.77841   0.00000  Uiso   1.00
C817   C     0.19143   0.69137   0.77845   0.00000  Uiso   1.00
C818   C     0.14191   0.97530   0.72153   0.00000  Uiso   1.00
C819   C     0.02154   0.79544   0.76828   0.00000  Uiso   1.00
C820   C     0.31179   0.87122   0.73171   0.00000  Uiso   1.00
C821   C     0.31229   0.79538   0.76826   0.00000  Uiso   1.00
C822   C     0.02104   0.87129   0.73174   0.00000  Uiso   1.00
C823   C     0.17915   0.87332   0.54775   0.00000  Uiso   1.00
C824   C     0.17922   0.79333   0.95250   0.00000  Uiso   1.00
C825   C     0.15431   0.87340   0.95227   0.00000  Uiso   1.00
C826   C     0.15418   0.79340   0.54749   0.00000  Uiso   1.00
C827   C     0.17883   0.87342   0.59365   0.00000  Uiso   1.00
C828   C     0.17895   0.79322   0.90658   0.00000  Uiso   1.00
C829   C     0.15461   0.87350   0.90636   0.00000  Uiso   1.00
C830   C     0.15442   0.79329   0.59341   0.00000  Uiso   1.00
C831   C     0.16661   0.83335   0.61673   0.00000  Uiso   1.00
C832   C     0.16676   0.83335   0.88327   0.00000  Uiso   1.00
C833   C     0.16670   0.83336   0.52429   0.00000  Uiso   1.00
C834   C     0.16675   0.83336   0.97572   0.00000  Uiso   1.00
C835   C     0.29055   0.83327   0.74998   0.00000  Uiso   1.00
C836   C     0.04278   0.83340   0.75001   0.00000  Uiso   1.00
Cu837  Cu    0.16667   0.88022   0.75000   0.00000  Uiso   1.00
Cu838  Cu    0.16667   0.78645   0.75000   0.00000  Uiso   1.00
H839   H     0.18963   0.90429   0.53065   0.00000  Uiso   1.00
H840   H     0.18966   0.76230   0.96980   0.00000  Uiso   1.00
H841   H     0.14386   0.90444   0.96938   0.00000  Uiso   1.00
H842   H     0.14373   0.76243   0.53018   0.00000  Uiso   1.00
H843   H     0.18868   0.90460   0.61107   0.00000  Uiso   1.00
H844   H     0.18880   0.76198   0.88936   0.00000  Uiso   1.00
H845   H     0.14477   0.90474   0.88896   0.00000  Uiso   1.00
H846   H     0.14453   0.76210   0.61062   0.00000  Uiso   1.00
N847   N     0.16667   0.95069   0.75000   0.00000  Uiso   1.00
N848   N     0.16667   0.71598   0.75000   0.00000  Uiso   1.00
O849   O     0.10655   0.87291   0.74999   0.00000  Uiso   1.00
O850   O     0.22679   0.79375   0.75000   0.00000  Uiso   1.00
O851   O     0.22679   0.87291   0.75000   0.00000  Uiso   1.00
O852   O     0.10655   0.79375   0.74999   0.00000  Uiso   1.00
O853   O     0.16666   0.87293   0.68573   0.00000  Uiso   1.00
O854   O     0.16667   0.79374   0.81427   0.00000  Uiso   1.00
O855   O     0.16667   0.87293   0.81427   0.00000  Uiso   1.00
O856   O     0.16666   0.79374   0.68573   0.00000  Uiso   1.00
F857   F     0.11674   0.71479   0.69316   0.00000  Uiso   1.00
F858   F     0.21654   0.95187   0.80689   0.00000  Uiso   1.00
F859   F     0.21621   0.71449   0.80720   0.00000  Uiso   1.00
F860   F     0.11718   0.95217   0.69274   0.00000  Uiso   1.00
F861   F     0.04188   0.75893   0.78721   0.00000  Uiso   1.00
F862   F     0.29144   0.90773   0.71278   0.00000  Uiso   1.00
F863   F     0.29249   0.75882   0.78716   0.00000  Uiso   1.00
F864   F     0.04084   0.90785   0.71285   0.00000  Uiso   1.00
C865   C     0.42072   0.83337   0.74997   0.00000  Uiso   1.00
C866   C     0.57927   0.83330   0.75003   0.00000  Uiso   1.00
C867   C     0.49996   0.83333   0.66497   0.00000  Uiso   1.00
C868   C     0.50005   0.83333   0.83503   0.00000  Uiso   1.00
C869   C     0.47518   0.69151   0.72160   0.00000  Uiso   1.00
C870   C     0.52481   0.97515   0.77841   0.00000  Uiso   1.00
C871   C     0.52477   0.69137   0.77845   0.00000  Uiso   1.00
C872   C     0.47525   0.97530   0.72153   0.00000  Uiso   1.00
C873   C     0.35488   0.79544   0.76828   0.00000  Uiso   1.00
C874   C     0.64512   0.87122   0.73171   0.00000  Uiso   1.00
C875   C     0.64563   0.79538   0.76826   0.00000  Uiso   1.00
C876   C     0.35437   0.87129   0.73174   0.00000  Uiso   1.00
C877   C     0.51249   0.87332   0.54775   0.00000  Uiso   1.00
C878   C     0.51256   0.79333   0.95250   0.00000  Uiso   1.00
C879   C     0.48764   0.87340   0.95227   0.00000  Uiso   1.00
C880   C     0.48751   0.79340   0.54749   0.00000  Uiso   1.00
C881   C     0.51216   0.87342   0.59365   0.00000  Uiso   1.00
C882   C     0.51228   0.79322   0.90658   0.00000  Uiso   1.00
C883   C     0.48794   0.87350   0.90636   0.00000  Uiso   1.00
C884   C     0.48775   0.79329   0.59341   0.00000  Uiso   1.00
C885   C     0.49995   0.83335   0.61673   0.00000  Uiso   1.00
C886   C     0.50010   0.83335   0.88327   0.00000  Uiso   1.00
C887   C     0.50003   0.83336   0.52429   0.00000  Uiso   1.00
C888   C     0.50008   0.83336   0.97572   0.00000  Uiso   1.00
C889   C     0.62388   0.83327   0.74998   0.00000  Uiso   1.00
C890   C     0.37612   0.83340   0.75001   0.00000  Uiso   1.00
Cu891  Cu    0.50000   0.88022   0.75000   0.00000  Uiso   1.00
Cu892  Cu    0.50000   0.78645   0.75000   0.00000  Uiso   1.00
H893   H     0.52297   0.90429   0.53065   0.00000  Uiso   1.00
H894   H     0.52299   0.76230   0.96980   0.00000  Uiso   1.00
H895   H     0.47720   0.90444   0.96938   0.00000  Uiso   1.00
H896   H     0.47706   0.76243   0.53018   0.00000  Uiso   1.00
H897   H     0.52201   0.90460   0.61107   0.00000  Uiso   1.00
H898   H     0.52213   0.76198   0.88936   0.00000  Uiso   1.00
H899   H     0.47810   0.90474   0.88896   0.00000  Uiso   1.00
H900   H     0.47787   0.76210   0.61062   0.00000  Uiso   1.00
N901   N     0.50000   0.95069   0.75000   0.00000  Uiso   1.00
N902   N     0.50000   0.71598   0.75000   0.00000  Uiso   1.00
O903   O     0.43988   0.87291   0.74999   0.00000  Uiso   1.00
O904   O     0.56012   0.79375   0.75000   0.00000  Uiso   1.00
O905   O     0.56012   0.87291   0.75000   0.00000  Uiso   1.00
O906   O     0.43988   0.79375   0.74999   0.00000  Uiso   1.00
O907   O     0.50000   0.87293   0.68573   0.00000  Uiso   1.00
O908   O     0.50000   0.79374   0.81427   0.00000  Uiso   1.00
O909   O     0.50000   0.87293   0.81427   0.00000  Uiso   1.00
O910   O     0.50000   0.79374   0.68573   0.00000  Uiso   1.00
F911   F     0.45008   0.71479   0.69316   0.00000  Uiso   1.00
F912   F     0.54987   0.95187   0.80689   0.00000  Uiso   1.00
F913   F     0.54955   0.71449   0.80720   0.00000  Uiso   1.00
F914   F     0.45051   0.95217   0.69274   0.00000  Uiso   1.00
F915   F     0.37522   0.75893   0.78721   0.00000  Uiso   1.00
F916   F     0.62478   0.90773   0.71278   0.00000  Uiso   1.00
F917   F     0.62582   0.75882   0.78716   0.00000  Uiso   1.00
F918   F     0.37418   0.90785   0.71285   0.00000  Uiso   1.00
C919   C     0.75406   0.83337   0.74997   0.00000  Uiso   1.00
C920   C     0.91261   0.83330   0.75003   0.00000  Uiso   1.00
C921   C     0.83329   0.83333   0.66497   0.00000  Uiso   1.00
C922   C     0.83339   0.83333   0.83503   0.00000  Uiso   1.00
C923   C     0.80851   0.69151   0.72160   0.00000  Uiso   1.00
C924   C     0.85815   0.97515   0.77841   0.00000  Uiso   1.00
C925   C     0.85810   0.69137   0.77845   0.00000  Uiso   1.00
C926   C     0.80858   0.97530   0.72153   0.00000  Uiso   1.00
C927   C     0.68821   0.79544   0.76828   0.00000  Uiso   1.00
C928   C     0.97845   0.87122   0.73171   0.00000  Uiso   1.00
C929   C     0.97896   0.79538   0.76826   0.00000  Uiso   1.00
C930   C     0.68770   0.87129   0.73174   0.00000  Uiso   1.00
C931   C     0.84582   0.87332   0.54775   0.00000  Uiso   1.00
C932   C     0.84589   0.79333   0.95250   0.00000  Uiso   1.00
C933   C     0.82098   0.87340   0.95227   0.00000  Uiso   1.00
C934   C     0.82084   0.79340   0.54749   0.00000  Uiso   1.00
C935   C     0.84549   0.87342   0.59365   0.00000  Uiso   1.00
C936   C     0.84562   0.79322   0.90658   0.00000  Uiso   1.00
C937   C     0.82127   0.87350   0.90636   0.00000  Uiso   1.00
C938   C     0.82109   0.79329   0.59341   0.00000  Uiso   1.00
C939   C     0.83328   0.83335   0.61673   0.00000  Uiso   1.00
C940   C     0.83343   0.83335   0.88327   0.00000  Uiso   1.00
C941   C     0.83336   0.83336   0.52429   0.00000  Uiso   1.00
C942   C     0.83341   0.83336   0.97572   0.00000  Uiso   1.00
C943   C     0.95721   0.83327   0.74998   0.00000  Uiso   1.00
C944   C     0.70945   0.83340   0.75001   0.00000  Uiso   1.00
Cu945  Cu    0.83333   0.88022   0.75000   0.00000  Uiso   1.00
Cu946  Cu    0.83333   0.78645   0.75000   0.00000  Uiso   1.00
H947   H     0.85630   0.90429   0.53065   0.00000  Uiso   1.00
H948   H     0.85632   0.76230   0.96980   0.00000  Uiso   1.00
H949   H     0.81053   0.90444   0.96938   0.00000  Uiso   1.00
H950   H     0.81039   0.76243   0.53018   0.00000  Uiso   1.00
H951   H     0.85535   0.90460   0.61107   0.00000  Uiso   1.00
H952   H     0.85547   0.76198   0.88936   0.00000  Uiso   1.00
H953   H     0.81144   0.90474   0.88896   0.00000  Uiso   1.00
H954   H     0.81120   0.76210   0.61062   0.00000  Uiso   1.00
N955   N     0.83333   0.95069   0.75000   0.00000  Uiso   1.00
N956   N     0.83333   0.71598   0.75000   0.00000  Uiso   1.00
O957   O     0.77321   0.87291   0.74999   0.00000  Uiso   1.00
O958   O     0.89345   0.79375   0.75000   0.00000  Uiso   1.00
O959   O     0.89345   0.87291   0.75000   0.00000  Uiso   1.00
O960   O     0.77321   0.79375   0.74999   0.00000  Uiso   1.00
O961   O     0.83333   0.87293   0.68573   0.00000  Uiso   1.00
O962   O     0.83334   0.79374   0.81427   0.00000  Uiso   1.00
O963   O     0.83334   0.87293   0.81427   0.00000  Uiso   1.00
O964   O     0.83333   0.79374   0.68573   0.00000  Uiso   1.00
F965   F     0.78341   0.71479   0.69316   0.00000  Uiso   1.00
F966   F     0.88320   0.95187   0.80689   0.00000  Uiso   1.00
F967   F     0.88288   0.71449   0.80720   0.00000  Uiso   1.00
F968   F     0.78384   0.95217   0.69274   0.00000  Uiso   1.00
F969   F     0.70855   0.75893   0.78721   0.00000  Uiso   1.00
F970   F     0.95811   0.90773   0.71278   0.00000  Uiso   1.00
F971   F     0.95915   0.75882   0.78716   0.00000  Uiso   1.00
F972   F     0.70751   0.90785   0.71285   0.00000  Uiso   1.00
loop_
_geom_bond_atom_site_label_1
_geom_bond_atom_site_label_2
_geom_bond_distance
_geom_bond_site_symmetry_2
_ccdc_geom_bond_type
C1     C26     1.450   .     S
C1     O39     1.292   .     A
C1     O42     1.291   .     A
C2     O40     1.292   .     A
C2     C25     1.450   .     S
C2     O41     1.291   .     A
C3     O46     1.295   .     A
C3     O43     1.295   .     A
C3     C21     1.460   .     S
C4     C22     1.460   .     S
C4     O45     1.295   .     A
C4     O44     1.295   .     A
C5     N38     1.368   .     A
C5     F47     1.355   .     S
C5     C332    1.417   1_545 S
C6     N37     1.368   .     A
C6     F48     1.355   .     S
C6     C169    1.417   .     S
C7     F49     1.355   .     S
C7     N38     1.368   .     A
C7     C330    1.417   1_545 S
C8     N37     1.368   .     A
C8     F50     1.355   .     S
C8     C167    1.417   .     S
C9     C26     1.404   .     A
C9     F51     1.359   .     S
C9     C119    1.385   1_455 S
C10    F52     1.359   .     S
C10    C25     1.404   .     A
C10    C66     1.385   .     S
C11    F53     1.358   .     S
C11    C25     1.404   .     A
C11    C63     1.385   .     S
C12    F54     1.358   .     S
C12    C26     1.404   .     A
C12    C118    1.385   1_455 S
C13    C17     1.390   .     A
C13    C23     1.404   .     A
C13    H29     1.083   .     S
C14    H30     1.083   .     S
C14    C24     1.404   .     A
C14    C18     1.390   .     A
C15    H31     1.083   .     S
C15    C19     1.390   .     A
C15    C24     1.404   .     A
C16    H32     1.083   .     S
C16    C20     1.390   .     A
C16    C23     1.404   .     A
C17    H33     1.083   .     S
C17    C21     1.402   .     A
C18    H34     1.083   .     S
C18    C22     1.402   .     A
C19    H35     1.083   .     S
C19    C22     1.402   .     A
C20    H36     1.083   .     S
C20    C21     1.402   .     A
C23    C510    1.470   1_554 S
C24    C509    1.470   .     S
Cu27   O41     1.965   .     S
Cu27   O45     1.957   .     S
Cu27   N37     2.015   .     S
Cu27   O39     1.966   .     S
Cu27   Cu28    2.681   .     S
Cu27   O43     1.957   .     S
Cu28   O46     1.957   .     S
Cu28   O42     1.965   .     S
Cu28   O40     1.966   .     S
Cu28   N38     2.015   .     S
Cu28   O44     1.957   .     S
C55    C80     1.450   .     S
C55    O93     1.292   .     A
C55    O96     1.291   .     A
C56    O94     1.292   .     A
C56    C79     1.450   .     S
C56    O95     1.291   .     A
C57    O100    1.295   .     A
C57    O97     1.295   .     A
C57    C75     1.460   .     S
C58    C76     1.460   .     S
C58    O99     1.295   .     A
C58    O98     1.295   .     A
C59    N92     1.368   .     A
C59    F101    1.355   .     S
C59    C386    1.417   1_545 S
C60    N91     1.368   .     A
C60    F102    1.355   .     S
C60    C223    1.417   .     S
C61    F103    1.355   .     S
C61    N92     1.368   .     A
C61    C384    1.417   1_545 S
C62    N91     1.368   .     A
C62    F104    1.355   .     S
C62    C221    1.417   .     S
C63    C80     1.404   .     A
C63    F105    1.359   .     S
C64    F106    1.359   .     S
C64    C79     1.404   .     A
C64    C120    1.385   .     S
C65    F107    1.358   .     S
C65    C79     1.404   .     A
C65    C117    1.385   .     S
C66    F108    1.358   .     S
C66    C80     1.404   .     A
C67    C71     1.390   .     A
C67    C77     1.404   .     A
C67    H83     1.083   .     S
C68    H84     1.083   .     S
C68    C78     1.404   .     A
C68    C72     1.390   .     A
C69    H85     1.083   .     S
C69    C73     1.390   .     A
C69    C78     1.404   .     A
C70    H86     1.083   .     S
C70    C74     1.390   .     A
C70    C77     1.404   .     A
C71    H87     1.083   .     S
C71    C75     1.402   .     A
C72    H88     1.083   .     S
C72    C76     1.402   .     A
C73    H89     1.083   .     S
C73    C76     1.402   .     A
C74    H90     1.083   .     S
C74    C75     1.402   .     A
C77    C564    1.470   1_554 S
C78    C563    1.470   .     S
Cu81   O95     1.965   .     S
Cu81   O99     1.957   .     S
Cu81   N91     2.015   .     S
Cu81   O93     1.966   .     S
Cu81   Cu82    2.681   .     S
Cu81   O97     1.957   .     S
Cu82   O100    1.957   .     S
Cu82   O96     1.965   .     S
Cu82   O94     1.966   .     S
Cu82   N92     2.015   .     S
Cu82   O98     1.957   .     S
C109   C134    1.450   .     S
C109   O147    1.292   .     A
C109   O150    1.291   .     A
C110   O148    1.292   .     A
C110   C133    1.450   .     S
C110   O149    1.291   .     A
C111   O154    1.295   .     A
C111   O151    1.295   .     A
C111   C129    1.460   .     S
C112   C130    1.460   .     S
C112   O153    1.295   .     A
C112   O152    1.295   .     A
C113   N146    1.368   .     A
C113   F155    1.355   .     S
C113   C440    1.417   1_545 S
C114   N145    1.368   .     A
C114   F156    1.355   .     S
C114   C277    1.417   .     S
C115   F157    1.355   .     S
C115   N146    1.368   .     A
C115   C438    1.417   1_545 S
C116   N145    1.368   .     A
C116   F158    1.355   .     S
C116   C275    1.417   .     S
C117   C134    1.404   .     A
C117   F159    1.359   .     S
C118   F160    1.359   .     S
C118   C133    1.404   .     A
C118   C12     1.385   1_655 S
C119   F161    1.358   .     S
C119   C133    1.404   .     A
C119   C9      1.385   1_655 S
C120   F162    1.358   .     S
C120   C134    1.404   .     A
C121   C125    1.390   .     A
C121   C131    1.404   .     A
C121   H137    1.083   .     S
C122   H138    1.083   .     S
C122   C132    1.404   .     A
C122   C126    1.390   .     A
C123   H139    1.083   .     S
C123   C127    1.390   .     A
C123   C132    1.404   .     A
C124   H140    1.083   .     S
C124   C128    1.390   .     A
C124   C131    1.404   .     A
C125   H141    1.083   .     S
C125   C129    1.402   .     A
C126   H142    1.083   .     S
C126   C130    1.402   .     A
C127   H143    1.083   .     S
C127   C130    1.402   .     A
C128   H144    1.083   .     S
C128   C129    1.402   .     A
C131   C618    1.470   1_554 S
C132   C617    1.470   .     S
Cu135  O149    1.965   .     S
Cu135  O153    1.957   .     S
Cu135  N145    2.015   .     S
Cu135  O147    1.966   .     S
Cu135  Cu136   2.681   .     S
Cu135  O151    1.957   .     S
Cu136  O154    1.957   .     S
Cu136  O150    1.965   .     S
Cu136  O148    1.966   .     S
Cu136  N146    2.015   .     S
Cu136  O152    1.957   .     S
C163   C188    1.450   .     S
C163   O201    1.292   .     A
C163   O204    1.291   .     A
C164   O202    1.292   .     A
C164   C187    1.450   .     S
C164   O203    1.291   .     A
C165   O208    1.295   .     A
C165   O205    1.295   .     A
C165   C183    1.460   .     S
C166   C184    1.460   .     S
C166   O207    1.295   .     A
C166   O206    1.295   .     A
C167   N200    1.368   .     A
C167   F209    1.355   .     S
C168   N199    1.368   .     A
C168   F210    1.355   .     S
C168   C331    1.417   .     S
C169   F211    1.355   .     S
C169   N200    1.368   .     A
C170   N199    1.368   .     A
C170   F212    1.355   .     S
C170   C329    1.417   .     S
C171   C188    1.404   .     A
C171   F213    1.359   .     S
C171   C281    1.385   1_455 S
C172   F214    1.359   .     S
C172   C187    1.404   .     A
C172   C228    1.385   .     S
C173   F215    1.358   .     S
C173   C187    1.404   .     A
C173   C225    1.385   .     S
C174   F216    1.358   .     S
C174   C188    1.404   .     A
C174   C280    1.385   1_455 S
C175   C179    1.390   .     A
C175   C185    1.404   .     A
C175   H191    1.083   .     S
C176   H192    1.083   .     S
C176   C186    1.404   .     A
C176   C180    1.390   .     A
C177   H193    1.083   .     S
C177   C181    1.390   .     A
C177   C186    1.404   .     A
C178   H194    1.083   .     S
C178   C182    1.390   .     A
C178   C185    1.404   .     A
C179   H195    1.083   .     S
C179   C183    1.402   .     A
C180   H196    1.083   .     S
C180   C184    1.402   .     A
C181   H197    1.083   .     S
C181   C184    1.402   .     A
C182   H198    1.083   .     S
C182   C183    1.402   .     A
C185   C672    1.470   1_554 S
C186   C671    1.470   .     S
Cu189  O203    1.965   .     S
Cu189  O207    1.957   .     S
Cu189  N199    2.015   .     S
Cu189  O201    1.966   .     S
Cu189  Cu190   2.681   .     S
Cu189  O205    1.957   .     S
Cu190  O208    1.957   .     S
Cu190  O204    1.965   .     S
Cu190  O202    1.966   .     S
Cu190  N200    2.015   .     S
Cu190  O206    1.957   .     S
C217   C242    1.450   .     S
C217   O255    1.292   .     A
C217   O258    1.291   .     A
C218   O256    1.292   .     A
C218   C241    1.450   .     S
C218   O257    1.291   .     A
C219   O262    1.295   .     A
C219   O259    1.295   .     A
C219   C237    1.460   .     S
C220   C238    1.460   .     S
C220   O261    1.295   .     A
C220   O260    1.295   .     A
C221   N254    1.368   .     A
C221   F263    1.355   .     S
C222   N253    1.368   .     A
C222   F264    1.355   .     S
C222   C385    1.417   .     S
C223   F265    1.355   .     S
C223   N254    1.368   .     A
C224   N253    1.368   .     A
C224   F266    1.355   .     S
C224   C383    1.417   .     S
C225   C242    1.404   .     A
C225   F267    1.359   .     S
C226   F268    1.359   .     S
C226   C241    1.404   .     A
C226   C282    1.385   .     S
C227   F269    1.358   .     S
C227   C241    1.404   .     A
C227   C279    1.385   .     S
C228   F270    1.358   .     S
C228   C242    1.404   .     A
C229   C233    1.390   .     A
C229   C239    1.404   .     A
C229   H245    1.083   .     S
C230   H246    1.083   .     S
C230   C240    1.404   .     A
C230   C234    1.390   .     A
C231   H247    1.083   .     S
C231   C235    1.390   .     A
C231   C240    1.404   .     A
C232   H248    1.083   .     S
C232   C236    1.390   .     A
C232   C239    1.404   .     A
C233   H249    1.083   .     S
C233   C237    1.402   .     A
C234   H250    1.083   .     S
C234   C238    1.402   .     A
C235   H251    1.083   .     S
C235   C238    1.402   .     A
C236   H252    1.083   .     S
C236   C237    1.402   .     A
C239   C726    1.470   1_554 S
C240   C725    1.470   .     S
Cu243  O257    1.965   .     S
Cu243  O261    1.957   .     S
Cu243  N253    2.015   .     S
Cu243  O255    1.966   .     S
Cu243  Cu244   2.681   .     S
Cu243  O259    1.957   .     S
Cu244  O262    1.957   .     S
Cu244  O258    1.965   .     S
Cu244  O256    1.966   .     S
Cu244  N254    2.015   .     S
Cu244  O260    1.957   .     S
C271   C296    1.450   .     S
C271   O309    1.292   .     A
C271   O312    1.291   .     A
C272   O310    1.292   .     A
C272   C295    1.450   .     S
C272   O311    1.291   .     A
C273   O316    1.295   .     A
C273   O313    1.295   .     A
C273   C291    1.460   .     S
C274   C292    1.460   .     S
C274   O315    1.295   .     A
C274   O314    1.295   .     A
C275   N308    1.368   .     A
C275   F317    1.355   .     S
C276   N307    1.368   .     A
C276   F318    1.355   .     S
C276   C439    1.417   .     S
C277   F319    1.355   .     S
C277   N308    1.368   .     A
C278   N307    1.368   .     A
C278   F320    1.355   .     S
C278   C437    1.417   .     S
C279   C296    1.404   .     A
C279   F321    1.359   .     S
C280   F322    1.359   .     S
C280   C295    1.404   .     A
C280   C174    1.385   1_655 S
C281   F323    1.358   .     S
C281   C295    1.404   .     A
C281   C171    1.385   1_655 S
C282   F324    1.358   .     S
C282   C296    1.404   .     A
C283   C287    1.390   .     A
C283   C293    1.404   .     A
C283   H299    1.083   .     S
C284   H300    1.083   .     S
C284   C294    1.404   .     A
C284   C288    1.390   .     A
C285   H301    1.083   .     S
C285   C289    1.390   .     A
C285   C294    1.404   .     A
C286   H302    1.083   .     S
C286   C290    1.390   .     A
C286   C293    1.404   .     A
C287   H303    1.083   .     S
C287   C291    1.402   .     A
C288   H304    1.083   .     S
C288   C292    1.402   .     A
C289   H305    1.083   .     S
C289   C292    1.402   .     A
C290   H306    1.083   .     S
C290   C291    1.402   .     A
C293   C780    1.470   1_554 S
C294   C779    1.470   .     S
Cu297  O311    1.965   .     S
Cu297  O315    1.957   .     S
Cu297  N307    2.015   .     S
Cu297  O309    1.966   .     S
Cu297  Cu298   2.681   .     S
Cu297  O313    1.957   .     S
Cu298  O316    1.957   .     S
Cu298  O312    1.965   .     S
Cu298  O310    1.966   .     S
Cu298  N308    2.015   .     S
Cu298  O314    1.957   .     S
C325   C350    1.450   .     S
C325   O363    1.292   .     A
C325   O366    1.291   .     A
C326   O364    1.292   .     A
C326   C349    1.450   .     S
C326   O365    1.291   .     A
C327   O370    1.295   .     A
C327   O367    1.295   .     A
C327   C345    1.460   .     S
C328   C346    1.460   .     S
C328   O369    1.295   .     A
C328   O368    1.295   .     A
C329   N362    1.368   .     A
C329   F371    1.355   .     S
C330   N361    1.368   .     A
C330   F372    1.355   .     S
C330   C7      1.417   1_565 S
C331   F373    1.355   .     S
C331   N362    1.368   .     A
C332   N361    1.368   .     A
C332   F374    1.355   .     S
C332   C5      1.417   1_565 S
C333   C350    1.404   .     A
C333   F375    1.359   .     S
C333   C443    1.385   1_455 S
C334   F376    1.359   .     S
C334   C349    1.404   .     A
C334   C390    1.385   .     S
C335   F377    1.358   .     S
C335   C349    1.404   .     A
C335   C387    1.385   .     S
C336   F378    1.358   .     S
C336   C350    1.404   .     A
C336   C442    1.385   1_455 S
C337   C341    1.390   .     A
C337   C347    1.404   .     A
C337   H353    1.083   .     S
C338   H354    1.083   .     S
C338   C348    1.404   .     A
C338   C342    1.390   .     A
C339   H355    1.083   .     S
C339   C343    1.390   .     A
C339   C348    1.404   .     A
C340   H356    1.083   .     S
C340   C344    1.390   .     A
C340   C347    1.404   .     A
C341   H357    1.083   .     S
C341   C345    1.402   .     A
C342   H358    1.083   .     S
C342   C346    1.402   .     A
C343   H359    1.083   .     S
C343   C346    1.402   .     A
C344   H360    1.083   .     S
C344   C345    1.402   .     A
C347   C834    1.470   1_554 S
C348   C833    1.470   .     S
Cu351  O365    1.965   .     S
Cu351  O369    1.957   .     S
Cu351  N361    2.015   .     S
Cu351  O363    1.966   .     S
Cu351  Cu352   2.681   .     S
Cu351  O367    1.957   .     S
Cu352  O370    1.957   .     S
Cu352  O366    1.965   .     S
Cu352  O364    1.966   .     S
Cu352  N362    2.015   .     S
Cu352  O368    1.957   .     S
C379   C404    1.450   .     S
C379   O417    1.292   .     A
C379   O420    1.291   .     A
C380   O418    1.292   .     A
C380   C403    1.450   .     S
C380   O419    1.291   .     A
C381   O424    1.295   .     A
C381   O421    1.295   .     A
C381   C399    1.460   .     S
C382   C400    1.460   .     S
C382   O423    1.295   .     A
C382   O422    1.295   .     A
C383   N416    1.368   .     A
C383   F425    1.355   .     S
C384   N415    1.368   .     A
C384   F426    1.355   .     S
C384   C61     1.417   1_565 S
C385   F427    1.355   .     S
C385   N416    1.368   .     A
C386   N415    1.368   .     A
C386   F428    1.355   .     S
C386   C59     1.417   1_565 S
C387   C404    1.404   .     A
C387   F429    1.359   .     S
C388   F430    1.359   .     S
C388   C403    1.404   .     A
C388   C444    1.385   .     S
C389   F431    1.358   .     S
C389   C403    1.404   .     A
C389   C441    1.385   .     S
C390   F432    1.358   .     S
C390   C404    1.404   .     A
C391   C395    1.390   .     A
C391   C401    1.404   .     A
C391   H407    1.083   .     S
C392   H408    1.083   .     S
C392   C402    1.404   .     A
C392   C396    1.390   .     A
C393   H409    1.083   .     S
C393   C397    1.390   .     A
C393   C402    1.404   .     A
C394   H410    1.083   .     S
C394   C398    1.390   .     A
C394   C401    1.404   .     A
C395   H411    1.083   .     S
C395   C399    1.402   .     A
C396   H412    1.083   .     S
C396   C400    1.402   .     A
C397   H413    1.083   .     S
C397   C400    1.402   .     A
C398   H414    1.083   .     S
C398   C399    1.402   .     A
C401   C888    1.470   1_554 S
C402   C887    1.470   .     S
Cu405  O419    1.965   .     S
Cu405  O423    1.957   .     S
Cu405  N415    2.015   .     S
Cu405  O417    1.966   .     S
Cu405  Cu406   2.681   .     S
Cu405  O421    1.957   .     S
Cu406  O424    1.957   .     S
Cu406  O420    1.965   .     S
Cu406  O418    1.966   .     S
Cu406  N416    2.015   .     S
Cu406  O422    1.957   .     S
C433   C458    1.450   .     S
C433   O471    1.292   .     A
C433   O474    1.291   .     A
C434   O472    1.292   .     A
C434   C457    1.450   .     S
C434   O473    1.291   .     A
C435   O478    1.295   .     A
C435   O475    1.295   .     A
C435   C453    1.460   .     S
C436   C454    1.460   .     S
C436   O477    1.295   .     A
C436   O476    1.295   .     A
C437   N470    1.368   .     A
C437   F479    1.355   .     S
C438   N469    1.368   .     A
C438   F480    1.355   .     S
C438   C115    1.417   1_565 S
C439   F481    1.355   .     S
C439   N470    1.368   .     A
C440   N469    1.368   .     A
C440   F482    1.355   .     S
C440   C113    1.417   1_565 S
C441   C458    1.404   .     A
C441   F483    1.359   .     S
C442   F484    1.359   .     S
C442   C457    1.404   .     A
C442   C336    1.385   1_655 S
C443   F485    1.358   .     S
C443   C457    1.404   .     A
C443   C333    1.385   1_655 S
C444   F486    1.358   .     S
C444   C458    1.404   .     A
C445   C449    1.390   .     A
C445   C455    1.404   .     A
C445   H461    1.083   .     S
C446   H462    1.083   .     S
C446   C456    1.404   .     A
C446   C450    1.390   .     A
C447   H463    1.083   .     S
C447   C451    1.390   .     A
C447   C456    1.404   .     A
C448   H464    1.083   .     S
C448   C452    1.390   .     A
C448   C455    1.404   .     A
C449   H465    1.083   .     S
C449   C453    1.402   .     A
C450   H466    1.083   .     S
C450   C454    1.402   .     A
C451   H467    1.083   .     S
C451   C454    1.402   .     A
C452   H468    1.083   .     S
C452   C453    1.402   .     A
C455   C942    1.470   1_554 S
C456   C941    1.470   .     S
Cu459  O473    1.965   .     S
Cu459  O477    1.957   .     S
Cu459  N469    2.015   .     S
Cu459  O471    1.966   .     S
Cu459  Cu460   2.681   .     S
Cu459  O475    1.957   .     S
Cu460  O478    1.957   .     S
Cu460  O474    1.965   .     S
Cu460  O472    1.966   .     S
Cu460  N470    2.015   .     S
Cu460  O476    1.957   .     S
C487   C512    1.450   .     S
C487   O525    1.292   .     A
C487   O528    1.291   .     A
C488   O526    1.292   .     A
C488   C511    1.450   .     S
C488   O527    1.291   .     A
C489   O532    1.295   .     A
C489   O529    1.295   .     A
C489   C507    1.460   .     S
C490   C508    1.460   .     S
C490   O531    1.295   .     A
C490   O530    1.295   .     A
C491   N524    1.368   .     A
C491   F533    1.355   .     S
C491   C818    1.417   1_545 S
C492   N523    1.368   .     A
C492   F534    1.355   .     S
C492   C655    1.417   .     S
C493   F535    1.355   .     S
C493   N524    1.368   .     A
C493   C816    1.417   1_545 S
C494   N523    1.368   .     A
C494   F536    1.355   .     S
C494   C653    1.417   .     S
C495   C512    1.404   .     A
C495   F537    1.359   .     S
C495   C605    1.385   1_455 S
C496   F538    1.359   .     S
C496   C511    1.404   .     A
C496   C552    1.385   .     S
C497   F539    1.358   .     S
C497   C511    1.404   .     A
C497   C549    1.385   .     S
C498   F540    1.358   .     S
C498   C512    1.404   .     A
C498   C604    1.385   1_455 S
C499   C503    1.390   .     A
C499   C509    1.404   .     A
C499   H515    1.083   .     S
C500   H516    1.083   .     S
C500   C510    1.404   .     A
C500   C504    1.390   .     A
C501   H517    1.083   .     S
C501   C505    1.390   .     A
C501   C510    1.404   .     A
C502   H518    1.083   .     S
C502   C506    1.390   .     A
C502   C509    1.404   .     A
C503   H519    1.083   .     S
C503   C507    1.402   .     A
C504   H520    1.083   .     S
C504   C508    1.402   .     A
C505   H521    1.083   .     S
C505   C508    1.402   .     A
C506   H522    1.083   .     S
C506   C507    1.402   .     A
C510   C23     1.470   1_556 S
Cu513  O527    1.965   .     S
Cu513  O531    1.957   .     S
Cu513  N523    2.015   .     S
Cu513  O525    1.966   .     S
Cu513  Cu514   2.681   .     S
Cu513  O529    1.957   .     S
Cu514  O532    1.957   .     S
Cu514  O528    1.965   .     S
Cu514  O526    1.966   .     S
Cu514  N524    2.015   .     S
Cu514  O530    1.957   .     S
C541   C566    1.450   .     S
C541   O579    1.292   .     A
C541   O582    1.291   .     A
C542   O580    1.292   .     A
C542   C565    1.450   .     S
C542   O581    1.291   .     A
C543   O586    1.295   .     A
C543   O583    1.295   .     A
C543   C561    1.460   .     S
C544   C562    1.460   .     S
C544   O585    1.295   .     A
C544   O584    1.295   .     A
C545   N578    1.368   .     A
C545   F587    1.355   .     S
C545   C872    1.417   1_545 S
C546   N577    1.368   .     A
C546   F588    1.355   .     S
C546   C709    1.417   .     S
C547   F589    1.355   .     S
C547   N578    1.368   .     A
C547   C870    1.417   1_545 S
C548   N577    1.368   .     A
C548   F590    1.355   .     S
C548   C707    1.417   .     S
C549   C566    1.404   .     A
C549   F591    1.359   .     S
C550   F592    1.359   .     S
C550   C565    1.404   .     A
C550   C606    1.385   .     S
C551   F593    1.358   .     S
C551   C565    1.404   .     A
C551   C603    1.385   .     S
C552   F594    1.358   .     S
C552   C566    1.404   .     A
C553   C557    1.390   .     A
C553   C563    1.404   .     A
C553   H569    1.083   .     S
C554   H570    1.083   .     S
C554   C564    1.404   .     A
C554   C558    1.390   .     A
C555   H571    1.083   .     S
C555   C559    1.390   .     A
C555   C564    1.404   .     A
C556   H572    1.083   .     S
C556   C560    1.390   .     A
C556   C563    1.404   .     A
C557   H573    1.083   .     S
C557   C561    1.402   .     A
C558   H574    1.083   .     S
C558   C562    1.402   .     A
C559   H575    1.083   .     S
C559   C562    1.402   .     A
C560   H576    1.083   .     S
C560   C561    1.402   .     A
C564   C77     1.470   1_556 S
Cu567  O581    1.965   .     S
Cu567  O585    1.957   .     S
Cu567  N577    2.015   .     S
Cu567  O579    1.966   .     S
Cu567  Cu568   2.681   .     S
Cu567  O583    1.957   .     S
Cu568  O586    1.957   .     S
Cu568  O582    1.965   .     S
Cu568  O580    1.966   .     S
Cu568  N578    2.015   .     S
Cu568  O584    1.957   .     S
C595   C620    1.450   .     S
C595   O633    1.292   .     A
C595   O636    1.291   .     A
C596   O634    1.292   .     A
C596   C619    1.450   .     S
C596   O635    1.291   .     A
C597   O640    1.295   .     A
C597   O637    1.295   .     A
C597   C615    1.460   .     S
C598   C616    1.460   .     S
C598   O639    1.295   .     A
C598   O638    1.295   .     A
C599   N632    1.368   .     A
C599   F641    1.355   .     S
C599   C926    1.417   1_545 S
C600   N631    1.368   .     A
C600   F642    1.355   .     S
C600   C763    1.417   .     S
C601   F643    1.355   .     S
C601   N632    1.368   .     A
C601   C924    1.417   1_545 S
C602   N631    1.368   .     A
C602   F644    1.355   .     S
C602   C761    1.417   .     S
C603   C620    1.404   .     A
C603   F645    1.359   .     S
C604   F646    1.359   .     S
C604   C619    1.404   .     A
C604   C498    1.385   1_655 S
C605   F647    1.358   .     S
C605   C619    1.404   .     A
C605   C495    1.385   1_655 S
C606   F648    1.358   .     S
C606   C620    1.404   .     A
C607   C611    1.390   .     A
C607   C617    1.404   .     A
C607   H623    1.083   .     S
C608   H624    1.083   .     S
C608   C618    1.404   .     A
C608   C612    1.390   .     A
C609   H625    1.083   .     S
C609   C613    1.390   .     A
C609   C618    1.404   .     A
C610   H626    1.083   .     S
C610   C614    1.390   .     A
C610   C617    1.404   .     A
C611   H627    1.083   .     S
C611   C615    1.402   .     A
C612   H628    1.083   .     S
C612   C616    1.402   .     A
C613   H629    1.083   .     S
C613   C616    1.402   .     A
C614   H630    1.083   .     S
C614   C615    1.402   .     A
C618   C131    1.470   1_556 S
Cu621  O635    1.965   .     S
Cu621  O639    1.957   .     S
Cu621  N631    2.015   .     S
Cu621  O633    1.966   .     S
Cu621  Cu622   2.681   .     S
Cu621  O637    1.957   .     S
Cu622  O640    1.957   .     S
Cu622  O636    1.965   .     S
Cu622  O634    1.966   .     S
Cu622  N632    2.015   .     S
Cu622  O638    1.957   .     S
C649   C674    1.450   .     S
C649   O687    1.292   .     A
C649   O690    1.291   .     A
C650   O688    1.292   .     A
C650   C673    1.450   .     S
C650   O689    1.291   .     A
C651   O694    1.295   .     A
C651   O691    1.295   .     A
C651   C669    1.460   .     S
C652   C670    1.460   .     S
C652   O693    1.295   .     A
C652   O692    1.295   .     A
C653   N686    1.368   .     A
C653   F695    1.355   .     S
C654   N685    1.368   .     A
C654   F696    1.355   .     S
C654   C817    1.417   .     S
C655   F697    1.355   .     S
C655   N686    1.368   .     A
C656   N685    1.368   .     A
C656   F698    1.355   .     S
C656   C815    1.417   .     S
C657   C674    1.404   .     A
C657   F699    1.359   .     S
C657   C767    1.385   1_455 S
C658   F700    1.359   .     S
C658   C673    1.404   .     A
C658   C714    1.385   .     S
C659   F701    1.358   .     S
C659   C673    1.404   .     A
C659   C711    1.385   .     S
C660   F702    1.358   .     S
C660   C674    1.404   .     A
C660   C766    1.385   1_455 S
C661   C665    1.390   .     A
C661   C671    1.404   .     A
C661   H677    1.083   .     S
C662   H678    1.083   .     S
C662   C672    1.404   .     A
C662   C666    1.390   .     A
C663   H679    1.083   .     S
C663   C667    1.390   .     A
C663   C672    1.404   .     A
C664   H680    1.083   .     S
C664   C668    1.390   .     A
C664   C671    1.404   .     A
C665   H681    1.083   .     S
C665   C669    1.402   .     A
C666   H682    1.083   .     S
C666   C670    1.402   .     A
C667   H683    1.083   .     S
C667   C670    1.402   .     A
C668   H684    1.083   .     S
C668   C669    1.402   .     A
C672   C185    1.470   1_556 S
Cu675  O689    1.965   .     S
Cu675  O693    1.957   .     S
Cu675  N685    2.015   .     S
Cu675  O687    1.966   .     S
Cu675  Cu676   2.681   .     S
Cu675  O691    1.957   .     S
Cu676  O694    1.957   .     S
Cu676  O690    1.965   .     S
Cu676  O688    1.966   .     S
Cu676  N686    2.015   .     S
Cu676  O692    1.957   .     S
C703   C728    1.450   .     S
C703   O741    1.292   .     A
C703   O744    1.291   .     A
C704   O742    1.292   .     A
C704   C727    1.450   .     S
C704   O743    1.291   .     A
C705   O748    1.295   .     A
C705   O745    1.295   .     A
C705   C723    1.460   .     S
C706   C724    1.460   .     S
C706   O747    1.295   .     A
C706   O746    1.295   .     A
C707   N740    1.368   .     A
C707   F749    1.355   .     S
C708   N739    1.368   .     A
C708   F750    1.355   .     S
C708   C871    1.417   .     S
C709   F751    1.355   .     S
C709   N740    1.368   .     A
C710   N739    1.368   .     A
C710   F752    1.355   .     S
C710   C869    1.417   .     S
C711   C728    1.404   .     A
C711   F753    1.359   .     S
C712   F754    1.359   .     S
C712   C727    1.404   .     A
C712   C768    1.385   .     S
C713   F755    1.358   .     S
C713   C727    1.404   .     A
C713   C765    1.385   .     S
C714   F756    1.358   .     S
C714   C728    1.404   .     A
C715   C719    1.390   .     A
C715   C725    1.404   .     A
C715   H731    1.083   .     S
C716   H732    1.083   .     S
C716   C726    1.404   .     A
C716   C720    1.390   .     A
C717   H733    1.083   .     S
C717   C721    1.390   .     A
C717   C726    1.404   .     A
C718   H734    1.083   .     S
C718   C722    1.390   .     A
C718   C725    1.404   .     A
C719   H735    1.083   .     S
C719   C723    1.402   .     A
C720   H736    1.083   .     S
C720   C724    1.402   .     A
C721   H737    1.083   .     S
C721   C724    1.402   .     A
C722   H738    1.083   .     S
C722   C723    1.402   .     A
C726   C239    1.470   1_556 S
Cu729  O743    1.965   .     S
Cu729  O747    1.957   .     S
Cu729  N739    2.015   .     S
Cu729  O741    1.966   .     S
Cu729  Cu730   2.681   .     S
Cu729  O745    1.957   .     S
Cu730  O748    1.957   .     S
Cu730  O744    1.965   .     S
Cu730  O742    1.966   .     S
Cu730  N740    2.015   .     S
Cu730  O746    1.957   .     S
C757   C782    1.450   .     S
C757   O795    1.292   .     A
C757   O798    1.291   .     A
C758   O796    1.292   .     A
C758   C781    1.450   .     S
C758   O797    1.291   .     A
C759   O802    1.295   .     A
C759   O799    1.295   .     A
C759   C777    1.460   .     S
C760   C778    1.460   .     S
C760   O801    1.295   .     A
C760   O800    1.295   .     A
C761   N794    1.368   .     A
C761   F803    1.355   .     S
C762   N793    1.368   .     A
C762   F804    1.355   .     S
C762   C925    1.417   .     S
C763   F805    1.355   .     S
C763   N794    1.368   .     A
C764   N793    1.368   .     A
C764   F806    1.355   .     S
C764   C923    1.417   .     S
C765   C782    1.404   .     A
C765   F807    1.359   .     S
C766   F808    1.359   .     S
C766   C781    1.404   .     A
C766   C660    1.385   1_655 S
C767   F809    1.358   .     S
C767   C781    1.404   .     A
C767   C657    1.385   1_655 S
C768   F810    1.358   .     S
C768   C782    1.404   .     A
C769   C773    1.390   .     A
C769   C779    1.404   .     A
C769   H785    1.083   .     S
C770   H786    1.083   .     S
C770   C780    1.404   .     A
C770   C774    1.390   .     A
C771   H787    1.083   .     S
C771   C775    1.390   .     A
C771   C780    1.404   .     A
C772   H788    1.083   .     S
C772   C776    1.390   .     A
C772   C779    1.404   .     A
C773   H789    1.083   .     S
C773   C777    1.402   .     A
C774   H790    1.083   .     S
C774   C778    1.402   .     A
C775   H791    1.083   .     S
C775   C778    1.402   .     A
C776   H792    1.083   .     S
C776   C777    1.402   .     A
C780   C293    1.470   1_556 S
Cu783  O797    1.965   .     S
Cu783  O801    1.957   .     S
Cu783  N793    2.015   .     S
Cu783  O795    1.966   .     S
Cu783  Cu784   2.681   .     S
Cu783  O799    1.957   .     S
Cu784  O802    1.957   .     S
Cu784  O798    1.965   .     S
Cu784  O796    1.966   .     S
Cu784  N794    2.015   .     S
Cu784  O800    1.957   .     S
C811   C836    1.450   .     S
C811   O849    1.292   .     A
C811   O852    1.291   .     A
C812   O850    1.292   .     A
C812   C835    1.450   .     S
C812   O851    1.291   .     A
C813   O856    1.295   .     A
C813   O853    1.295   .     A
C813   C831    1.460   .     S
C814   C832    1.460   .     S
C814   O855    1.295   .     A
C814   O854    1.295   .     A
C815   N848    1.368   .     A
C815   F857    1.355   .     S
C816   N847    1.368   .     A
C816   F858    1.355   .     S
C816   C493    1.417   1_565 S
C817   F859    1.355   .     S
C817   N848    1.368   .     A
C818   N847    1.368   .     A
C818   F860    1.355   .     S
C818   C491    1.417   1_565 S
C819   C836    1.404   .     A
C819   F861    1.359   .     S
C819   C929    1.385   1_455 S
C820   F862    1.359   .     S
C820   C835    1.404   .     A
C820   C876    1.385   .     S
C821   F863    1.358   .     S
C821   C835    1.404   .     A
C821   C873    1.385   .     S
C822   F864    1.358   .     S
C822   C836    1.404   .     A
C822   C928    1.385   1_455 S
C823   C827    1.390   .     A
C823   C833    1.404   .     A
C823   H839    1.083   .     S
C824   H840    1.083   .     S
C824   C834    1.404   .     A
C824   C828    1.390   .     A
C825   H841    1.083   .     S
C825   C829    1.390   .     A
C825   C834    1.404   .     A
C826   H842    1.083   .     S
C826   C830    1.390   .     A
C826   C833    1.404   .     A
C827   H843    1.083   .     S
C827   C831    1.402   .     A
C828   H844    1.083   .     S
C828   C832    1.402   .     A
C829   H845    1.083   .     S
C829   C832    1.402   .     A
C830   H846    1.083   .     S
C830   C831    1.402   .     A
C834   C347    1.470   1_556 S
Cu837  O851    1.965   .     S
Cu837  O855    1.957   .     S
Cu837  N847    2.015   .     S
Cu837  O849    1.966   .     S
Cu837  Cu838   2.681   .     S
Cu837  O853    1.957   .     S
Cu838  O856    1.957   .     S
Cu838  O852    1.965   .     S
Cu838  O850    1.966   .     S
Cu838  N848    2.015   .     S
Cu838  O854    1.957   .     S
C865   C890    1.450   .     S
C865   O903    1.292   .     A
C865   O906    1.291   .     A
C866   O904    1.292   .     A
C866   C889    1.450   .     S
C866   O905    1.291   .     A
C867   O910    1.295   .     A
C867   O907    1.295   .     A
C867   C885    1.460   .     S
C868   C886    1.460   .     S
C868   O909    1.295   .     A
C868   O908    1.295   .     A
C869   N902    1.368   .     A
C869   F911    1.355   .     S
C870   N901    1.368   .     A
C870   F912    1.355   .     S
C870   C547    1.417   1_565 S
C871   F913    1.355   .     S
C871   N902    1.368   .     A
C872   N901    1.368   .     A
C872   F914    1.355   .     S
C872   C545    1.417   1_565 S
C873   C890    1.404   .     A
C873   F915    1.359   .     S
C874   F916    1.359   .     S
C874   C889    1.404   .     A
C874   C930    1.385   .     S
C875   F917    1.358   .     S
C875   C889    1.404   .     A
C875   C927    1.385   .     S
C876   F918    1.358   .     S
C876   C890    1.404   .     A
C877   C881    1.390   .     A
C877   C887    1.404   .     A
C877   H893    1.083   .     S
C878   H894    1.083   .     S
C878   C888    1.404   .     A
C878   C882    1.390   .     A
C879   H895    1.083   .     S
C879   C883    1.390   .     A
C879   C888    1.404   .     A
C880   H896    1.083   .     S
C880   C884    1.390   .     A
C880   C887    1.404   .     A
C881   H897    1.083   .     S
C881   C885    1.402   .     A
C882   H898    1.083   .     S
C882   C886    1.402   .     A
C883   H899    1.083   .     S
C883   C886    1.402   .     A
C884   H900    1.083   .     S
C884   C885    1.402   .     A
C888   C401    1.470   1_556 S
Cu891  O905    1.965   .     S
Cu891  O909    1.957   .     S
Cu891  N901    2.015   .     S
Cu891  O903    1.966   .     S
Cu891  Cu892   2.681   .     S
Cu891  O907    1.957   .     S
Cu892  O910    1.957   .     S
Cu892  O906    1.965   .     S
Cu892  O904    1.966   .     S
Cu892  N902    2.015   .     S
Cu892  O908    1.957   .     S
C919   C944    1.450   .     S
C919   O957    1.292   .     A
C919   O960    1.291   .     A
C920   O958    1.292   .     A
C920   C943    1.450   .     S
C920   O959    1.291   .     A
C921   O964    1.295   .     A
C921   O961    1.295   .     A
C921   C939    1.460   .     S
C922   C940    1.460   .     S
C922   O963    1.295   .     A
C922   O962    1.295   .     A
C923   N956    1.368   .     A
C923   F965    1.355   .     S
C924   N955    1.368   .     A
C924   F966    1.355   .     S
C924   C601    1.417   1_565 S
C925   F967    1.355   .     S
C925   N956    1.368   .     A
C926   N955    1.368   .     A
C926   F968    1.355   .     S
C926   C599    1.417   1_565 S
C927   C944    1.404   .     A
C927   F969    1.359   .     S
C928   F970    1.359   .     S
C928   C943    1.404   .     A
C928   C822    1.385   1_655 S
C929   F971    1.358   .     S
C929   C943    1.404   .     A
C929   C819    1.385   1_655 S
C930   F972    1.358   .     S
C930   C944    1.404   .     A
C931   C935    1.390   .     A
C931   C941    1.404   .     A
C931   H947    1.083   .     S
C932   H948    1.083   .     S
C932   C942    1.404   .     A
C932   C936    1.390   .     A
C933   H949    1.083   .     S
C933   C937    1.390   .     A
C933   C942    1.404   .     A
C934   H950    1.083   .     S
C934   C938    1.390   .     A
C934   C941    1.404   .     A
C935   H951    1.083   .     S
C935   C939    1.402   .     A
C936   H952    1.083   .     S
C936   C940    1.402   .     A
C937   H953    1.083   .     S
C937   C940    1.402   .     A
C938   H954    1.083   .     S
C938   C939    1.402   .     A
C942   C455    1.470   1_556 S
Cu945  O959    1.965   .     S
Cu945  O963    1.957   .     S
Cu945  N955    2.015   .     S
Cu945  O957    1.966   .     S
Cu945  Cu946   2.681   .     S
Cu945  O961    1.957   .     S
Cu946  O964    1.957   .     S
Cu946  O960    1.965   .     S
Cu946  O958    1.966   .     S
Cu946  N956    2.015   .     S
Cu946  O962    1.957   .     S
