data_str_m2_o1_o1_pcu_sym.57
_audit_creation_date              2020-01-03
_audit_creation_method            'Materials Studio'
_symmetry_space_group_name_H-M    'P1'
_symmetry_Int_Tables_number       1
_symmetry_cell_setting            triclinic
loop_
_symmetry_equiv_pos_as_xyz
  x,y,z
_cell_length_a                    31.0090
_cell_length_b                    30.2524
_cell_length_c                    28.6270
_cell_angle_alpha                 90.4934
_cell_angle_beta                  89.9800
_cell_angle_gamma                 89.8142
loop_
_atom_site_label
_atom_site_type_symbol
_atom_site_fract_x
_atom_site_fract_y
_atom_site_fract_z
_atom_site_U_iso_or_equiv
_atom_site_adp_type
_atom_site_occupancy
C1     C     0.05922   0.19043   0.16654   0.00000  Uiso   1.00
C2     C     0.49886   0.28876   0.30897   0.00000  Uiso   1.00
C3     C     0.49893   0.28879   0.02514   0.00000  Uiso   1.00
C4     C     0.00107   0.21121   0.30819   0.00000  Uiso   1.00
C5     C     0.25114   0.46124   0.02436   0.00000  Uiso   1.00
C6     C     0.24886   0.03876   0.30897   0.00000  Uiso   1.00
C7     C     0.24893   0.03879   0.02514   0.00000  Uiso   1.00
C8     C     0.25107   0.46121   0.30819   0.00000  Uiso   1.00
C9     C     0.40865   0.12218   0.13365   0.00000  Uiso   1.00
C10    C     0.09134   0.37782   0.19968   0.00000  Uiso   1.00
C11    C     0.12649   0.33979   0.13406   0.00000  Uiso   1.00
C12    C     0.44078   0.30957   0.16679   0.00000  Uiso   1.00
C13    C     0.37352   0.16021   0.19928   0.00000  Uiso   1.00
C14    C     0.12953   0.16353   0.19432   0.00000  Uiso   1.00
C15    C     0.37048   0.33647   0.13900   0.00000  Uiso   1.00
C16    C     0.41196   0.38117   0.19458   0.00000  Uiso   1.00
C17    C     0.08803   0.11882   0.13876   0.00000  Uiso   1.00
C18    C     0.15866   0.37218   0.13365   0.00000  Uiso   1.00
C19    C     0.34135   0.12782   0.19968   0.00000  Uiso   1.00
C20    C     0.37648   0.08979   0.13406   0.00000  Uiso   1.00
C21    C     0.12351   0.41021   0.19927   0.00000  Uiso   1.00
C22    C     0.37952   0.41353   0.19433   0.00000  Uiso   1.00
C23    C     0.44071   0.19047   0.16654   0.00000  Uiso   1.00
C24    C     0.12047   0.08646   0.13902   0.00000  Uiso   1.00
C25    C     0.16197   0.13118   0.19457   0.00000  Uiso   1.00
C26    C     0.33804   0.36883   0.13875   0.00000  Uiso   1.00
C27    C     0.09291   0.34288   0.16695   0.00000  Uiso   1.00
C28    C     0.40709   0.15712   0.16638   0.00000  Uiso   1.00
C29    C     0.40717   0.34291   0.16693   0.00000  Uiso   1.00
C30    C     0.09283   0.15709   0.16640   0.00000  Uiso   1.00
C31    C     0.34291   0.09288   0.16695   0.00000  Uiso   1.00
C32    C     0.15709   0.40712   0.16638   0.00000  Uiso   1.00
C33    C     0.15717   0.09291   0.16693   0.00000  Uiso   1.00
C34    C     0.05929   0.30953   0.16679   0.00000  Uiso   1.00
C35    C     0.34283   0.40709   0.16640   0.00000  Uiso   1.00
C36    C     0.30921   0.44043   0.16654   0.00000  Uiso   1.00
C37    C     0.19078   0.05957   0.16679   0.00000  Uiso   1.00
C38    C     0.19071   0.44047   0.16654   0.00000  Uiso   1.00
C39    C     0.30929   0.05953   0.16679   0.00000  Uiso   1.00
C40    C     0.00114   0.21124   0.02436   0.00000  Uiso   1.00
Cu41   Cu    0.00000   0.25000   0.21355   0.00000  Uiso   1.00
Cu42   Cu    0.00000   0.25000   0.11978   0.00000  Uiso   1.00
Cu43   Cu    0.25000   0.00000   0.21355   0.00000  Uiso   1.00
Cu44   Cu    0.25000   0.00000   0.11978   0.00000  Uiso   1.00
F45    F     0.00250   0.17226   0.04709   0.00000  Uiso   1.00
F46    F     0.49751   0.32774   0.28625   0.00000  Uiso   1.00
F47    F     0.49798   0.32784   0.04867   0.00000  Uiso   1.00
F48    F     0.00202   0.17215   0.28466   0.00000  Uiso   1.00
F49    F     0.25249   0.42226   0.04709   0.00000  Uiso   1.00
F50    F     0.24750   0.07774   0.28625   0.00000  Uiso   1.00
F51    F     0.24798   0.07785   0.04867   0.00000  Uiso   1.00
F52    F     0.25202   0.42215   0.28466   0.00000  Uiso   1.00
H53    H     0.43087   0.12037   0.06705   0.00000  Uiso   1.00
H54    H     0.13745   0.19555   0.25639   0.00000  Uiso   1.00
H55    H     0.33844   0.27977   0.12320   0.00000  Uiso   1.00
H56    H     0.36258   0.30448   0.07691   0.00000  Uiso   1.00
H57    H     0.44204   0.39141   0.25659   0.00000  Uiso   1.00
H58    H     0.46554   0.41635   0.21021   0.00000  Uiso   1.00
H59    H     0.05793   0.10855   0.07677   0.00000  Uiso   1.00
H60    H     0.03445   0.08364   0.12317   0.00000  Uiso   1.00
H61    H     0.18088   0.37036   0.06705   0.00000  Uiso   1.00
H62    H     0.20936   0.33907   0.10517   0.00000  Uiso   1.00
H63    H     0.31913   0.12963   0.26628   0.00000  Uiso   1.00
H64    H     0.45936   0.08907   0.10517   0.00000  Uiso   1.00
H65    H     0.29064   0.16093   0.22817   0.00000  Uiso   1.00
H66    H     0.40683   0.03518   0.10805   0.00000  Uiso   1.00
H67    H     0.37832   0.06457   0.06800   0.00000  Uiso   1.00
H68    H     0.09317   0.46482   0.22529   0.00000  Uiso   1.00
H69    H     0.12168   0.43543   0.26533   0.00000  Uiso   1.00
H70    H     0.41156   0.47023   0.21013   0.00000  Uiso   1.00
H71    H     0.38742   0.44552   0.25642   0.00000  Uiso   1.00
H72    H     0.08843   0.02975   0.12325   0.00000  Uiso   1.00
H73    H     0.11255   0.05445   0.07694   0.00000  Uiso   1.00
H74    H     0.19207   0.14144   0.25656   0.00000  Uiso   1.00
H75    H     0.06912   0.37964   0.26628   0.00000  Uiso   1.00
H76    H     0.21555   0.16636   0.21016   0.00000  Uiso   1.00
H77    H     0.30796   0.35859   0.07674   0.00000  Uiso   1.00
H78    H     0.28446   0.33365   0.12312   0.00000  Uiso   1.00
H79    H     0.04064   0.41093   0.22816   0.00000  Uiso   1.00
H80    H     0.15683   0.28518   0.10805   0.00000  Uiso   1.00
H81    H     0.12832   0.31457   0.06800   0.00000  Uiso   1.00
H82    H     0.34317   0.21482   0.22529   0.00000  Uiso   1.00
H83    H     0.37168   0.18543   0.26533   0.00000  Uiso   1.00
H84    H     0.16157   0.22025   0.21009   0.00000  Uiso   1.00
N85    N    -0.00000   0.25000   0.28402   0.00000  Uiso   1.00
N86    N     0.36605   0.29641   0.11214   0.00000  Uiso   1.00
N87    N     0.45051   0.38748   0.22146   0.00000  Uiso   1.00
N88    N     0.04947   0.11250   0.11190   0.00000  Uiso   1.00
N89    N     0.19356   0.36928   0.10085   0.00000  Uiso   1.00
N90    N     0.30645   0.13072   0.23249   0.00000  Uiso   1.00
N91    N     0.37834   0.05284   0.10223   0.00000  Uiso   1.00
N92    N     0.12165   0.44717   0.23110   0.00000  Uiso   1.00
N93    N     0.38395   0.45359   0.22120   0.00000  Uiso   1.00
N94    N     0.11603   0.04639   0.11217   0.00000  Uiso   1.00
N95    N     0.20053   0.13750   0.22143   0.00000  Uiso   1.00
N96    N     0.00000   0.25000   0.04931   0.00000  Uiso   1.00
N97    N     0.29949   0.36252   0.11187   0.00000  Uiso   1.00
N98    N     0.25000   0.00000   0.28402   0.00000  Uiso   1.00
N99    N     0.25000  -0.00000   0.04931   0.00000  Uiso   1.00
N100   N     0.44355   0.11928   0.10085   0.00000  Uiso   1.00
N101   N     0.05644   0.38072   0.23249   0.00000  Uiso   1.00
N102   N     0.12835   0.30283   0.10223   0.00000  Uiso   1.00
N103   N     0.37166   0.19716   0.23111   0.00000  Uiso   1.00
N104   N     0.13397   0.20361   0.22117   0.00000  Uiso   1.00
O105   O     0.04508   0.20491   0.20625   0.00000  Uiso   1.00
O106   O     0.20491   0.04509   0.12709   0.00000  Uiso   1.00
O107   O     0.20491   0.04509   0.20625   0.00000  Uiso   1.00
O108   O     0.29508   0.45491   0.12709   0.00000  Uiso   1.00
O109   O     0.20491   0.45491   0.12709   0.00000  Uiso   1.00
O110   O     0.29508   0.04509   0.20625   0.00000  Uiso   1.00
O111   O     0.29508   0.04509   0.12709   0.00000  Uiso   1.00
O112   O     0.20491   0.45491   0.20625   0.00000  Uiso   1.00
O113   O     0.45491   0.29509   0.12709   0.00000  Uiso   1.00
O114   O     0.45491   0.29509   0.20625   0.00000  Uiso   1.00
O115   O     0.04508   0.20491   0.12709   0.00000  Uiso   1.00
O116   O     0.45491   0.20491   0.12709   0.00000  Uiso   1.00
O117   O     0.04508   0.29509   0.20625   0.00000  Uiso   1.00
O118   O     0.04508   0.29509   0.12709   0.00000  Uiso   1.00
O119   O     0.45491   0.20491   0.20625   0.00000  Uiso   1.00
O120   O     0.29508   0.45491   0.20625   0.00000  Uiso   1.00
C121   C     0.55922   0.19043   0.16654   0.00000  Uiso   1.00
C122   C     0.99886   0.28876   0.30897   0.00000  Uiso   1.00
C123   C     0.99893   0.28879   0.02514   0.00000  Uiso   1.00
C124   C     0.50107   0.21121   0.30819   0.00000  Uiso   1.00
C125   C     0.75114   0.46124   0.02436   0.00000  Uiso   1.00
C126   C     0.74886   0.03876   0.30897   0.00000  Uiso   1.00
C127   C     0.74893   0.03879   0.02514   0.00000  Uiso   1.00
C128   C     0.75107   0.46121   0.30819   0.00000  Uiso   1.00
C129   C     0.90865   0.12218   0.13365   0.00000  Uiso   1.00
C130   C     0.59134   0.37782   0.19968   0.00000  Uiso   1.00
C131   C     0.62649   0.33979   0.13406   0.00000  Uiso   1.00
C132   C     0.94078   0.30957   0.16679   0.00000  Uiso   1.00
C133   C     0.87352   0.16021   0.19928   0.00000  Uiso   1.00
C134   C     0.62953   0.16353   0.19432   0.00000  Uiso   1.00
C135   C     0.87048   0.33647   0.13900   0.00000  Uiso   1.00
C136   C     0.91196   0.38117   0.19458   0.00000  Uiso   1.00
C137   C     0.58803   0.11882   0.13876   0.00000  Uiso   1.00
C138   C     0.65866   0.37218   0.13365   0.00000  Uiso   1.00
C139   C     0.84135   0.12782   0.19968   0.00000  Uiso   1.00
C140   C     0.87648   0.08979   0.13406   0.00000  Uiso   1.00
C141   C     0.62351   0.41021   0.19927   0.00000  Uiso   1.00
C142   C     0.87952   0.41353   0.19433   0.00000  Uiso   1.00
C143   C     0.94071   0.19047   0.16654   0.00000  Uiso   1.00
C144   C     0.62047   0.08646   0.13902   0.00000  Uiso   1.00
C145   C     0.66197   0.13118   0.19457   0.00000  Uiso   1.00
C146   C     0.83804   0.36883   0.13875   0.00000  Uiso   1.00
C147   C     0.59291   0.34288   0.16695   0.00000  Uiso   1.00
C148   C     0.90709   0.15712   0.16638   0.00000  Uiso   1.00
C149   C     0.90717   0.34291   0.16693   0.00000  Uiso   1.00
C150   C     0.59283   0.15709   0.16640   0.00000  Uiso   1.00
C151   C     0.84291   0.09288   0.16695   0.00000  Uiso   1.00
C152   C     0.65709   0.40712   0.16638   0.00000  Uiso   1.00
C153   C     0.65717   0.09291   0.16693   0.00000  Uiso   1.00
C154   C     0.55929   0.30953   0.16679   0.00000  Uiso   1.00
C155   C     0.84283   0.40709   0.16640   0.00000  Uiso   1.00
C156   C     0.80921   0.44043   0.16654   0.00000  Uiso   1.00
C157   C     0.69078   0.05957   0.16679   0.00000  Uiso   1.00
C158   C     0.69071   0.44047   0.16654   0.00000  Uiso   1.00
C159   C     0.80929   0.05953   0.16679   0.00000  Uiso   1.00
C160   C     0.50114   0.21124   0.02436   0.00000  Uiso   1.00
Cu161  Cu    0.50000   0.25000   0.21355   0.00000  Uiso   1.00
Cu162  Cu    0.50000   0.25000   0.11978   0.00000  Uiso   1.00
Cu163  Cu    0.75000   0.00000   0.21355   0.00000  Uiso   1.00
Cu164  Cu    0.75000   0.00000   0.11978   0.00000  Uiso   1.00
F165   F     0.50250   0.17226   0.04709   0.00000  Uiso   1.00
F166   F     0.99751   0.32774   0.28625   0.00000  Uiso   1.00
F167   F     0.99798   0.32784   0.04867   0.00000  Uiso   1.00
F168   F     0.50202   0.17215   0.28466   0.00000  Uiso   1.00
F169   F     0.75249   0.42226   0.04709   0.00000  Uiso   1.00
F170   F     0.74750   0.07774   0.28625   0.00000  Uiso   1.00
F171   F     0.74798   0.07785   0.04867   0.00000  Uiso   1.00
F172   F     0.75202   0.42215   0.28466   0.00000  Uiso   1.00
H173   H     0.93087   0.12037   0.06705   0.00000  Uiso   1.00
H174   H     0.63745   0.19555   0.25639   0.00000  Uiso   1.00
H175   H     0.83844   0.27977   0.12320   0.00000  Uiso   1.00
H176   H     0.86258   0.30448   0.07691   0.00000  Uiso   1.00
H177   H     0.94204   0.39141   0.25659   0.00000  Uiso   1.00
H178   H     0.96554   0.41635   0.21021   0.00000  Uiso   1.00
H179   H     0.55793   0.10855   0.07677   0.00000  Uiso   1.00
H180   H     0.53445   0.08364   0.12317   0.00000  Uiso   1.00
H181   H     0.68088   0.37036   0.06705   0.00000  Uiso   1.00
H182   H     0.70936   0.33907   0.10517   0.00000  Uiso   1.00
H183   H     0.81913   0.12963   0.26628   0.00000  Uiso   1.00
H184   H     0.95936   0.08907   0.10517   0.00000  Uiso   1.00
H185   H     0.79064   0.16093   0.22817   0.00000  Uiso   1.00
H186   H     0.90683   0.03518   0.10805   0.00000  Uiso   1.00
H187   H     0.87832   0.06457   0.06800   0.00000  Uiso   1.00
H188   H     0.59317   0.46482   0.22529   0.00000  Uiso   1.00
H189   H     0.62168   0.43543   0.26533   0.00000  Uiso   1.00
H190   H     0.91156   0.47023   0.21013   0.00000  Uiso   1.00
H191   H     0.88742   0.44552   0.25642   0.00000  Uiso   1.00
H192   H     0.58843   0.02975   0.12325   0.00000  Uiso   1.00
H193   H     0.61255   0.05445   0.07694   0.00000  Uiso   1.00
H194   H     0.69207   0.14144   0.25656   0.00000  Uiso   1.00
H195   H     0.56912   0.37964   0.26628   0.00000  Uiso   1.00
H196   H     0.71555   0.16636   0.21016   0.00000  Uiso   1.00
H197   H     0.80796   0.35859   0.07674   0.00000  Uiso   1.00
H198   H     0.78446   0.33365   0.12312   0.00000  Uiso   1.00
H199   H     0.54064   0.41093   0.22816   0.00000  Uiso   1.00
H200   H     0.65683   0.28518   0.10805   0.00000  Uiso   1.00
H201   H     0.62832   0.31457   0.06800   0.00000  Uiso   1.00
H202   H     0.84317   0.21482   0.22529   0.00000  Uiso   1.00
H203   H     0.87168   0.18543   0.26533   0.00000  Uiso   1.00
H204   H     0.66157   0.22025   0.21009   0.00000  Uiso   1.00
N205   N     0.50000   0.25000   0.28402   0.00000  Uiso   1.00
N206   N     0.86605   0.29641   0.11214   0.00000  Uiso   1.00
N207   N     0.95051   0.38748   0.22146   0.00000  Uiso   1.00
N208   N     0.54947   0.11250   0.11190   0.00000  Uiso   1.00
N209   N     0.69356   0.36928   0.10085   0.00000  Uiso   1.00
N210   N     0.80645   0.13072   0.23249   0.00000  Uiso   1.00
N211   N     0.87834   0.05284   0.10223   0.00000  Uiso   1.00
N212   N     0.62165   0.44717   0.23110   0.00000  Uiso   1.00
N213   N     0.88395   0.45359   0.22120   0.00000  Uiso   1.00
N214   N     0.61603   0.04639   0.11217   0.00000  Uiso   1.00
N215   N     0.70053   0.13750   0.22143   0.00000  Uiso   1.00
N216   N     0.50000   0.25000   0.04931   0.00000  Uiso   1.00
N217   N     0.79949   0.36252   0.11187   0.00000  Uiso   1.00
N218   N     0.75000   0.00000   0.28402   0.00000  Uiso   1.00
N219   N     0.75000  -0.00000   0.04931   0.00000  Uiso   1.00
N220   N     0.94355   0.11928   0.10085   0.00000  Uiso   1.00
N221   N     0.55644   0.38072   0.23249   0.00000  Uiso   1.00
N222   N     0.62835   0.30283   0.10223   0.00000  Uiso   1.00
N223   N     0.87166   0.19716   0.23111   0.00000  Uiso   1.00
N224   N     0.63397   0.20361   0.22117   0.00000  Uiso   1.00
O225   O     0.54508   0.20491   0.20625   0.00000  Uiso   1.00
O226   O     0.70491   0.04509   0.12709   0.00000  Uiso   1.00
O227   O     0.70491   0.04509   0.20625   0.00000  Uiso   1.00
O228   O     0.79508   0.45491   0.12709   0.00000  Uiso   1.00
O229   O     0.70491   0.45491   0.12709   0.00000  Uiso   1.00
O230   O     0.79508   0.04509   0.20625   0.00000  Uiso   1.00
O231   O     0.79508   0.04509   0.12709   0.00000  Uiso   1.00
O232   O     0.70491   0.45491   0.20625   0.00000  Uiso   1.00
O233   O     0.95491   0.29509   0.12709   0.00000  Uiso   1.00
O234   O     0.95491   0.29509   0.20625   0.00000  Uiso   1.00
O235   O     0.54508   0.20491   0.12709   0.00000  Uiso   1.00
O236   O     0.95491   0.20491   0.12709   0.00000  Uiso   1.00
O237   O     0.54508   0.29509   0.20625   0.00000  Uiso   1.00
O238   O     0.54508   0.29509   0.12709   0.00000  Uiso   1.00
O239   O     0.95491   0.20491   0.20625   0.00000  Uiso   1.00
O240   O     0.79508   0.45491   0.20625   0.00000  Uiso   1.00
C241   C     0.05922   0.69043   0.16654   0.00000  Uiso   1.00
C242   C     0.49886   0.78876   0.30897   0.00000  Uiso   1.00
C243   C     0.49893   0.78879   0.02514   0.00000  Uiso   1.00
C244   C     0.00107   0.71121   0.30819   0.00000  Uiso   1.00
C245   C     0.25114   0.96124   0.02436   0.00000  Uiso   1.00
C246   C     0.24886   0.53876   0.30897   0.00000  Uiso   1.00
C247   C     0.24893   0.53879   0.02514   0.00000  Uiso   1.00
C248   C     0.25107   0.96121   0.30819   0.00000  Uiso   1.00
C249   C     0.40865   0.62218   0.13365   0.00000  Uiso   1.00
C250   C     0.09134   0.87782   0.19968   0.00000  Uiso   1.00
C251   C     0.12649   0.83979   0.13406   0.00000  Uiso   1.00
C252   C     0.44078   0.80957   0.16679   0.00000  Uiso   1.00
C253   C     0.37352   0.66021   0.19928   0.00000  Uiso   1.00
C254   C     0.12953   0.66353   0.19432   0.00000  Uiso   1.00
C255   C     0.37048   0.83647   0.13900   0.00000  Uiso   1.00
C256   C     0.41196   0.88117   0.19458   0.00000  Uiso   1.00
C257   C     0.08803   0.61882   0.13876   0.00000  Uiso   1.00
C258   C     0.15866   0.87218   0.13365   0.00000  Uiso   1.00
C259   C     0.34135   0.62782   0.19968   0.00000  Uiso   1.00
C260   C     0.37648   0.58979   0.13406   0.00000  Uiso   1.00
C261   C     0.12351   0.91021   0.19927   0.00000  Uiso   1.00
C262   C     0.37952   0.91353   0.19433   0.00000  Uiso   1.00
C263   C     0.44071   0.69047   0.16654   0.00000  Uiso   1.00
C264   C     0.12047   0.58646   0.13902   0.00000  Uiso   1.00
C265   C     0.16197   0.63118   0.19457   0.00000  Uiso   1.00
C266   C     0.33804   0.86883   0.13875   0.00000  Uiso   1.00
C267   C     0.09291   0.84288   0.16695   0.00000  Uiso   1.00
C268   C     0.40709   0.65712   0.16638   0.00000  Uiso   1.00
C269   C     0.40717   0.84291   0.16693   0.00000  Uiso   1.00
C270   C     0.09283   0.65709   0.16640   0.00000  Uiso   1.00
C271   C     0.34291   0.59288   0.16695   0.00000  Uiso   1.00
C272   C     0.15709   0.90712   0.16638   0.00000  Uiso   1.00
C273   C     0.15717   0.59291   0.16693   0.00000  Uiso   1.00
C274   C     0.05929   0.80953   0.16679   0.00000  Uiso   1.00
C275   C     0.34283   0.90709   0.16640   0.00000  Uiso   1.00
C276   C     0.30921   0.94043   0.16654   0.00000  Uiso   1.00
C277   C     0.19078   0.55957   0.16679   0.00000  Uiso   1.00
C278   C     0.19071   0.94047   0.16654   0.00000  Uiso   1.00
C279   C     0.30929   0.55953   0.16679   0.00000  Uiso   1.00
C280   C     0.00114   0.71124   0.02436   0.00000  Uiso   1.00
Cu281  Cu    0.00000   0.75000   0.21355   0.00000  Uiso   1.00
Cu282  Cu    0.00000   0.75000   0.11978   0.00000  Uiso   1.00
Cu283  Cu    0.25000   0.50000   0.21355   0.00000  Uiso   1.00
Cu284  Cu    0.25000   0.50000   0.11978   0.00000  Uiso   1.00
F285   F     0.00250   0.67226   0.04709   0.00000  Uiso   1.00
F286   F     0.49751   0.82774   0.28625   0.00000  Uiso   1.00
F287   F     0.49798   0.82784   0.04867   0.00000  Uiso   1.00
F288   F     0.00202   0.67215   0.28466   0.00000  Uiso   1.00
F289   F     0.25249   0.92226   0.04709   0.00000  Uiso   1.00
F290   F     0.24750   0.57774   0.28625   0.00000  Uiso   1.00
F291   F     0.24798   0.57785   0.04867   0.00000  Uiso   1.00
F292   F     0.25202   0.92215   0.28466   0.00000  Uiso   1.00
H293   H     0.43087   0.62037   0.06705   0.00000  Uiso   1.00
H294   H     0.13745   0.69555   0.25639   0.00000  Uiso   1.00
H295   H     0.33844   0.77977   0.12320   0.00000  Uiso   1.00
H296   H     0.36258   0.80448   0.07691   0.00000  Uiso   1.00
H297   H     0.44204   0.89141   0.25659   0.00000  Uiso   1.00
H298   H     0.46554   0.91635   0.21021   0.00000  Uiso   1.00
H299   H     0.05793   0.60855   0.07677   0.00000  Uiso   1.00
H300   H     0.03445   0.58364   0.12317   0.00000  Uiso   1.00
H301   H     0.18088   0.87036   0.06705   0.00000  Uiso   1.00
H302   H     0.20936   0.83907   0.10517   0.00000  Uiso   1.00
H303   H     0.31913   0.62963   0.26628   0.00000  Uiso   1.00
H304   H     0.45936   0.58907   0.10517   0.00000  Uiso   1.00
H305   H     0.29064   0.66093   0.22817   0.00000  Uiso   1.00
H306   H     0.40683   0.53518   0.10805   0.00000  Uiso   1.00
H307   H     0.37832   0.56457   0.06800   0.00000  Uiso   1.00
H308   H     0.09317   0.96482   0.22529   0.00000  Uiso   1.00
H309   H     0.12168   0.93543   0.26533   0.00000  Uiso   1.00
H310   H     0.41156   0.97023   0.21013   0.00000  Uiso   1.00
H311   H     0.38742   0.94552   0.25642   0.00000  Uiso   1.00
H312   H     0.08843   0.52975   0.12325   0.00000  Uiso   1.00
H313   H     0.11255   0.55445   0.07694   0.00000  Uiso   1.00
H314   H     0.19207   0.64144   0.25656   0.00000  Uiso   1.00
H315   H     0.06912   0.87964   0.26628   0.00000  Uiso   1.00
H316   H     0.21555   0.66636   0.21016   0.00000  Uiso   1.00
H317   H     0.30796   0.85859   0.07674   0.00000  Uiso   1.00
H318   H     0.28446   0.83365   0.12312   0.00000  Uiso   1.00
H319   H     0.04064   0.91093   0.22816   0.00000  Uiso   1.00
H320   H     0.15683   0.78518   0.10805   0.00000  Uiso   1.00
H321   H     0.12832   0.81457   0.06800   0.00000  Uiso   1.00
H322   H     0.34317   0.71482   0.22529   0.00000  Uiso   1.00
H323   H     0.37168   0.68543   0.26533   0.00000  Uiso   1.00
H324   H     0.16157   0.72025   0.21009   0.00000  Uiso   1.00
N325   N    -0.00000   0.75000   0.28402   0.00000  Uiso   1.00
N326   N     0.36605   0.79641   0.11214   0.00000  Uiso   1.00
N327   N     0.45051   0.88748   0.22146   0.00000  Uiso   1.00
N328   N     0.04947   0.61250   0.11190   0.00000  Uiso   1.00
N329   N     0.19356   0.86928   0.10085   0.00000  Uiso   1.00
N330   N     0.30645   0.63072   0.23249   0.00000  Uiso   1.00
N331   N     0.37834   0.55284   0.10223   0.00000  Uiso   1.00
N332   N     0.12165   0.94717   0.23110   0.00000  Uiso   1.00
N333   N     0.38395   0.95359   0.22120   0.00000  Uiso   1.00
N334   N     0.11603   0.54639   0.11217   0.00000  Uiso   1.00
N335   N     0.20053   0.63750   0.22143   0.00000  Uiso   1.00
N336   N     0.00000   0.75000   0.04931   0.00000  Uiso   1.00
N337   N     0.29949   0.86252   0.11187   0.00000  Uiso   1.00
N338   N     0.25000   0.50000   0.28402   0.00000  Uiso   1.00
N339   N     0.25000   0.50000   0.04931   0.00000  Uiso   1.00
N340   N     0.44355   0.61928   0.10085   0.00000  Uiso   1.00
N341   N     0.05644   0.88072   0.23249   0.00000  Uiso   1.00
N342   N     0.12835   0.80283   0.10223   0.00000  Uiso   1.00
N343   N     0.37166   0.69716   0.23111   0.00000  Uiso   1.00
N344   N     0.13397   0.70361   0.22117   0.00000  Uiso   1.00
O345   O     0.04508   0.70491   0.20625   0.00000  Uiso   1.00
O346   O     0.20491   0.54509   0.12709   0.00000  Uiso   1.00
O347   O     0.20491   0.54509   0.20625   0.00000  Uiso   1.00
O348   O     0.29508   0.95491   0.12709   0.00000  Uiso   1.00
O349   O     0.20491   0.95491   0.12709   0.00000  Uiso   1.00
O350   O     0.29508   0.54509   0.20625   0.00000  Uiso   1.00
O351   O     0.29508   0.54509   0.12709   0.00000  Uiso   1.00
O352   O     0.20491   0.95491   0.20625   0.00000  Uiso   1.00
O353   O     0.45491   0.79509   0.12709   0.00000  Uiso   1.00
O354   O     0.45491   0.79509   0.20625   0.00000  Uiso   1.00
O355   O     0.04508   0.70491   0.12709   0.00000  Uiso   1.00
O356   O     0.45491   0.70491   0.12709   0.00000  Uiso   1.00
O357   O     0.04508   0.79509   0.20625   0.00000  Uiso   1.00
O358   O     0.04508   0.79509   0.12709   0.00000  Uiso   1.00
O359   O     0.45491   0.70491   0.20625   0.00000  Uiso   1.00
O360   O     0.29508   0.95491   0.20625   0.00000  Uiso   1.00
C361   C     0.55922   0.69043   0.16654   0.00000  Uiso   1.00
C362   C     0.99886   0.78876   0.30897   0.00000  Uiso   1.00
C363   C     0.99893   0.78879   0.02514   0.00000  Uiso   1.00
C364   C     0.50107   0.71121   0.30819   0.00000  Uiso   1.00
C365   C     0.75114   0.96124   0.02436   0.00000  Uiso   1.00
C366   C     0.74886   0.53876   0.30897   0.00000  Uiso   1.00
C367   C     0.74893   0.53879   0.02514   0.00000  Uiso   1.00
C368   C     0.75107   0.96121   0.30819   0.00000  Uiso   1.00
C369   C     0.90865   0.62218   0.13365   0.00000  Uiso   1.00
C370   C     0.59134   0.87782   0.19968   0.00000  Uiso   1.00
C371   C     0.62649   0.83979   0.13406   0.00000  Uiso   1.00
C372   C     0.94078   0.80957   0.16679   0.00000  Uiso   1.00
C373   C     0.87352   0.66021   0.19928   0.00000  Uiso   1.00
C374   C     0.62953   0.66353   0.19432   0.00000  Uiso   1.00
C375   C     0.87048   0.83647   0.13900   0.00000  Uiso   1.00
C376   C     0.91196   0.88117   0.19458   0.00000  Uiso   1.00
C377   C     0.58803   0.61882   0.13876   0.00000  Uiso   1.00
C378   C     0.65866   0.87218   0.13365   0.00000  Uiso   1.00
C379   C     0.84135   0.62782   0.19968   0.00000  Uiso   1.00
C380   C     0.87648   0.58979   0.13406   0.00000  Uiso   1.00
C381   C     0.62351   0.91021   0.19927   0.00000  Uiso   1.00
C382   C     0.87952   0.91353   0.19433   0.00000  Uiso   1.00
C383   C     0.94071   0.69047   0.16654   0.00000  Uiso   1.00
C384   C     0.62047   0.58646   0.13902   0.00000  Uiso   1.00
C385   C     0.66197   0.63118   0.19457   0.00000  Uiso   1.00
C386   C     0.83804   0.86883   0.13875   0.00000  Uiso   1.00
C387   C     0.59291   0.84288   0.16695   0.00000  Uiso   1.00
C388   C     0.90709   0.65712   0.16638   0.00000  Uiso   1.00
C389   C     0.90717   0.84291   0.16693   0.00000  Uiso   1.00
C390   C     0.59283   0.65709   0.16640   0.00000  Uiso   1.00
C391   C     0.84291   0.59288   0.16695   0.00000  Uiso   1.00
C392   C     0.65709   0.90712   0.16638   0.00000  Uiso   1.00
C393   C     0.65717   0.59291   0.16693   0.00000  Uiso   1.00
C394   C     0.55929   0.80953   0.16679   0.00000  Uiso   1.00
C395   C     0.84283   0.90709   0.16640   0.00000  Uiso   1.00
C396   C     0.80921   0.94043   0.16654   0.00000  Uiso   1.00
C397   C     0.69078   0.55957   0.16679   0.00000  Uiso   1.00
C398   C     0.69071   0.94047   0.16654   0.00000  Uiso   1.00
C399   C     0.80929   0.55953   0.16679   0.00000  Uiso   1.00
C400   C     0.50114   0.71124   0.02436   0.00000  Uiso   1.00
Cu401  Cu    0.50000   0.75000   0.21355   0.00000  Uiso   1.00
Cu402  Cu    0.50000   0.75000   0.11978   0.00000  Uiso   1.00
Cu403  Cu    0.75000   0.50000   0.21355   0.00000  Uiso   1.00
Cu404  Cu    0.75000   0.50000   0.11978   0.00000  Uiso   1.00
F405   F     0.50250   0.67226   0.04709   0.00000  Uiso   1.00
F406   F     0.99751   0.82774   0.28625   0.00000  Uiso   1.00
F407   F     0.99798   0.82784   0.04867   0.00000  Uiso   1.00
F408   F     0.50202   0.67215   0.28466   0.00000  Uiso   1.00
F409   F     0.75249   0.92226   0.04709   0.00000  Uiso   1.00
F410   F     0.74750   0.57774   0.28625   0.00000  Uiso   1.00
F411   F     0.74798   0.57785   0.04867   0.00000  Uiso   1.00
F412   F     0.75202   0.92215   0.28466   0.00000  Uiso   1.00
H413   H     0.93087   0.62037   0.06705   0.00000  Uiso   1.00
H414   H     0.63745   0.69555   0.25639   0.00000  Uiso   1.00
H415   H     0.83844   0.77977   0.12320   0.00000  Uiso   1.00
H416   H     0.86258   0.80448   0.07691   0.00000  Uiso   1.00
H417   H     0.94204   0.89141   0.25659   0.00000  Uiso   1.00
H418   H     0.96554   0.91635   0.21021   0.00000  Uiso   1.00
H419   H     0.55793   0.60855   0.07677   0.00000  Uiso   1.00
H420   H     0.53445   0.58364   0.12317   0.00000  Uiso   1.00
H421   H     0.68088   0.87036   0.06705   0.00000  Uiso   1.00
H422   H     0.70936   0.83907   0.10517   0.00000  Uiso   1.00
H423   H     0.81913   0.62963   0.26628   0.00000  Uiso   1.00
H424   H     0.95936   0.58907   0.10517   0.00000  Uiso   1.00
H425   H     0.79064   0.66093   0.22817   0.00000  Uiso   1.00
H426   H     0.90683   0.53518   0.10805   0.00000  Uiso   1.00
H427   H     0.87832   0.56457   0.06800   0.00000  Uiso   1.00
H428   H     0.59317   0.96482   0.22529   0.00000  Uiso   1.00
H429   H     0.62168   0.93543   0.26533   0.00000  Uiso   1.00
H430   H     0.91156   0.97023   0.21013   0.00000  Uiso   1.00
H431   H     0.88742   0.94552   0.25642   0.00000  Uiso   1.00
H432   H     0.58843   0.52975   0.12325   0.00000  Uiso   1.00
H433   H     0.61255   0.55445   0.07694   0.00000  Uiso   1.00
H434   H     0.69207   0.64144   0.25656   0.00000  Uiso   1.00
H435   H     0.56912   0.87964   0.26628   0.00000  Uiso   1.00
H436   H     0.71555   0.66636   0.21016   0.00000  Uiso   1.00
H437   H     0.80796   0.85859   0.07674   0.00000  Uiso   1.00
H438   H     0.78446   0.83365   0.12312   0.00000  Uiso   1.00
H439   H     0.54064   0.91093   0.22816   0.00000  Uiso   1.00
H440   H     0.65683   0.78518   0.10805   0.00000  Uiso   1.00
H441   H     0.62832   0.81457   0.06800   0.00000  Uiso   1.00
H442   H     0.84317   0.71482   0.22529   0.00000  Uiso   1.00
H443   H     0.87168   0.68543   0.26533   0.00000  Uiso   1.00
H444   H     0.66157   0.72025   0.21009   0.00000  Uiso   1.00
N445   N     0.50000   0.75000   0.28402   0.00000  Uiso   1.00
N446   N     0.86605   0.79641   0.11214   0.00000  Uiso   1.00
N447   N     0.95051   0.88748   0.22146   0.00000  Uiso   1.00
N448   N     0.54947   0.61250   0.11190   0.00000  Uiso   1.00
N449   N     0.69356   0.86928   0.10085   0.00000  Uiso   1.00
N450   N     0.80645   0.63072   0.23249   0.00000  Uiso   1.00
N451   N     0.87834   0.55284   0.10223   0.00000  Uiso   1.00
N452   N     0.62165   0.94717   0.23110   0.00000  Uiso   1.00
N453   N     0.88395   0.95359   0.22120   0.00000  Uiso   1.00
N454   N     0.61603   0.54639   0.11217   0.00000  Uiso   1.00
N455   N     0.70053   0.63750   0.22143   0.00000  Uiso   1.00
N456   N     0.50000   0.75000   0.04931   0.00000  Uiso   1.00
N457   N     0.79949   0.86252   0.11187   0.00000  Uiso   1.00
N458   N     0.75000   0.50000   0.28402   0.00000  Uiso   1.00
N459   N     0.75000   0.50000   0.04931   0.00000  Uiso   1.00
N460   N     0.94355   0.61928   0.10085   0.00000  Uiso   1.00
N461   N     0.55644   0.88072   0.23249   0.00000  Uiso   1.00
N462   N     0.62835   0.80283   0.10223   0.00000  Uiso   1.00
N463   N     0.87166   0.69716   0.23111   0.00000  Uiso   1.00
N464   N     0.63397   0.70361   0.22117   0.00000  Uiso   1.00
O465   O     0.54508   0.70491   0.20625   0.00000  Uiso   1.00
O466   O     0.70491   0.54509   0.12709   0.00000  Uiso   1.00
O467   O     0.70491   0.54509   0.20625   0.00000  Uiso   1.00
O468   O     0.79508   0.95491   0.12709   0.00000  Uiso   1.00
O469   O     0.70491   0.95491   0.12709   0.00000  Uiso   1.00
O470   O     0.79508   0.54509   0.20625   0.00000  Uiso   1.00
O471   O     0.79508   0.54509   0.12709   0.00000  Uiso   1.00
O472   O     0.70491   0.95491   0.20625   0.00000  Uiso   1.00
O473   O     0.95491   0.79509   0.12709   0.00000  Uiso   1.00
O474   O     0.95491   0.79509   0.20625   0.00000  Uiso   1.00
O475   O     0.54508   0.70491   0.12709   0.00000  Uiso   1.00
O476   O     0.95491   0.70491   0.12709   0.00000  Uiso   1.00
O477   O     0.54508   0.79509   0.20625   0.00000  Uiso   1.00
O478   O     0.54508   0.79509   0.12709   0.00000  Uiso   1.00
O479   O     0.95491   0.70491   0.20625   0.00000  Uiso   1.00
O480   O     0.79508   0.95491   0.20625   0.00000  Uiso   1.00
C481   C     0.05922   0.19043   0.49988   0.00000  Uiso   1.00
C482   C     0.49886   0.28876   0.64230   0.00000  Uiso   1.00
C483   C     0.49893   0.28879   0.35848   0.00000  Uiso   1.00
C484   C     0.00107   0.21121   0.64152   0.00000  Uiso   1.00
C485   C     0.25114   0.46124   0.35770   0.00000  Uiso   1.00
C486   C     0.24886   0.03876   0.64230   0.00000  Uiso   1.00
C487   C     0.24893   0.03879   0.35848   0.00000  Uiso   1.00
C488   C     0.25107   0.46121   0.64152   0.00000  Uiso   1.00
C489   C     0.40865   0.12218   0.46698   0.00000  Uiso   1.00
C490   C     0.09134   0.37782   0.53301   0.00000  Uiso   1.00
C491   C     0.12649   0.33979   0.46739   0.00000  Uiso   1.00
C492   C     0.44078   0.30957   0.50012   0.00000  Uiso   1.00
C493   C     0.37352   0.16021   0.53261   0.00000  Uiso   1.00
C494   C     0.12953   0.16353   0.52765   0.00000  Uiso   1.00
C495   C     0.37048   0.33647   0.47234   0.00000  Uiso   1.00
C496   C     0.41196   0.38117   0.52792   0.00000  Uiso   1.00
C497   C     0.08803   0.11882   0.47210   0.00000  Uiso   1.00
C498   C     0.15866   0.37218   0.46699   0.00000  Uiso   1.00
C499   C     0.34135   0.12782   0.53302   0.00000  Uiso   1.00
C500   C     0.37648   0.08979   0.46739   0.00000  Uiso   1.00
C501   C     0.12351   0.41021   0.53261   0.00000  Uiso   1.00
C502   C     0.37952   0.41353   0.52766   0.00000  Uiso   1.00
C503   C     0.44071   0.19047   0.49987   0.00000  Uiso   1.00
C504   C     0.12047   0.08646   0.47235   0.00000  Uiso   1.00
C505   C     0.16197   0.13118   0.52790   0.00000  Uiso   1.00
C506   C     0.33804   0.36883   0.47208   0.00000  Uiso   1.00
C507   C     0.09291   0.34288   0.50028   0.00000  Uiso   1.00
C508   C     0.40709   0.15712   0.49972   0.00000  Uiso   1.00
C509   C     0.40717   0.34291   0.50026   0.00000  Uiso   1.00
C510   C     0.09283   0.15709   0.49974   0.00000  Uiso   1.00
C511   C     0.34291   0.09288   0.50028   0.00000  Uiso   1.00
C512   C     0.15709   0.40712   0.49972   0.00000  Uiso   1.00
C513   C     0.15717   0.09291   0.50026   0.00000  Uiso   1.00
C514   C     0.05929   0.30953   0.50013   0.00000  Uiso   1.00
C515   C     0.34283   0.40709   0.49974   0.00000  Uiso   1.00
C516   C     0.30921   0.44043   0.49988   0.00000  Uiso   1.00
C517   C     0.19078   0.05957   0.50012   0.00000  Uiso   1.00
C518   C     0.19071   0.44047   0.49987   0.00000  Uiso   1.00
C519   C     0.30929   0.05953   0.50013   0.00000  Uiso   1.00
C520   C     0.00114   0.21124   0.35770   0.00000  Uiso   1.00
Cu521  Cu    0.00000   0.25000   0.54689   0.00000  Uiso   1.00
Cu522  Cu    0.00000   0.25000   0.45311   0.00000  Uiso   1.00
Cu523  Cu    0.25000   0.00000   0.54689   0.00000  Uiso   1.00
Cu524  Cu    0.25000   0.00000   0.45311   0.00000  Uiso   1.00
F525   F     0.00250   0.17226   0.38042   0.00000  Uiso   1.00
F526   F     0.49751   0.32774   0.61958   0.00000  Uiso   1.00
F527   F     0.49798   0.32784   0.38201   0.00000  Uiso   1.00
F528   F     0.00202   0.17215   0.61799   0.00000  Uiso   1.00
F529   F     0.25249   0.42226   0.38042   0.00000  Uiso   1.00
F530   F     0.24750   0.07774   0.61958   0.00000  Uiso   1.00
F531   F     0.24798   0.07785   0.38201   0.00000  Uiso   1.00
F532   F     0.25202   0.42215   0.61799   0.00000  Uiso   1.00
H533   H     0.43087   0.12037   0.40038   0.00000  Uiso   1.00
H534   H     0.13745   0.19555   0.58973   0.00000  Uiso   1.00
H535   H     0.33844   0.27977   0.45653   0.00000  Uiso   1.00
H536   H     0.36258   0.30448   0.41025   0.00000  Uiso   1.00
H537   H     0.44204   0.39141   0.58992   0.00000  Uiso   1.00
H538   H     0.46554   0.41635   0.54354   0.00000  Uiso   1.00
H539   H     0.05793   0.10855   0.41011   0.00000  Uiso   1.00
H540   H     0.03445   0.08364   0.45651   0.00000  Uiso   1.00
H541   H     0.18088   0.37036   0.40039   0.00000  Uiso   1.00
H542   H     0.20936   0.33907   0.43851   0.00000  Uiso   1.00
H543   H     0.31913   0.12963   0.59962   0.00000  Uiso   1.00
H544   H     0.45936   0.08907   0.43850   0.00000  Uiso   1.00
H545   H     0.29064   0.16093   0.56150   0.00000  Uiso   1.00
H546   H     0.40683   0.03518   0.44138   0.00000  Uiso   1.00
H547   H     0.37832   0.06457   0.40133   0.00000  Uiso   1.00
H548   H     0.09317   0.46482   0.55862   0.00000  Uiso   1.00
H549   H     0.12168   0.43543   0.59867   0.00000  Uiso   1.00
H550   H     0.41156   0.47023   0.54347   0.00000  Uiso   1.00
H551   H     0.38742   0.44552   0.58975   0.00000  Uiso   1.00
H552   H     0.08843   0.02975   0.45658   0.00000  Uiso   1.00
H553   H     0.11255   0.05445   0.41027   0.00000  Uiso   1.00
H554   H     0.19207   0.14144   0.58989   0.00000  Uiso   1.00
H555   H     0.06912   0.37964   0.59961   0.00000  Uiso   1.00
H556   H     0.21555   0.16636   0.54349   0.00000  Uiso   1.00
H557   H     0.30796   0.35859   0.41008   0.00000  Uiso   1.00
H558   H     0.28446   0.33365   0.45645   0.00000  Uiso   1.00
H559   H     0.04064   0.41093   0.56149   0.00000  Uiso   1.00
H560   H     0.15683   0.28518   0.44138   0.00000  Uiso   1.00
H561   H     0.12832   0.31457   0.40133   0.00000  Uiso   1.00
H562   H     0.34317   0.21482   0.55862   0.00000  Uiso   1.00
H563   H     0.37168   0.18543   0.59867   0.00000  Uiso   1.00
H564   H     0.16157   0.22025   0.54342   0.00000  Uiso   1.00
N565   N    -0.00000   0.25000   0.61736   0.00000  Uiso   1.00
N566   N     0.36605   0.29641   0.44547   0.00000  Uiso   1.00
N567   N     0.45051   0.38748   0.55480   0.00000  Uiso   1.00
N568   N     0.04947   0.11250   0.44524   0.00000  Uiso   1.00
N569   N     0.19356   0.36928   0.43418   0.00000  Uiso   1.00
N570   N     0.30645   0.13072   0.56582   0.00000  Uiso   1.00
N571   N     0.37834   0.05284   0.43556   0.00000  Uiso   1.00
N572   N     0.12165   0.44717   0.56444   0.00000  Uiso   1.00
N573   N     0.38395   0.45359   0.55453   0.00000  Uiso   1.00
N574   N     0.11603   0.04639   0.44550   0.00000  Uiso   1.00
N575   N     0.20053   0.13750   0.55476   0.00000  Uiso   1.00
N576   N     0.00000   0.25000   0.38264   0.00000  Uiso   1.00
N577   N     0.29949   0.36252   0.44520   0.00000  Uiso   1.00
N578   N     0.25000   0.00000   0.61736   0.00000  Uiso   1.00
N579   N     0.25000  -0.00000   0.38264   0.00000  Uiso   1.00
N580   N     0.44355   0.11928   0.43418   0.00000  Uiso   1.00
N581   N     0.05644   0.38072   0.56582   0.00000  Uiso   1.00
N582   N     0.12835   0.30283   0.43556   0.00000  Uiso   1.00
N583   N     0.37166   0.19716   0.56444   0.00000  Uiso   1.00
N584   N     0.13397   0.20361   0.55450   0.00000  Uiso   1.00
O585   O     0.04508   0.20491   0.53958   0.00000  Uiso   1.00
O586   O     0.20491   0.04509   0.46042   0.00000  Uiso   1.00
O587   O     0.20491   0.04509   0.53958   0.00000  Uiso   1.00
O588   O     0.29508   0.45491   0.46042   0.00000  Uiso   1.00
O589   O     0.20491   0.45491   0.46042   0.00000  Uiso   1.00
O590   O     0.29508   0.04509   0.53958   0.00000  Uiso   1.00
O591   O     0.29508   0.04509   0.46042   0.00000  Uiso   1.00
O592   O     0.20491   0.45491   0.53958   0.00000  Uiso   1.00
O593   O     0.45491   0.29509   0.46042   0.00000  Uiso   1.00
O594   O     0.45491   0.29509   0.53958   0.00000  Uiso   1.00
O595   O     0.04508   0.20491   0.46042   0.00000  Uiso   1.00
O596   O     0.45491   0.20491   0.46042   0.00000  Uiso   1.00
O597   O     0.04508   0.29509   0.53958   0.00000  Uiso   1.00
O598   O     0.04508   0.29509   0.46042   0.00000  Uiso   1.00
O599   O     0.45491   0.20491   0.53958   0.00000  Uiso   1.00
O600   O     0.29508   0.45491   0.53958   0.00000  Uiso   1.00
C601   C     0.55922   0.19043   0.49988   0.00000  Uiso   1.00
C602   C     0.99886   0.28876   0.64230   0.00000  Uiso   1.00
C603   C     0.99893   0.28879   0.35848   0.00000  Uiso   1.00
C604   C     0.50107   0.21121   0.64152   0.00000  Uiso   1.00
C605   C     0.75114   0.46124   0.35770   0.00000  Uiso   1.00
C606   C     0.74886   0.03876   0.64230   0.00000  Uiso   1.00
C607   C     0.74893   0.03879   0.35848   0.00000  Uiso   1.00
C608   C     0.75107   0.46121   0.64152   0.00000  Uiso   1.00
C609   C     0.90865   0.12218   0.46698   0.00000  Uiso   1.00
C610   C     0.59134   0.37782   0.53301   0.00000  Uiso   1.00
C611   C     0.62649   0.33979   0.46739   0.00000  Uiso   1.00
C612   C     0.94078   0.30957   0.50012   0.00000  Uiso   1.00
C613   C     0.87352   0.16021   0.53261   0.00000  Uiso   1.00
C614   C     0.62953   0.16353   0.52765   0.00000  Uiso   1.00
C615   C     0.87048   0.33647   0.47234   0.00000  Uiso   1.00
C616   C     0.91196   0.38117   0.52792   0.00000  Uiso   1.00
C617   C     0.58803   0.11882   0.47210   0.00000  Uiso   1.00
C618   C     0.65866   0.37218   0.46699   0.00000  Uiso   1.00
C619   C     0.84135   0.12782   0.53302   0.00000  Uiso   1.00
C620   C     0.87648   0.08979   0.46739   0.00000  Uiso   1.00
C621   C     0.62351   0.41021   0.53261   0.00000  Uiso   1.00
C622   C     0.87952   0.41353   0.52766   0.00000  Uiso   1.00
C623   C     0.94071   0.19047   0.49987   0.00000  Uiso   1.00
C624   C     0.62047   0.08646   0.47235   0.00000  Uiso   1.00
C625   C     0.66197   0.13118   0.52790   0.00000  Uiso   1.00
C626   C     0.83804   0.36883   0.47208   0.00000  Uiso   1.00
C627   C     0.59291   0.34288   0.50028   0.00000  Uiso   1.00
C628   C     0.90709   0.15712   0.49972   0.00000  Uiso   1.00
C629   C     0.90717   0.34291   0.50026   0.00000  Uiso   1.00
C630   C     0.59283   0.15709   0.49974   0.00000  Uiso   1.00
C631   C     0.84291   0.09288   0.50028   0.00000  Uiso   1.00
C632   C     0.65709   0.40712   0.49972   0.00000  Uiso   1.00
C633   C     0.65717   0.09291   0.50026   0.00000  Uiso   1.00
C634   C     0.55929   0.30953   0.50013   0.00000  Uiso   1.00
C635   C     0.84283   0.40709   0.49974   0.00000  Uiso   1.00
C636   C     0.80921   0.44043   0.49988   0.00000  Uiso   1.00
C637   C     0.69078   0.05957   0.50012   0.00000  Uiso   1.00
C638   C     0.69071   0.44047   0.49987   0.00000  Uiso   1.00
C639   C     0.80929   0.05953   0.50013   0.00000  Uiso   1.00
C640   C     0.50114   0.21124   0.35770   0.00000  Uiso   1.00
Cu641  Cu    0.50000   0.25000   0.54689   0.00000  Uiso   1.00
Cu642  Cu    0.50000   0.25000   0.45311   0.00000  Uiso   1.00
Cu643  Cu    0.75000   0.00000   0.54689   0.00000  Uiso   1.00
Cu644  Cu    0.75000   0.00000   0.45311   0.00000  Uiso   1.00
F645   F     0.50250   0.17226   0.38042   0.00000  Uiso   1.00
F646   F     0.99751   0.32774   0.61958   0.00000  Uiso   1.00
F647   F     0.99798   0.32784   0.38201   0.00000  Uiso   1.00
F648   F     0.50202   0.17215   0.61799   0.00000  Uiso   1.00
F649   F     0.75249   0.42226   0.38042   0.00000  Uiso   1.00
F650   F     0.74750   0.07774   0.61958   0.00000  Uiso   1.00
F651   F     0.74798   0.07785   0.38201   0.00000  Uiso   1.00
F652   F     0.75202   0.42215   0.61799   0.00000  Uiso   1.00
H653   H     0.93087   0.12037   0.40038   0.00000  Uiso   1.00
H654   H     0.63745   0.19555   0.58973   0.00000  Uiso   1.00
H655   H     0.83844   0.27977   0.45653   0.00000  Uiso   1.00
H656   H     0.86258   0.30448   0.41025   0.00000  Uiso   1.00
H657   H     0.94204   0.39141   0.58992   0.00000  Uiso   1.00
H658   H     0.96554   0.41635   0.54354   0.00000  Uiso   1.00
H659   H     0.55793   0.10855   0.41011   0.00000  Uiso   1.00
H660   H     0.53445   0.08364   0.45651   0.00000  Uiso   1.00
H661   H     0.68088   0.37036   0.40039   0.00000  Uiso   1.00
H662   H     0.70936   0.33907   0.43851   0.00000  Uiso   1.00
H663   H     0.81913   0.12963   0.59962   0.00000  Uiso   1.00
H664   H     0.95936   0.08907   0.43850   0.00000  Uiso   1.00
H665   H     0.79064   0.16093   0.56150   0.00000  Uiso   1.00
H666   H     0.90683   0.03518   0.44138   0.00000  Uiso   1.00
H667   H     0.87832   0.06457   0.40133   0.00000  Uiso   1.00
H668   H     0.59317   0.46482   0.55862   0.00000  Uiso   1.00
H669   H     0.62168   0.43543   0.59867   0.00000  Uiso   1.00
H670   H     0.91156   0.47023   0.54347   0.00000  Uiso   1.00
H671   H     0.88742   0.44552   0.58975   0.00000  Uiso   1.00
H672   H     0.58843   0.02975   0.45658   0.00000  Uiso   1.00
H673   H     0.61255   0.05445   0.41027   0.00000  Uiso   1.00
H674   H     0.69207   0.14144   0.58989   0.00000  Uiso   1.00
H675   H     0.56912   0.37964   0.59961   0.00000  Uiso   1.00
H676   H     0.71555   0.16636   0.54349   0.00000  Uiso   1.00
H677   H     0.80796   0.35859   0.41008   0.00000  Uiso   1.00
H678   H     0.78446   0.33365   0.45645   0.00000  Uiso   1.00
H679   H     0.54064   0.41093   0.56149   0.00000  Uiso   1.00
H680   H     0.65683   0.28518   0.44138   0.00000  Uiso   1.00
H681   H     0.62832   0.31457   0.40133   0.00000  Uiso   1.00
H682   H     0.84317   0.21482   0.55862   0.00000  Uiso   1.00
H683   H     0.87168   0.18543   0.59867   0.00000  Uiso   1.00
H684   H     0.66157   0.22025   0.54342   0.00000  Uiso   1.00
N685   N     0.50000   0.25000   0.61736   0.00000  Uiso   1.00
N686   N     0.86605   0.29641   0.44547   0.00000  Uiso   1.00
N687   N     0.95051   0.38748   0.55480   0.00000  Uiso   1.00
N688   N     0.54947   0.11250   0.44524   0.00000  Uiso   1.00
N689   N     0.69356   0.36928   0.43418   0.00000  Uiso   1.00
N690   N     0.80645   0.13072   0.56582   0.00000  Uiso   1.00
N691   N     0.87834   0.05284   0.43556   0.00000  Uiso   1.00
N692   N     0.62165   0.44717   0.56444   0.00000  Uiso   1.00
N693   N     0.88395   0.45359   0.55453   0.00000  Uiso   1.00
N694   N     0.61603   0.04639   0.44550   0.00000  Uiso   1.00
N695   N     0.70053   0.13750   0.55476   0.00000  Uiso   1.00
N696   N     0.50000   0.25000   0.38264   0.00000  Uiso   1.00
N697   N     0.79949   0.36252   0.44520   0.00000  Uiso   1.00
N698   N     0.75000   0.00000   0.61736   0.00000  Uiso   1.00
N699   N     0.75000  -0.00000   0.38264   0.00000  Uiso   1.00
N700   N     0.94355   0.11928   0.43418   0.00000  Uiso   1.00
N701   N     0.55644   0.38072   0.56582   0.00000  Uiso   1.00
N702   N     0.62835   0.30283   0.43556   0.00000  Uiso   1.00
N703   N     0.87166   0.19716   0.56444   0.00000  Uiso   1.00
N704   N     0.63397   0.20361   0.55450   0.00000  Uiso   1.00
O705   O     0.54508   0.20491   0.53958   0.00000  Uiso   1.00
O706   O     0.70491   0.04509   0.46042   0.00000  Uiso   1.00
O707   O     0.70491   0.04509   0.53958   0.00000  Uiso   1.00
O708   O     0.79508   0.45491   0.46042   0.00000  Uiso   1.00
O709   O     0.70491   0.45491   0.46042   0.00000  Uiso   1.00
O710   O     0.79508   0.04509   0.53958   0.00000  Uiso   1.00
O711   O     0.79508   0.04509   0.46042   0.00000  Uiso   1.00
O712   O     0.70491   0.45491   0.53958   0.00000  Uiso   1.00
O713   O     0.95491   0.29509   0.46042   0.00000  Uiso   1.00
O714   O     0.95491   0.29509   0.53958   0.00000  Uiso   1.00
O715   O     0.54508   0.20491   0.46042   0.00000  Uiso   1.00
O716   O     0.95491   0.20491   0.46042   0.00000  Uiso   1.00
O717   O     0.54508   0.29509   0.53958   0.00000  Uiso   1.00
O718   O     0.54508   0.29509   0.46042   0.00000  Uiso   1.00
O719   O     0.95491   0.20491   0.53958   0.00000  Uiso   1.00
O720   O     0.79508   0.45491   0.53958   0.00000  Uiso   1.00
C721   C     0.05922   0.69043   0.49988   0.00000  Uiso   1.00
C722   C     0.49886   0.78876   0.64230   0.00000  Uiso   1.00
C723   C     0.49893   0.78879   0.35848   0.00000  Uiso   1.00
C724   C     0.00107   0.71121   0.64152   0.00000  Uiso   1.00
C725   C     0.25114   0.96124   0.35770   0.00000  Uiso   1.00
C726   C     0.24886   0.53876   0.64230   0.00000  Uiso   1.00
C727   C     0.24893   0.53879   0.35848   0.00000  Uiso   1.00
C728   C     0.25107   0.96121   0.64152   0.00000  Uiso   1.00
C729   C     0.40865   0.62218   0.46698   0.00000  Uiso   1.00
C730   C     0.09134   0.87782   0.53301   0.00000  Uiso   1.00
C731   C     0.12649   0.83979   0.46739   0.00000  Uiso   1.00
C732   C     0.44078   0.80957   0.50012   0.00000  Uiso   1.00
C733   C     0.37352   0.66021   0.53261   0.00000  Uiso   1.00
C734   C     0.12953   0.66353   0.52765   0.00000  Uiso   1.00
C735   C     0.37048   0.83647   0.47234   0.00000  Uiso   1.00
C736   C     0.41196   0.88117   0.52792   0.00000  Uiso   1.00
C737   C     0.08803   0.61882   0.47210   0.00000  Uiso   1.00
C738   C     0.15866   0.87218   0.46699   0.00000  Uiso   1.00
C739   C     0.34135   0.62782   0.53302   0.00000  Uiso   1.00
C740   C     0.37648   0.58979   0.46739   0.00000  Uiso   1.00
C741   C     0.12351   0.91021   0.53261   0.00000  Uiso   1.00
C742   C     0.37952   0.91353   0.52766   0.00000  Uiso   1.00
C743   C     0.44071   0.69047   0.49987   0.00000  Uiso   1.00
C744   C     0.12047   0.58646   0.47235   0.00000  Uiso   1.00
C745   C     0.16197   0.63118   0.52790   0.00000  Uiso   1.00
C746   C     0.33804   0.86883   0.47208   0.00000  Uiso   1.00
C747   C     0.09291   0.84288   0.50028   0.00000  Uiso   1.00
C748   C     0.40709   0.65712   0.49972   0.00000  Uiso   1.00
C749   C     0.40717   0.84291   0.50026   0.00000  Uiso   1.00
C750   C     0.09283   0.65709   0.49974   0.00000  Uiso   1.00
C751   C     0.34291   0.59288   0.50028   0.00000  Uiso   1.00
C752   C     0.15709   0.90712   0.49972   0.00000  Uiso   1.00
C753   C     0.15717   0.59291   0.50026   0.00000  Uiso   1.00
C754   C     0.05929   0.80953   0.50013   0.00000  Uiso   1.00
C755   C     0.34283   0.90709   0.49974   0.00000  Uiso   1.00
C756   C     0.30921   0.94043   0.49988   0.00000  Uiso   1.00
C757   C     0.19078   0.55957   0.50012   0.00000  Uiso   1.00
C758   C     0.19071   0.94047   0.49987   0.00000  Uiso   1.00
C759   C     0.30929   0.55953   0.50013   0.00000  Uiso   1.00
C760   C     0.00114   0.71124   0.35770   0.00000  Uiso   1.00
Cu761  Cu    0.00000   0.75000   0.54689   0.00000  Uiso   1.00
Cu762  Cu    0.00000   0.75000   0.45311   0.00000  Uiso   1.00
Cu763  Cu    0.25000   0.50000   0.54689   0.00000  Uiso   1.00
Cu764  Cu    0.25000   0.50000   0.45311   0.00000  Uiso   1.00
F765   F     0.00250   0.67226   0.38042   0.00000  Uiso   1.00
F766   F     0.49751   0.82774   0.61958   0.00000  Uiso   1.00
F767   F     0.49798   0.82784   0.38201   0.00000  Uiso   1.00
F768   F     0.00202   0.67215   0.61799   0.00000  Uiso   1.00
F769   F     0.25249   0.92226   0.38042   0.00000  Uiso   1.00
F770   F     0.24750   0.57774   0.61958   0.00000  Uiso   1.00
F771   F     0.24798   0.57785   0.38201   0.00000  Uiso   1.00
F772   F     0.25202   0.92215   0.61799   0.00000  Uiso   1.00
H773   H     0.43087   0.62037   0.40038   0.00000  Uiso   1.00
H774   H     0.13745   0.69555   0.58973   0.00000  Uiso   1.00
H775   H     0.33844   0.77977   0.45653   0.00000  Uiso   1.00
H776   H     0.36258   0.80448   0.41025   0.00000  Uiso   1.00
H777   H     0.44204   0.89141   0.58992   0.00000  Uiso   1.00
H778   H     0.46554   0.91635   0.54354   0.00000  Uiso   1.00
H779   H     0.05793   0.60855   0.41011   0.00000  Uiso   1.00
H780   H     0.03445   0.58364   0.45651   0.00000  Uiso   1.00
H781   H     0.18088   0.87036   0.40039   0.00000  Uiso   1.00
H782   H     0.20936   0.83907   0.43851   0.00000  Uiso   1.00
H783   H     0.31913   0.62963   0.59962   0.00000  Uiso   1.00
H784   H     0.45936   0.58907   0.43850   0.00000  Uiso   1.00
H785   H     0.29064   0.66093   0.56150   0.00000  Uiso   1.00
H786   H     0.40683   0.53518   0.44138   0.00000  Uiso   1.00
H787   H     0.37832   0.56457   0.40133   0.00000  Uiso   1.00
H788   H     0.09317   0.96482   0.55862   0.00000  Uiso   1.00
H789   H     0.12168   0.93543   0.59867   0.00000  Uiso   1.00
H790   H     0.41156   0.97023   0.54347   0.00000  Uiso   1.00
H791   H     0.38742   0.94552   0.58975   0.00000  Uiso   1.00
H792   H     0.08843   0.52975   0.45658   0.00000  Uiso   1.00
H793   H     0.11255   0.55445   0.41027   0.00000  Uiso   1.00
H794   H     0.19207   0.64144   0.58989   0.00000  Uiso   1.00
H795   H     0.06912   0.87964   0.59961   0.00000  Uiso   1.00
H796   H     0.21555   0.66636   0.54349   0.00000  Uiso   1.00
H797   H     0.30796   0.85859   0.41008   0.00000  Uiso   1.00
H798   H     0.28446   0.83365   0.45645   0.00000  Uiso   1.00
H799   H     0.04064   0.91093   0.56149   0.00000  Uiso   1.00
H800   H     0.15683   0.78518   0.44138   0.00000  Uiso   1.00
H801   H     0.12832   0.81457   0.40133   0.00000  Uiso   1.00
H802   H     0.34317   0.71482   0.55862   0.00000  Uiso   1.00
H803   H     0.37168   0.68543   0.59867   0.00000  Uiso   1.00
H804   H     0.16157   0.72025   0.54342   0.00000  Uiso   1.00
N805   N    -0.00000   0.75000   0.61736   0.00000  Uiso   1.00
N806   N     0.36605   0.79641   0.44547   0.00000  Uiso   1.00
N807   N     0.45051   0.88748   0.55480   0.00000  Uiso   1.00
N808   N     0.04947   0.61250   0.44524   0.00000  Uiso   1.00
N809   N     0.19356   0.86928   0.43418   0.00000  Uiso   1.00
N810   N     0.30645   0.63072   0.56582   0.00000  Uiso   1.00
N811   N     0.37834   0.55284   0.43556   0.00000  Uiso   1.00
N812   N     0.12165   0.94717   0.56444   0.00000  Uiso   1.00
N813   N     0.38395   0.95359   0.55453   0.00000  Uiso   1.00
N814   N     0.11603   0.54639   0.44550   0.00000  Uiso   1.00
N815   N     0.20053   0.63750   0.55476   0.00000  Uiso   1.00
N816   N     0.00000   0.75000   0.38264   0.00000  Uiso   1.00
N817   N     0.29949   0.86252   0.44520   0.00000  Uiso   1.00
N818   N     0.25000   0.50000   0.61736   0.00000  Uiso   1.00
N819   N     0.25000   0.50000   0.38264   0.00000  Uiso   1.00
N820   N     0.44355   0.61928   0.43418   0.00000  Uiso   1.00
N821   N     0.05644   0.88072   0.56582   0.00000  Uiso   1.00
N822   N     0.12835   0.80283   0.43556   0.00000  Uiso   1.00
N823   N     0.37166   0.69716   0.56444   0.00000  Uiso   1.00
N824   N     0.13397   0.70361   0.55450   0.00000  Uiso   1.00
O825   O     0.04508   0.70491   0.53958   0.00000  Uiso   1.00
O826   O     0.20491   0.54509   0.46042   0.00000  Uiso   1.00
O827   O     0.20491   0.54509   0.53958   0.00000  Uiso   1.00
O828   O     0.29508   0.95491   0.46042   0.00000  Uiso   1.00
O829   O     0.20491   0.95491   0.46042   0.00000  Uiso   1.00
O830   O     0.29508   0.54509   0.53958   0.00000  Uiso   1.00
O831   O     0.29508   0.54509   0.46042   0.00000  Uiso   1.00
O832   O     0.20491   0.95491   0.53958   0.00000  Uiso   1.00
O833   O     0.45491   0.79509   0.46042   0.00000  Uiso   1.00
O834   O     0.45491   0.79509   0.53958   0.00000  Uiso   1.00
O835   O     0.04508   0.70491   0.46042   0.00000  Uiso   1.00
O836   O     0.45491   0.70491   0.46042   0.00000  Uiso   1.00
O837   O     0.04508   0.79509   0.53958   0.00000  Uiso   1.00
O838   O     0.04508   0.79509   0.46042   0.00000  Uiso   1.00
O839   O     0.45491   0.70491   0.53958   0.00000  Uiso   1.00
O840   O     0.29508   0.95491   0.53958   0.00000  Uiso   1.00
C841   C     0.55922   0.69043   0.49988   0.00000  Uiso   1.00
C842   C     0.99886   0.78876   0.64230   0.00000  Uiso   1.00
C843   C     0.99893   0.78879   0.35848   0.00000  Uiso   1.00
C844   C     0.50107   0.71121   0.64152   0.00000  Uiso   1.00
C845   C     0.75114   0.96124   0.35770   0.00000  Uiso   1.00
C846   C     0.74886   0.53876   0.64230   0.00000  Uiso   1.00
C847   C     0.74893   0.53879   0.35848   0.00000  Uiso   1.00
C848   C     0.75107   0.96121   0.64152   0.00000  Uiso   1.00
C849   C     0.90865   0.62218   0.46698   0.00000  Uiso   1.00
C850   C     0.59134   0.87782   0.53301   0.00000  Uiso   1.00
C851   C     0.62649   0.83979   0.46739   0.00000  Uiso   1.00
C852   C     0.94078   0.80957   0.50012   0.00000  Uiso   1.00
C853   C     0.87352   0.66021   0.53261   0.00000  Uiso   1.00
C854   C     0.62953   0.66353   0.52765   0.00000  Uiso   1.00
C855   C     0.87048   0.83647   0.47234   0.00000  Uiso   1.00
C856   C     0.91196   0.88117   0.52792   0.00000  Uiso   1.00
C857   C     0.58803   0.61882   0.47210   0.00000  Uiso   1.00
C858   C     0.65866   0.87218   0.46699   0.00000  Uiso   1.00
C859   C     0.84135   0.62782   0.53302   0.00000  Uiso   1.00
C860   C     0.87648   0.58979   0.46739   0.00000  Uiso   1.00
C861   C     0.62351   0.91021   0.53261   0.00000  Uiso   1.00
C862   C     0.87952   0.91353   0.52766   0.00000  Uiso   1.00
C863   C     0.94071   0.69047   0.49987   0.00000  Uiso   1.00
C864   C     0.62047   0.58646   0.47235   0.00000  Uiso   1.00
C865   C     0.66197   0.63118   0.52790   0.00000  Uiso   1.00
C866   C     0.83804   0.86883   0.47208   0.00000  Uiso   1.00
C867   C     0.59291   0.84288   0.50028   0.00000  Uiso   1.00
C868   C     0.90709   0.65712   0.49972   0.00000  Uiso   1.00
C869   C     0.90717   0.84291   0.50026   0.00000  Uiso   1.00
C870   C     0.59283   0.65709   0.49974   0.00000  Uiso   1.00
C871   C     0.84291   0.59288   0.50028   0.00000  Uiso   1.00
C872   C     0.65709   0.90712   0.49972   0.00000  Uiso   1.00
C873   C     0.65717   0.59291   0.50026   0.00000  Uiso   1.00
C874   C     0.55929   0.80953   0.50013   0.00000  Uiso   1.00
C875   C     0.84283   0.90709   0.49974   0.00000  Uiso   1.00
C876   C     0.80921   0.94043   0.49988   0.00000  Uiso   1.00
C877   C     0.69078   0.55957   0.50012   0.00000  Uiso   1.00
C878   C     0.69071   0.94047   0.49987   0.00000  Uiso   1.00
C879   C     0.80929   0.55953   0.50013   0.00000  Uiso   1.00
C880   C     0.50114   0.71124   0.35770   0.00000  Uiso   1.00
Cu881  Cu    0.50000   0.75000   0.54689   0.00000  Uiso   1.00
Cu882  Cu    0.50000   0.75000   0.45311   0.00000  Uiso   1.00
Cu883  Cu    0.75000   0.50000   0.54689   0.00000  Uiso   1.00
Cu884  Cu    0.75000   0.50000   0.45311   0.00000  Uiso   1.00
F885   F     0.50250   0.67226   0.38042   0.00000  Uiso   1.00
F886   F     0.99751   0.82774   0.61958   0.00000  Uiso   1.00
F887   F     0.99798   0.82784   0.38201   0.00000  Uiso   1.00
F888   F     0.50202   0.67215   0.61799   0.00000  Uiso   1.00
F889   F     0.75249   0.92226   0.38042   0.00000  Uiso   1.00
F890   F     0.74750   0.57774   0.61958   0.00000  Uiso   1.00
F891   F     0.74798   0.57785   0.38201   0.00000  Uiso   1.00
F892   F     0.75202   0.92215   0.61799   0.00000  Uiso   1.00
H893   H     0.93087   0.62037   0.40038   0.00000  Uiso   1.00
H894   H     0.63745   0.69555   0.58973   0.00000  Uiso   1.00
H895   H     0.83844   0.77977   0.45653   0.00000  Uiso   1.00
H896   H     0.86258   0.80448   0.41025   0.00000  Uiso   1.00
H897   H     0.94204   0.89141   0.58992   0.00000  Uiso   1.00
H898   H     0.96554   0.91635   0.54354   0.00000  Uiso   1.00
H899   H     0.55793   0.60855   0.41011   0.00000  Uiso   1.00
H900   H     0.53445   0.58364   0.45651   0.00000  Uiso   1.00
H901   H     0.68088   0.87036   0.40039   0.00000  Uiso   1.00
H902   H     0.70936   0.83907   0.43851   0.00000  Uiso   1.00
H903   H     0.81913   0.62963   0.59962   0.00000  Uiso   1.00
H904   H     0.95936   0.58907   0.43850   0.00000  Uiso   1.00
H905   H     0.79064   0.66093   0.56150   0.00000  Uiso   1.00
H906   H     0.90683   0.53518   0.44138   0.00000  Uiso   1.00
H907   H     0.87832   0.56457   0.40133   0.00000  Uiso   1.00
H908   H     0.59317   0.96482   0.55862   0.00000  Uiso   1.00
H909   H     0.62168   0.93543   0.59867   0.00000  Uiso   1.00
H910   H     0.91156   0.97023   0.54347   0.00000  Uiso   1.00
H911   H     0.88742   0.94552   0.58975   0.00000  Uiso   1.00
H912   H     0.58843   0.52975   0.45658   0.00000  Uiso   1.00
H913   H     0.61255   0.55445   0.41027   0.00000  Uiso   1.00
H914   H     0.69207   0.64144   0.58989   0.00000  Uiso   1.00
H915   H     0.56912   0.87964   0.59961   0.00000  Uiso   1.00
H916   H     0.71555   0.66636   0.54349   0.00000  Uiso   1.00
H917   H     0.80796   0.85859   0.41008   0.00000  Uiso   1.00
H918   H     0.78446   0.83365   0.45645   0.00000  Uiso   1.00
H919   H     0.54064   0.91093   0.56149   0.00000  Uiso   1.00
H920   H     0.65683   0.78518   0.44138   0.00000  Uiso   1.00
H921   H     0.62832   0.81457   0.40133   0.00000  Uiso   1.00
H922   H     0.84317   0.71482   0.55862   0.00000  Uiso   1.00
H923   H     0.87168   0.68543   0.59867   0.00000  Uiso   1.00
H924   H     0.66157   0.72025   0.54342   0.00000  Uiso   1.00
N925   N     0.50000   0.75000   0.61736   0.00000  Uiso   1.00
N926   N     0.86605   0.79641   0.44547   0.00000  Uiso   1.00
N927   N     0.95051   0.88748   0.55480   0.00000  Uiso   1.00
N928   N     0.54947   0.61250   0.44524   0.00000  Uiso   1.00
N929   N     0.69356   0.86928   0.43418   0.00000  Uiso   1.00
N930   N     0.80645   0.63072   0.56582   0.00000  Uiso   1.00
N931   N     0.87834   0.55284   0.43556   0.00000  Uiso   1.00
N932   N     0.62165   0.94717   0.56444   0.00000  Uiso   1.00
N933   N     0.88395   0.95359   0.55453   0.00000  Uiso   1.00
N934   N     0.61603   0.54639   0.44550   0.00000  Uiso   1.00
N935   N     0.70053   0.63750   0.55476   0.00000  Uiso   1.00
N936   N     0.50000   0.75000   0.38264   0.00000  Uiso   1.00
N937   N     0.79949   0.86252   0.44520   0.00000  Uiso   1.00
N938   N     0.75000   0.50000   0.61736   0.00000  Uiso   1.00
N939   N     0.75000   0.50000   0.38264   0.00000  Uiso   1.00
N940   N     0.94355   0.61928   0.43418   0.00000  Uiso   1.00
N941   N     0.55644   0.88072   0.56582   0.00000  Uiso   1.00
N942   N     0.62835   0.80283   0.43556   0.00000  Uiso   1.00
N943   N     0.87166   0.69716   0.56444   0.00000  Uiso   1.00
N944   N     0.63397   0.70361   0.55450   0.00000  Uiso   1.00
O945   O     0.54508   0.70491   0.53958   0.00000  Uiso   1.00
O946   O     0.70491   0.54509   0.46042   0.00000  Uiso   1.00
O947   O     0.70491   0.54509   0.53958   0.00000  Uiso   1.00
O948   O     0.79508   0.95491   0.46042   0.00000  Uiso   1.00
O949   O     0.70491   0.95491   0.46042   0.00000  Uiso   1.00
O950   O     0.79508   0.54509   0.53958   0.00000  Uiso   1.00
O951   O     0.79508   0.54509   0.46042   0.00000  Uiso   1.00
O952   O     0.70491   0.95491   0.53958   0.00000  Uiso   1.00
O953   O     0.95491   0.79509   0.46042   0.00000  Uiso   1.00
O954   O     0.95491   0.79509   0.53958   0.00000  Uiso   1.00
O955   O     0.54508   0.70491   0.46042   0.00000  Uiso   1.00
O956   O     0.95491   0.70491   0.46042   0.00000  Uiso   1.00
O957   O     0.54508   0.79509   0.53958   0.00000  Uiso   1.00
O958   O     0.54508   0.79509   0.46042   0.00000  Uiso   1.00
O959   O     0.95491   0.70491   0.53958   0.00000  Uiso   1.00
O960   O     0.79508   0.95491   0.53958   0.00000  Uiso   1.00
C961   C     0.05922   0.19043   0.83321   0.00000  Uiso   1.00
C962   C     0.49886   0.28876   0.97564   0.00000  Uiso   1.00
C963   C     0.49893   0.28879   0.69181   0.00000  Uiso   1.00
C964   C     0.00107   0.21121   0.97486   0.00000  Uiso   1.00
C965   C     0.25114   0.46124   0.69103   0.00000  Uiso   1.00
C966   C     0.24886   0.03876   0.97564   0.00000  Uiso   1.00
C967   C     0.24893   0.03879   0.69181   0.00000  Uiso   1.00
C968   C     0.25107   0.46121   0.97486   0.00000  Uiso   1.00
C969   C     0.40865   0.12218   0.80032   0.00000  Uiso   1.00
C970   C     0.09134   0.37782   0.86635   0.00000  Uiso   1.00
C971   C     0.12649   0.33979   0.80073   0.00000  Uiso   1.00
C972   C     0.44078   0.30957   0.83345   0.00000  Uiso   1.00
C973   C     0.37352   0.16021   0.86594   0.00000  Uiso   1.00
C974   C     0.12953   0.16353   0.86098   0.00000  Uiso   1.00
C975   C     0.37048   0.33647   0.80567   0.00000  Uiso   1.00
C976   C     0.41196   0.38117   0.86125   0.00000  Uiso   1.00
C977   C     0.08803   0.11882   0.80543   0.00000  Uiso   1.00
C978   C     0.15866   0.37218   0.80032   0.00000  Uiso   1.00
C979   C     0.34135   0.12782   0.86635   0.00000  Uiso   1.00
C980   C     0.37648   0.08979   0.80072   0.00000  Uiso   1.00
C981   C     0.12351   0.41021   0.86594   0.00000  Uiso   1.00
C982   C     0.37952   0.41353   0.86100   0.00000  Uiso   1.00
C983   C     0.44071   0.19047   0.83321   0.00000  Uiso   1.00
C984   C     0.12047   0.08646   0.80568   0.00000  Uiso   1.00
C985   C     0.16197   0.13118   0.86124   0.00000  Uiso   1.00
C986   C     0.33804   0.36883   0.80541   0.00000  Uiso   1.00
C987   C     0.09291   0.34288   0.83362   0.00000  Uiso   1.00
C988   C     0.40709   0.15712   0.83305   0.00000  Uiso   1.00
C989   C     0.40717   0.34291   0.83360   0.00000  Uiso   1.00
C990   C     0.09283   0.15709   0.83307   0.00000  Uiso   1.00
C991   C     0.34291   0.09288   0.83362   0.00000  Uiso   1.00
C992   C     0.15709   0.40712   0.83305   0.00000  Uiso   1.00
C993   C     0.15717   0.09291   0.83360   0.00000  Uiso   1.00
C994   C     0.05929   0.30953   0.83346   0.00000  Uiso   1.00
C995   C     0.34283   0.40709   0.83307   0.00000  Uiso   1.00
C996   C     0.30921   0.44043   0.83321   0.00000  Uiso   1.00
C997   C     0.19078   0.05957   0.83346   0.00000  Uiso   1.00
C998   C     0.19071   0.44047   0.83321   0.00000  Uiso   1.00
C999   C     0.30929   0.05953   0.83346   0.00000  Uiso   1.00
C1000  C     0.00114   0.21124   0.69103   0.00000  Uiso   1.00
Cu1001 Cu    0.00000   0.25000   0.88022   0.00000  Uiso   1.00
Cu1002 Cu    0.00000   0.25000   0.78645   0.00000  Uiso   1.00
Cu1003 Cu    0.25000   0.00000   0.88022   0.00000  Uiso   1.00
Cu1004 Cu    0.25000   0.00000   0.78645   0.00000  Uiso   1.00
F1005  F     0.00250   0.17226   0.71375   0.00000  Uiso   1.00
F1006  F     0.49751   0.32774   0.95291   0.00000  Uiso   1.00
F1007  F     0.49798   0.32784   0.71534   0.00000  Uiso   1.00
F1008  F     0.00202   0.17215   0.95133   0.00000  Uiso   1.00
F1009  F     0.25249   0.42226   0.71375   0.00000  Uiso   1.00
F1010  F     0.24750   0.07774   0.95291   0.00000  Uiso   1.00
F1011  F     0.24798   0.07785   0.71534   0.00000  Uiso   1.00
F1012  F     0.25202   0.42215   0.95133   0.00000  Uiso   1.00
H1013  H     0.43087   0.12037   0.73372   0.00000  Uiso   1.00
H1014  H     0.13745   0.19555   0.92306   0.00000  Uiso   1.00
H1015  H     0.33844   0.27977   0.78987   0.00000  Uiso   1.00
H1016  H     0.36258   0.30448   0.74358   0.00000  Uiso   1.00
H1017  H     0.44204   0.39141   0.92326   0.00000  Uiso   1.00
H1018  H     0.46554   0.41635   0.87688   0.00000  Uiso   1.00
H1019  H     0.05793   0.10855   0.74344   0.00000  Uiso   1.00
H1020  H     0.03445   0.08364   0.78984   0.00000  Uiso   1.00
H1021  H     0.18088   0.37036   0.73372   0.00000  Uiso   1.00
H1022  H     0.20936   0.33907   0.77184   0.00000  Uiso   1.00
H1023  H     0.31913   0.12963   0.93295   0.00000  Uiso   1.00
H1024  H     0.45936   0.08907   0.77183   0.00000  Uiso   1.00
H1025  H     0.29064   0.16093   0.89483   0.00000  Uiso   1.00
H1026  H     0.40683   0.03518   0.77471   0.00000  Uiso   1.00
H1027  H     0.37832   0.06457   0.73467   0.00000  Uiso   1.00
H1028  H     0.09317   0.46482   0.89195   0.00000  Uiso   1.00
H1029  H     0.12168   0.43543   0.93200   0.00000  Uiso   1.00
H1030  H     0.41156   0.47023   0.87680   0.00000  Uiso   1.00
H1031  H     0.38742   0.44552   0.92309   0.00000  Uiso   1.00
H1032  H     0.08843   0.02975   0.78991   0.00000  Uiso   1.00
H1033  H     0.11255   0.05445   0.74361   0.00000  Uiso   1.00
H1034  H     0.19207   0.14144   0.92323   0.00000  Uiso   1.00
H1035  H     0.06912   0.37964   0.93295   0.00000  Uiso   1.00
H1036  H     0.21555   0.16636   0.87683   0.00000  Uiso   1.00
H1037  H     0.30796   0.35859   0.74341   0.00000  Uiso   1.00
H1038  H     0.28446   0.33365   0.78979   0.00000  Uiso   1.00
H1039  H     0.04064   0.41093   0.89483   0.00000  Uiso   1.00
H1040  H     0.15683   0.28518   0.77471   0.00000  Uiso   1.00
H1041  H     0.12832   0.31457   0.73467   0.00000  Uiso   1.00
H1042  H     0.34317   0.21482   0.89195   0.00000  Uiso   1.00
H1043  H     0.37168   0.18543   0.93200   0.00000  Uiso   1.00
H1044  H     0.16157   0.22025   0.87675   0.00000  Uiso   1.00
N1045  N    -0.00000   0.25000   0.95069   0.00000  Uiso   1.00
N1046  N     0.36605   0.29641   0.77880   0.00000  Uiso   1.00
N1047  N     0.45051   0.38748   0.88813   0.00000  Uiso   1.00
N1048  N     0.04947   0.11250   0.77857   0.00000  Uiso   1.00
N1049  N     0.19356   0.36928   0.76751   0.00000  Uiso   1.00
N1050  N     0.30645   0.13072   0.89916   0.00000  Uiso   1.00
N1051  N     0.37834   0.05284   0.76889   0.00000  Uiso   1.00
N1052  N     0.12165   0.44717   0.89777   0.00000  Uiso   1.00
N1053  N     0.38395   0.45359   0.88786   0.00000  Uiso   1.00
N1054  N     0.11603   0.04639   0.77883   0.00000  Uiso   1.00
N1055  N     0.20053   0.13750   0.88810   0.00000  Uiso   1.00
N1056  N     0.00000   0.25000   0.71598   0.00000  Uiso   1.00
N1057  N     0.29949   0.36252   0.77854   0.00000  Uiso   1.00
N1058  N     0.25000   0.00000   0.95069   0.00000  Uiso   1.00
N1059  N     0.25000  -0.00000   0.71598   0.00000  Uiso   1.00
N1060  N     0.44355   0.11928   0.76751   0.00000  Uiso   1.00
N1061  N     0.05644   0.38072   0.89915   0.00000  Uiso   1.00
N1062  N     0.12835   0.30283   0.76890   0.00000  Uiso   1.00
N1063  N     0.37166   0.19716   0.89777   0.00000  Uiso   1.00
N1064  N     0.13397   0.20361   0.88783   0.00000  Uiso   1.00
O1065  O     0.04508   0.20491   0.87291   0.00000  Uiso   1.00
O1066  O     0.20491   0.04509   0.79375   0.00000  Uiso   1.00
O1067  O     0.20491   0.04509   0.87291   0.00000  Uiso   1.00
O1068  O     0.29508   0.45491   0.79375   0.00000  Uiso   1.00
O1069  O     0.20491   0.45491   0.79375   0.00000  Uiso   1.00
O1070  O     0.29508   0.04509   0.87291   0.00000  Uiso   1.00
O1071  O     0.29508   0.04509   0.79375   0.00000  Uiso   1.00
O1072  O     0.20491   0.45491   0.87291   0.00000  Uiso   1.00
O1073  O     0.45491   0.29509   0.79375   0.00000  Uiso   1.00
O1074  O     0.45491   0.29509   0.87291   0.00000  Uiso   1.00
O1075  O     0.04508   0.20491   0.79375   0.00000  Uiso   1.00
O1076  O     0.45491   0.20491   0.79375   0.00000  Uiso   1.00
O1077  O     0.04508   0.29509   0.87291   0.00000  Uiso   1.00
O1078  O     0.04508   0.29509   0.79375   0.00000  Uiso   1.00
O1079  O     0.45491   0.20491   0.87291   0.00000  Uiso   1.00
O1080  O     0.29508   0.45491   0.87291   0.00000  Uiso   1.00
C1081  C     0.55922   0.19043   0.83321   0.00000  Uiso   1.00
C1082  C     0.99886   0.28876   0.97564   0.00000  Uiso   1.00
C1083  C     0.99893   0.28879   0.69181   0.00000  Uiso   1.00
C1084  C     0.50107   0.21121   0.97486   0.00000  Uiso   1.00
C1085  C     0.75114   0.46124   0.69103   0.00000  Uiso   1.00
C1086  C     0.74886   0.03876   0.97564   0.00000  Uiso   1.00
C1087  C     0.74893   0.03879   0.69181   0.00000  Uiso   1.00
C1088  C     0.75107   0.46121   0.97486   0.00000  Uiso   1.00
C1089  C     0.90865   0.12218   0.80032   0.00000  Uiso   1.00
C1090  C     0.59134   0.37782   0.86635   0.00000  Uiso   1.00
C1091  C     0.62649   0.33979   0.80073   0.00000  Uiso   1.00
C1092  C     0.94078   0.30957   0.83345   0.00000  Uiso   1.00
C1093  C     0.87352   0.16021   0.86594   0.00000  Uiso   1.00
C1094  C     0.62953   0.16353   0.86098   0.00000  Uiso   1.00
C1095  C     0.87048   0.33647   0.80567   0.00000  Uiso   1.00
C1096  C     0.91196   0.38117   0.86125   0.00000  Uiso   1.00
C1097  C     0.58803   0.11882   0.80543   0.00000  Uiso   1.00
C1098  C     0.65866   0.37218   0.80032   0.00000  Uiso   1.00
C1099  C     0.84135   0.12782   0.86635   0.00000  Uiso   1.00
C1100  C     0.87648   0.08979   0.80072   0.00000  Uiso   1.00
C1101  C     0.62351   0.41021   0.86594   0.00000  Uiso   1.00
C1102  C     0.87952   0.41353   0.86100   0.00000  Uiso   1.00
C1103  C     0.94071   0.19047   0.83321   0.00000  Uiso   1.00
C1104  C     0.62047   0.08646   0.80568   0.00000  Uiso   1.00
C1105  C     0.66197   0.13118   0.86124   0.00000  Uiso   1.00
C1106  C     0.83804   0.36883   0.80541   0.00000  Uiso   1.00
C1107  C     0.59291   0.34288   0.83362   0.00000  Uiso   1.00
C1108  C     0.90709   0.15712   0.83305   0.00000  Uiso   1.00
C1109  C     0.90717   0.34291   0.83360   0.00000  Uiso   1.00
C1110  C     0.59283   0.15709   0.83307   0.00000  Uiso   1.00
C1111  C     0.84291   0.09288   0.83362   0.00000  Uiso   1.00
C1112  C     0.65709   0.40712   0.83305   0.00000  Uiso   1.00
C1113  C     0.65717   0.09291   0.83360   0.00000  Uiso   1.00
C1114  C     0.55929   0.30953   0.83346   0.00000  Uiso   1.00
C1115  C     0.84283   0.40709   0.83307   0.00000  Uiso   1.00
C1116  C     0.80921   0.44043   0.83321   0.00000  Uiso   1.00
C1117  C     0.69078   0.05957   0.83346   0.00000  Uiso   1.00
C1118  C     0.69071   0.44047   0.83321   0.00000  Uiso   1.00
C1119  C     0.80929   0.05953   0.83346   0.00000  Uiso   1.00
C1120  C     0.50114   0.21124   0.69103   0.00000  Uiso   1.00
Cu1121 Cu    0.50000   0.25000   0.88022   0.00000  Uiso   1.00
Cu1122 Cu    0.50000   0.25000   0.78645   0.00000  Uiso   1.00
Cu1123 Cu    0.75000   0.00000   0.88022   0.00000  Uiso   1.00
Cu1124 Cu    0.75000   0.00000   0.78645   0.00000  Uiso   1.00
F1125  F     0.50250   0.17226   0.71375   0.00000  Uiso   1.00
F1126  F     0.99751   0.32774   0.95291   0.00000  Uiso   1.00
F1127  F     0.99798   0.32784   0.71534   0.00000  Uiso   1.00
F1128  F     0.50202   0.17215   0.95133   0.00000  Uiso   1.00
F1129  F     0.75249   0.42226   0.71375   0.00000  Uiso   1.00
F1130  F     0.74750   0.07774   0.95291   0.00000  Uiso   1.00
F1131  F     0.74798   0.07785   0.71534   0.00000  Uiso   1.00
F1132  F     0.75202   0.42215   0.95133   0.00000  Uiso   1.00
H1133  H     0.93087   0.12037   0.73372   0.00000  Uiso   1.00
H1134  H     0.63745   0.19555   0.92306   0.00000  Uiso   1.00
H1135  H     0.83844   0.27977   0.78987   0.00000  Uiso   1.00
H1136  H     0.86258   0.30448   0.74358   0.00000  Uiso   1.00
H1137  H     0.94204   0.39141   0.92326   0.00000  Uiso   1.00
H1138  H     0.96554   0.41635   0.87688   0.00000  Uiso   1.00
H1139  H     0.55793   0.10855   0.74344   0.00000  Uiso   1.00
H1140  H     0.53445   0.08364   0.78984   0.00000  Uiso   1.00
H1141  H     0.68088   0.37036   0.73372   0.00000  Uiso   1.00
H1142  H     0.70936   0.33907   0.77184   0.00000  Uiso   1.00
H1143  H     0.81913   0.12963   0.93295   0.00000  Uiso   1.00
H1144  H     0.95936   0.08907   0.77183   0.00000  Uiso   1.00
H1145  H     0.79064   0.16093   0.89483   0.00000  Uiso   1.00
H1146  H     0.90683   0.03518   0.77471   0.00000  Uiso   1.00
H1147  H     0.87832   0.06457   0.73467   0.00000  Uiso   1.00
H1148  H     0.59317   0.46482   0.89195   0.00000  Uiso   1.00
H1149  H     0.62168   0.43543   0.93200   0.00000  Uiso   1.00
H1150  H     0.91156   0.47023   0.87680   0.00000  Uiso   1.00
H1151  H     0.88742   0.44552   0.92309   0.00000  Uiso   1.00
H1152  H     0.58843   0.02975   0.78991   0.00000  Uiso   1.00
H1153  H     0.61255   0.05445   0.74361   0.00000  Uiso   1.00
H1154  H     0.69207   0.14144   0.92323   0.00000  Uiso   1.00
H1155  H     0.56912   0.37964   0.93295   0.00000  Uiso   1.00
H1156  H     0.71555   0.16636   0.87683   0.00000  Uiso   1.00
H1157  H     0.80796   0.35859   0.74341   0.00000  Uiso   1.00
H1158  H     0.78446   0.33365   0.78979   0.00000  Uiso   1.00
H1159  H     0.54064   0.41093   0.89483   0.00000  Uiso   1.00
H1160  H     0.65683   0.28518   0.77471   0.00000  Uiso   1.00
H1161  H     0.62832   0.31457   0.73467   0.00000  Uiso   1.00
H1162  H     0.84317   0.21482   0.89195   0.00000  Uiso   1.00
H1163  H     0.87168   0.18543   0.93200   0.00000  Uiso   1.00
H1164  H     0.66157   0.22025   0.87675   0.00000  Uiso   1.00
N1165  N     0.50000   0.25000   0.95069   0.00000  Uiso   1.00
N1166  N     0.86605   0.29641   0.77880   0.00000  Uiso   1.00
N1167  N     0.95051   0.38748   0.88813   0.00000  Uiso   1.00
N1168  N     0.54947   0.11250   0.77857   0.00000  Uiso   1.00
N1169  N     0.69356   0.36928   0.76751   0.00000  Uiso   1.00
N1170  N     0.80645   0.13072   0.89916   0.00000  Uiso   1.00
N1171  N     0.87834   0.05284   0.76889   0.00000  Uiso   1.00
N1172  N     0.62165   0.44717   0.89777   0.00000  Uiso   1.00
N1173  N     0.88395   0.45359   0.88786   0.00000  Uiso   1.00
N1174  N     0.61603   0.04639   0.77883   0.00000  Uiso   1.00
N1175  N     0.70053   0.13750   0.88810   0.00000  Uiso   1.00
N1176  N     0.50000   0.25000   0.71598   0.00000  Uiso   1.00
N1177  N     0.79949   0.36252   0.77854   0.00000  Uiso   1.00
N1178  N     0.75000   0.00000   0.95069   0.00000  Uiso   1.00
N1179  N     0.75000  -0.00000   0.71598   0.00000  Uiso   1.00
N1180  N     0.94355   0.11928   0.76751   0.00000  Uiso   1.00
N1181  N     0.55644   0.38072   0.89915   0.00000  Uiso   1.00
N1182  N     0.62835   0.30283   0.76890   0.00000  Uiso   1.00
N1183  N     0.87166   0.19716   0.89777   0.00000  Uiso   1.00
N1184  N     0.63397   0.20361   0.88783   0.00000  Uiso   1.00
O1185  O     0.54508   0.20491   0.87291   0.00000  Uiso   1.00
O1186  O     0.70491   0.04509   0.79375   0.00000  Uiso   1.00
O1187  O     0.70491   0.04509   0.87291   0.00000  Uiso   1.00
O1188  O     0.79508   0.45491   0.79375   0.00000  Uiso   1.00
O1189  O     0.70491   0.45491   0.79375   0.00000  Uiso   1.00
O1190  O     0.79508   0.04509   0.87291   0.00000  Uiso   1.00
O1191  O     0.79508   0.04509   0.79375   0.00000  Uiso   1.00
O1192  O     0.70491   0.45491   0.87291   0.00000  Uiso   1.00
O1193  O     0.95491   0.29509   0.79375   0.00000  Uiso   1.00
O1194  O     0.95491   0.29509   0.87291   0.00000  Uiso   1.00
O1195  O     0.54508   0.20491   0.79375   0.00000  Uiso   1.00
O1196  O     0.95491   0.20491   0.79375   0.00000  Uiso   1.00
O1197  O     0.54508   0.29509   0.87291   0.00000  Uiso   1.00
O1198  O     0.54508   0.29509   0.79375   0.00000  Uiso   1.00
O1199  O     0.95491   0.20491   0.87291   0.00000  Uiso   1.00
O1200  O     0.79508   0.45491   0.87291   0.00000  Uiso   1.00
C1201  C     0.05922   0.69043   0.83321   0.00000  Uiso   1.00
C1202  C     0.49886   0.78876   0.97564   0.00000  Uiso   1.00
C1203  C     0.49893   0.78879   0.69181   0.00000  Uiso   1.00
C1204  C     0.00107   0.71121   0.97486   0.00000  Uiso   1.00
C1205  C     0.25114   0.96124   0.69103   0.00000  Uiso   1.00
C1206  C     0.24886   0.53876   0.97564   0.00000  Uiso   1.00
C1207  C     0.24893   0.53879   0.69181   0.00000  Uiso   1.00
C1208  C     0.25107   0.96121   0.97486   0.00000  Uiso   1.00
C1209  C     0.40865   0.62218   0.80032   0.00000  Uiso   1.00
C1210  C     0.09134   0.87782   0.86635   0.00000  Uiso   1.00
C1211  C     0.12649   0.83979   0.80073   0.00000  Uiso   1.00
C1212  C     0.44078   0.80957   0.83345   0.00000  Uiso   1.00
C1213  C     0.37352   0.66021   0.86594   0.00000  Uiso   1.00
C1214  C     0.12953   0.66353   0.86098   0.00000  Uiso   1.00
C1215  C     0.37048   0.83647   0.80567   0.00000  Uiso   1.00
C1216  C     0.41196   0.88117   0.86125   0.00000  Uiso   1.00
C1217  C     0.08803   0.61882   0.80543   0.00000  Uiso   1.00
C1218  C     0.15866   0.87218   0.80032   0.00000  Uiso   1.00
C1219  C     0.34135   0.62782   0.86635   0.00000  Uiso   1.00
C1220  C     0.37648   0.58979   0.80072   0.00000  Uiso   1.00
C1221  C     0.12351   0.91021   0.86594   0.00000  Uiso   1.00
C1222  C     0.37952   0.91353   0.86100   0.00000  Uiso   1.00
C1223  C     0.44071   0.69047   0.83321   0.00000  Uiso   1.00
C1224  C     0.12047   0.58646   0.80568   0.00000  Uiso   1.00
C1225  C     0.16197   0.63118   0.86124   0.00000  Uiso   1.00
C1226  C     0.33804   0.86883   0.80541   0.00000  Uiso   1.00
C1227  C     0.09291   0.84288   0.83362   0.00000  Uiso   1.00
C1228  C     0.40709   0.65712   0.83305   0.00000  Uiso   1.00
C1229  C     0.40717   0.84291   0.83360   0.00000  Uiso   1.00
C1230  C     0.09283   0.65709   0.83307   0.00000  Uiso   1.00
C1231  C     0.34291   0.59288   0.83362   0.00000  Uiso   1.00
C1232  C     0.15709   0.90712   0.83305   0.00000  Uiso   1.00
C1233  C     0.15717   0.59291   0.83360   0.00000  Uiso   1.00
C1234  C     0.05929   0.80953   0.83346   0.00000  Uiso   1.00
C1235  C     0.34283   0.90709   0.83307   0.00000  Uiso   1.00
C1236  C     0.30921   0.94043   0.83321   0.00000  Uiso   1.00
C1237  C     0.19078   0.55957   0.83346   0.00000  Uiso   1.00
C1238  C     0.19071   0.94047   0.83321   0.00000  Uiso   1.00
C1239  C     0.30929   0.55953   0.83346   0.00000  Uiso   1.00
C1240  C     0.00114   0.71124   0.69103   0.00000  Uiso   1.00
Cu1241 Cu    0.00000   0.75000   0.88022   0.00000  Uiso   1.00
Cu1242 Cu    0.00000   0.75000   0.78645   0.00000  Uiso   1.00
Cu1243 Cu    0.25000   0.50000   0.88022   0.00000  Uiso   1.00
Cu1244 Cu    0.25000   0.50000   0.78645   0.00000  Uiso   1.00
F1245  F     0.00250   0.67226   0.71375   0.00000  Uiso   1.00
F1246  F     0.49751   0.82774   0.95291   0.00000  Uiso   1.00
F1247  F     0.49798   0.82784   0.71534   0.00000  Uiso   1.00
F1248  F     0.00202   0.67215   0.95133   0.00000  Uiso   1.00
F1249  F     0.25249   0.92226   0.71375   0.00000  Uiso   1.00
F1250  F     0.24750   0.57774   0.95291   0.00000  Uiso   1.00
F1251  F     0.24798   0.57785   0.71534   0.00000  Uiso   1.00
F1252  F     0.25202   0.92215   0.95133   0.00000  Uiso   1.00
H1253  H     0.43087   0.62037   0.73372   0.00000  Uiso   1.00
H1254  H     0.13745   0.69555   0.92306   0.00000  Uiso   1.00
H1255  H     0.33844   0.77977   0.78987   0.00000  Uiso   1.00
H1256  H     0.36258   0.80448   0.74358   0.00000  Uiso   1.00
H1257  H     0.44204   0.89141   0.92326   0.00000  Uiso   1.00
H1258  H     0.46554   0.91635   0.87688   0.00000  Uiso   1.00
H1259  H     0.05793   0.60855   0.74344   0.00000  Uiso   1.00
H1260  H     0.03445   0.58364   0.78984   0.00000  Uiso   1.00
H1261  H     0.18088   0.87036   0.73372   0.00000  Uiso   1.00
H1262  H     0.20936   0.83907   0.77184   0.00000  Uiso   1.00
H1263  H     0.31913   0.62963   0.93295   0.00000  Uiso   1.00
H1264  H     0.45936   0.58907   0.77183   0.00000  Uiso   1.00
H1265  H     0.29064   0.66093   0.89483   0.00000  Uiso   1.00
H1266  H     0.40683   0.53518   0.77471   0.00000  Uiso   1.00
H1267  H     0.37832   0.56457   0.73467   0.00000  Uiso   1.00
H1268  H     0.09317   0.96482   0.89195   0.00000  Uiso   1.00
H1269  H     0.12168   0.93543   0.93200   0.00000  Uiso   1.00
H1270  H     0.41156   0.97023   0.87680   0.00000  Uiso   1.00
H1271  H     0.38742   0.94552   0.92309   0.00000  Uiso   1.00
H1272  H     0.08843   0.52975   0.78991   0.00000  Uiso   1.00
H1273  H     0.11255   0.55445   0.74361   0.00000  Uiso   1.00
H1274  H     0.19207   0.64144   0.92323   0.00000  Uiso   1.00
H1275  H     0.06912   0.87964   0.93295   0.00000  Uiso   1.00
H1276  H     0.21555   0.66636   0.87683   0.00000  Uiso   1.00
H1277  H     0.30796   0.85859   0.74341   0.00000  Uiso   1.00
H1278  H     0.28446   0.83365   0.78979   0.00000  Uiso   1.00
H1279  H     0.04064   0.91093   0.89483   0.00000  Uiso   1.00
H1280  H     0.15683   0.78518   0.77471   0.00000  Uiso   1.00
H1281  H     0.12832   0.81457   0.73467   0.00000  Uiso   1.00
H1282  H     0.34317   0.71482   0.89195   0.00000  Uiso   1.00
H1283  H     0.37168   0.68543   0.93200   0.00000  Uiso   1.00
H1284  H     0.16157   0.72025   0.87675   0.00000  Uiso   1.00
N1285  N    -0.00000   0.75000   0.95069   0.00000  Uiso   1.00
N1286  N     0.36605   0.79641   0.77880   0.00000  Uiso   1.00
N1287  N     0.45051   0.88748   0.88813   0.00000  Uiso   1.00
N1288  N     0.04947   0.61250   0.77857   0.00000  Uiso   1.00
N1289  N     0.19356   0.86928   0.76751   0.00000  Uiso   1.00
N1290  N     0.30645   0.63072   0.89916   0.00000  Uiso   1.00
N1291  N     0.37834   0.55284   0.76889   0.00000  Uiso   1.00
N1292  N     0.12165   0.94717   0.89777   0.00000  Uiso   1.00
N1293  N     0.38395   0.95359   0.88786   0.00000  Uiso   1.00
N1294  N     0.11603   0.54639   0.77883   0.00000  Uiso   1.00
N1295  N     0.20053   0.63750   0.88810   0.00000  Uiso   1.00
N1296  N     0.00000   0.75000   0.71598   0.00000  Uiso   1.00
N1297  N     0.29949   0.86252   0.77854   0.00000  Uiso   1.00
N1298  N     0.25000   0.50000   0.95069   0.00000  Uiso   1.00
N1299  N     0.25000   0.50000   0.71598   0.00000  Uiso   1.00
N1300  N     0.44355   0.61928   0.76751   0.00000  Uiso   1.00
N1301  N     0.05644   0.88072   0.89915   0.00000  Uiso   1.00
N1302  N     0.12835   0.80283   0.76890   0.00000  Uiso   1.00
N1303  N     0.37166   0.69716   0.89777   0.00000  Uiso   1.00
N1304  N     0.13397   0.70361   0.88783   0.00000  Uiso   1.00
O1305  O     0.04508   0.70491   0.87291   0.00000  Uiso   1.00
O1306  O     0.20491   0.54509   0.79375   0.00000  Uiso   1.00
O1307  O     0.20491   0.54509   0.87291   0.00000  Uiso   1.00
O1308  O     0.29508   0.95491   0.79375   0.00000  Uiso   1.00
O1309  O     0.20491   0.95491   0.79375   0.00000  Uiso   1.00
O1310  O     0.29508   0.54509   0.87291   0.00000  Uiso   1.00
O1311  O     0.29508   0.54509   0.79375   0.00000  Uiso   1.00
O1312  O     0.20491   0.95491   0.87291   0.00000  Uiso   1.00
O1313  O     0.45491   0.79509   0.79375   0.00000  Uiso   1.00
O1314  O     0.45491   0.79509   0.87291   0.00000  Uiso   1.00
O1315  O     0.04508   0.70491   0.79375   0.00000  Uiso   1.00
O1316  O     0.45491   0.70491   0.79375   0.00000  Uiso   1.00
O1317  O     0.04508   0.79509   0.87291   0.00000  Uiso   1.00
O1318  O     0.04508   0.79509   0.79375   0.00000  Uiso   1.00
O1319  O     0.45491   0.70491   0.87291   0.00000  Uiso   1.00
O1320  O     0.29508   0.95491   0.87291   0.00000  Uiso   1.00
C1321  C     0.55922   0.69043   0.83321   0.00000  Uiso   1.00
C1322  C     0.99886   0.78876   0.97564   0.00000  Uiso   1.00
C1323  C     0.99893   0.78879   0.69181   0.00000  Uiso   1.00
C1324  C     0.50107   0.71121   0.97486   0.00000  Uiso   1.00
C1325  C     0.75114   0.96124   0.69103   0.00000  Uiso   1.00
C1326  C     0.74886   0.53876   0.97564   0.00000  Uiso   1.00
C1327  C     0.74893   0.53879   0.69181   0.00000  Uiso   1.00
C1328  C     0.75107   0.96121   0.97486   0.00000  Uiso   1.00
C1329  C     0.90865   0.62218   0.80032   0.00000  Uiso   1.00
C1330  C     0.59134   0.87782   0.86635   0.00000  Uiso   1.00
C1331  C     0.62649   0.83979   0.80073   0.00000  Uiso   1.00
C1332  C     0.94078   0.80957   0.83345   0.00000  Uiso   1.00
C1333  C     0.87352   0.66021   0.86594   0.00000  Uiso   1.00
C1334  C     0.62953   0.66353   0.86098   0.00000  Uiso   1.00
C1335  C     0.87048   0.83647   0.80567   0.00000  Uiso   1.00
C1336  C     0.91196   0.88117   0.86125   0.00000  Uiso   1.00
C1337  C     0.58803   0.61882   0.80543   0.00000  Uiso   1.00
C1338  C     0.65866   0.87218   0.80032   0.00000  Uiso   1.00
C1339  C     0.84135   0.62782   0.86635   0.00000  Uiso   1.00
C1340  C     0.87648   0.58979   0.80072   0.00000  Uiso   1.00
C1341  C     0.62351   0.91021   0.86594   0.00000  Uiso   1.00
C1342  C     0.87952   0.91353   0.86100   0.00000  Uiso   1.00
C1343  C     0.94071   0.69047   0.83321   0.00000  Uiso   1.00
C1344  C     0.62047   0.58646   0.80568   0.00000  Uiso   1.00
C1345  C     0.66197   0.63118   0.86124   0.00000  Uiso   1.00
C1346  C     0.83804   0.86883   0.80541   0.00000  Uiso   1.00
C1347  C     0.59291   0.84288   0.83362   0.00000  Uiso   1.00
C1348  C     0.90709   0.65712   0.83305   0.00000  Uiso   1.00
C1349  C     0.90717   0.84291   0.83360   0.00000  Uiso   1.00
C1350  C     0.59283   0.65709   0.83307   0.00000  Uiso   1.00
C1351  C     0.84291   0.59288   0.83362   0.00000  Uiso   1.00
C1352  C     0.65709   0.90712   0.83305   0.00000  Uiso   1.00
C1353  C     0.65717   0.59291   0.83360   0.00000  Uiso   1.00
C1354  C     0.55929   0.80953   0.83346   0.00000  Uiso   1.00
C1355  C     0.84283   0.90709   0.83307   0.00000  Uiso   1.00
C1356  C     0.80921   0.94043   0.83321   0.00000  Uiso   1.00
C1357  C     0.69078   0.55957   0.83346   0.00000  Uiso   1.00
C1358  C     0.69071   0.94047   0.83321   0.00000  Uiso   1.00
C1359  C     0.80929   0.55953   0.83346   0.00000  Uiso   1.00
C1360  C     0.50114   0.71124   0.69103   0.00000  Uiso   1.00
Cu1361 Cu    0.50000   0.75000   0.88022   0.00000  Uiso   1.00
Cu1362 Cu    0.50000   0.75000   0.78645   0.00000  Uiso   1.00
Cu1363 Cu    0.75000   0.50000   0.88022   0.00000  Uiso   1.00
Cu1364 Cu    0.75000   0.50000   0.78645   0.00000  Uiso   1.00
F1365  F     0.50250   0.67226   0.71375   0.00000  Uiso   1.00
F1366  F     0.99751   0.82774   0.95291   0.00000  Uiso   1.00
F1367  F     0.99798   0.82784   0.71534   0.00000  Uiso   1.00
F1368  F     0.50202   0.67215   0.95133   0.00000  Uiso   1.00
F1369  F     0.75249   0.92226   0.71375   0.00000  Uiso   1.00
F1370  F     0.74750   0.57774   0.95291   0.00000  Uiso   1.00
F1371  F     0.74798   0.57785   0.71534   0.00000  Uiso   1.00
F1372  F     0.75202   0.92215   0.95133   0.00000  Uiso   1.00
H1373  H     0.93087   0.62037   0.73372   0.00000  Uiso   1.00
H1374  H     0.63745   0.69555   0.92306   0.00000  Uiso   1.00
H1375  H     0.83844   0.77977   0.78987   0.00000  Uiso   1.00
H1376  H     0.86258   0.80448   0.74358   0.00000  Uiso   1.00
H1377  H     0.94204   0.89141   0.92326   0.00000  Uiso   1.00
H1378  H     0.96554   0.91635   0.87688   0.00000  Uiso   1.00
H1379  H     0.55793   0.60855   0.74344   0.00000  Uiso   1.00
H1380  H     0.53445   0.58364   0.78984   0.00000  Uiso   1.00
H1381  H     0.68088   0.87036   0.73372   0.00000  Uiso   1.00
H1382  H     0.70936   0.83907   0.77184   0.00000  Uiso   1.00
H1383  H     0.81913   0.62963   0.93295   0.00000  Uiso   1.00
H1384  H     0.95936   0.58907   0.77183   0.00000  Uiso   1.00
H1385  H     0.79064   0.66093   0.89483   0.00000  Uiso   1.00
H1386  H     0.90683   0.53518   0.77471   0.00000  Uiso   1.00
H1387  H     0.87832   0.56457   0.73467   0.00000  Uiso   1.00
H1388  H     0.59317   0.96482   0.89195   0.00000  Uiso   1.00
H1389  H     0.62168   0.93543   0.93200   0.00000  Uiso   1.00
H1390  H     0.91156   0.97023   0.87680   0.00000  Uiso   1.00
H1391  H     0.88742   0.94552   0.92309   0.00000  Uiso   1.00
H1392  H     0.58843   0.52975   0.78991   0.00000  Uiso   1.00
H1393  H     0.61255   0.55445   0.74361   0.00000  Uiso   1.00
H1394  H     0.69207   0.64144   0.92323   0.00000  Uiso   1.00
H1395  H     0.56912   0.87964   0.93295   0.00000  Uiso   1.00
H1396  H     0.71555   0.66636   0.87683   0.00000  Uiso   1.00
H1397  H     0.80796   0.85859   0.74341   0.00000  Uiso   1.00
H1398  H     0.78446   0.83365   0.78979   0.00000  Uiso   1.00
H1399  H     0.54064   0.91093   0.89483   0.00000  Uiso   1.00
H1400  H     0.65683   0.78518   0.77471   0.00000  Uiso   1.00
H1401  H     0.62832   0.81457   0.73467   0.00000  Uiso   1.00
H1402  H     0.84317   0.71482   0.89195   0.00000  Uiso   1.00
H1403  H     0.87168   0.68543   0.93200   0.00000  Uiso   1.00
H1404  H     0.66157   0.72025   0.87675   0.00000  Uiso   1.00
N1405  N     0.50000   0.75000   0.95069   0.00000  Uiso   1.00
N1406  N     0.86605   0.79641   0.77880   0.00000  Uiso   1.00
N1407  N     0.95051   0.88748   0.88813   0.00000  Uiso   1.00
N1408  N     0.54947   0.61250   0.77857   0.00000  Uiso   1.00
N1409  N     0.69356   0.86928   0.76751   0.00000  Uiso   1.00
N1410  N     0.80645   0.63072   0.89916   0.00000  Uiso   1.00
N1411  N     0.87834   0.55284   0.76889   0.00000  Uiso   1.00
N1412  N     0.62165   0.94717   0.89777   0.00000  Uiso   1.00
N1413  N     0.88395   0.95359   0.88786   0.00000  Uiso   1.00
N1414  N     0.61603   0.54639   0.77883   0.00000  Uiso   1.00
N1415  N     0.70053   0.63750   0.88810   0.00000  Uiso   1.00
N1416  N     0.50000   0.75000   0.71598   0.00000  Uiso   1.00
N1417  N     0.79949   0.86252   0.77854   0.00000  Uiso   1.00
N1418  N     0.75000   0.50000   0.95069   0.00000  Uiso   1.00
N1419  N     0.75000   0.50000   0.71598   0.00000  Uiso   1.00
N1420  N     0.94355   0.61928   0.76751   0.00000  Uiso   1.00
N1421  N     0.55644   0.88072   0.89915   0.00000  Uiso   1.00
N1422  N     0.62835   0.80283   0.76890   0.00000  Uiso   1.00
N1423  N     0.87166   0.69716   0.89777   0.00000  Uiso   1.00
N1424  N     0.63397   0.70361   0.88783   0.00000  Uiso   1.00
O1425  O     0.54508   0.70491   0.87291   0.00000  Uiso   1.00
O1426  O     0.70491   0.54509   0.79375   0.00000  Uiso   1.00
O1427  O     0.70491   0.54509   0.87291   0.00000  Uiso   1.00
O1428  O     0.79508   0.95491   0.79375   0.00000  Uiso   1.00
O1429  O     0.70491   0.95491   0.79375   0.00000  Uiso   1.00
O1430  O     0.79508   0.54509   0.87291   0.00000  Uiso   1.00
O1431  O     0.79508   0.54509   0.79375   0.00000  Uiso   1.00
O1432  O     0.70491   0.95491   0.87291   0.00000  Uiso   1.00
O1433  O     0.95491   0.79509   0.79375   0.00000  Uiso   1.00
O1434  O     0.95491   0.79509   0.87291   0.00000  Uiso   1.00
O1435  O     0.54508   0.70491   0.79375   0.00000  Uiso   1.00
O1436  O     0.95491   0.70491   0.79375   0.00000  Uiso   1.00
O1437  O     0.54508   0.79509   0.87291   0.00000  Uiso   1.00
O1438  O     0.54508   0.79509   0.79375   0.00000  Uiso   1.00
O1439  O     0.95491   0.70491   0.87291   0.00000  Uiso   1.00
O1440  O     0.79508   0.95491   0.87291   0.00000  Uiso   1.00
loop_
_geom_bond_atom_site_label_1
_geom_bond_atom_site_label_2
_geom_bond_distance
_geom_bond_site_symmetry_2
_ccdc_geom_bond_type
C1     C30     1.448   .     S
C1     O105    1.290   .     A
C1     O115    1.291   .     A
C2     F46     1.352   .     S
C2     N205    1.368   .     A
C2     C483    1.417   .     S
C3     F47     1.355   .     S
C3     C962    1.417   1_554 S
C3     N216    1.368   .     S
C4     F48     1.355   .     S
C4     C520    1.417   .     S
C4     N85     1.368   .     S
C5     N339    1.368   .     A
C5     F49     1.352   .     S
C5     C968    1.417   1_554 S
C6     N98     1.368   .     A
C6     F50     1.352   .     S
C6     C487    1.417   .     S
C7     F51     1.355   .     S
C7     C966    1.417   1_554 S
C7     N99     1.368   .     S
C8     F52     1.355   .     S
C8     C485    1.417   .     S
C8     N338    1.368   .     S
C9     C20     1.401   .     A
C9     N100    1.435   .     S
C9     C28     1.407   .     A
C10    C27     1.407   .     A
C10    N101    1.435   .     S
C10    C21     1.401   .     A
C11    C18     1.401   .     A
C11    C27     1.406   .     A
C11    N102    1.437   .     S
C12    C29     1.448   .     S
C12    O114    1.291   .     A
C12    O113    1.290   .     A
C13    C28     1.406   .     A
C13    N103    1.437   .     S
C13    C19     1.401   .     A
C14    C30     1.404   .     A
C14    N104    1.437   .     S
C14    C25     1.401   .     A
C15    C29     1.404   .     A
C15    C26     1.401   .     A
C15    N86     1.437   .     S
C16    N87     1.434   .     S
C16    C29     1.405   .     A
C16    C22     1.401   .     A
C17    N88     1.434   .     S
C17    C30     1.405   .     A
C17    C24     1.401   .     A
C18    C32     1.407   .     A
C18    N89     1.435   .     S
C19    C31     1.407   .     A
C19    N90     1.435   .     S
C20    N91     1.437   .     S
C20    C31     1.406   .     A
C21    C32     1.406   .     A
C21    N92     1.437   .     S
C22    C35     1.404   .     A
C22    N93     1.437   .     S
C23    O119    1.292   .     A
C23    O116    1.292   .     A
C23    C28     1.453   .     S
C24    N94     1.437   .     S
C24    C33     1.404   .     A
C25    N95     1.434   .     S
C25    C33     1.405   .     A
C26    C35     1.405   .     A
C26    N97     1.434   .     S
C27    C34     1.453   .     S
C31    C39     1.453   .     S
C32    C38     1.453   .     S
C33    C37     1.448   .     S
C34    O118    1.292   .     A
C34    O117    1.292   .     A
C35    C36     1.448   .     S
C36    O108    1.291   .     A
C36    O120    1.290   .     A
C37    O107    1.291   .     A
C37    O106    1.290   .     A
C38    O109    1.292   .     A
C38    O112    1.292   .     A
C39    O110    1.292   .     A
C39    O111    1.292   .     A
C40    N96     1.368   .     A
C40    F45     1.352   .     S
C40    C964    1.417   1_554 S
Cu41   Cu42    2.684   .     S
Cu41   O105    1.960   .     S
Cu41   O117    1.969   .     S
Cu41   N85     2.017   .     S
Cu41   O234    1.963   1_455 S
Cu41   O239    1.966   1_455 S
Cu42   N96     2.017   .     S
Cu42   O118    1.966   .     S
Cu42   O115    1.963   .     S
Cu42   O233    1.960   1_455 S
Cu42   O236    1.969   1_455 S
Cu43   N98     2.017   .     S
Cu43   O110    1.969   .     S
Cu43   Cu44    2.684   .     S
Cu43   O107    1.963   .     S
Cu43   O352    1.966   1_545 S
Cu43   O360    1.960   1_545 S
Cu44   O106    1.960   .     S
Cu44   O111    1.966   .     S
Cu44   N99     2.017   .     S
Cu44   O348    1.963   1_545 S
Cu44   O349    1.969   1_545 S
H53    N100    1.045   .     S
H54    N104    1.045   .     S
H55    N86     1.045   .     S
H56    N86     1.045   .     S
H57    N87     1.045   .     S
H58    N87     1.045   .     S
H59    N88     1.045   .     S
H60    N88     1.045   .     S
H61    N89     1.045   .     S
H62    N89     1.044   .     S
H63    N90     1.045   .     S
H64    N100    1.044   .     S
H65    N90     1.044   .     S
H66    N91     1.045   .     S
H67    N91     1.045   .     S
H68    N92     1.045   .     S
H69    N92     1.045   .     S
H70    N93     1.045   .     S
H71    N93     1.045   .     S
H72    N94     1.045   .     S
H73    N94     1.045   .     S
H74    N95     1.045   .     S
H75    N101    1.045   .     S
H76    N95     1.045   .     S
H77    N97     1.045   .     S
H78    N97     1.045   .     S
H79    N101    1.044   .     S
H80    N102    1.045   .     S
H81    N102    1.045   .     S
H82    N103    1.045   .     S
H83    N103    1.045   .     S
H84    N104    1.045   .     S
N85    C122    1.368   1_455 A
N96    C123    1.368   1_455 S
N98    C248    1.368   1_545 S
N99    C245    1.368   1_545 A
O108   Cu284   1.963   .     S
O109   Cu284   1.969   .     S
O112   Cu283   1.966   .     S
O113   Cu162   1.960   .     S
O114   Cu161   1.963   .     S
O116   Cu162   1.969   .     S
O119   Cu161   1.966   .     S
O120   Cu283   1.960   .     S
C121   C150    1.448   .     S
C121   O225    1.290   .     A
C121   O235    1.291   .     A
C122   F166    1.352   .     S
C122   N85     1.368   1_655 A
C122   C603    1.417   .     S
C123   F167    1.355   .     S
C123   C1082   1.417   1_554 S
C123   N96     1.368   1_655 S
C124   F168    1.355   .     S
C124   C640    1.417   .     S
C124   N205    1.368   .     S
C125   N459    1.368   .     A
C125   F169    1.352   .     S
C125   C1088   1.417   1_554 S
C126   N218    1.368   .     A
C126   F170    1.352   .     S
C126   C607    1.417   .     S
C127   F171    1.355   .     S
C127   C1086   1.417   1_554 S
C127   N219    1.368   .     S
C128   F172    1.355   .     S
C128   C605    1.417   .     S
C128   N458    1.368   .     S
C129   C140    1.401   .     A
C129   N220    1.435   .     S
C129   C148    1.407   .     A
C130   C147    1.407   .     A
C130   N221    1.435   .     S
C130   C141    1.401   .     A
C131   C138    1.401   .     A
C131   C147    1.406   .     A
C131   N222    1.437   .     S
C132   C149    1.448   .     S
C132   O234    1.291   .     A
C132   O233    1.290   .     A
C133   C148    1.406   .     A
C133   N223    1.437   .     S
C133   C139    1.401   .     A
C134   C150    1.404   .     A
C134   N224    1.437   .     S
C134   C145    1.401   .     A
C135   C149    1.404   .     A
C135   C146    1.401   .     A
C135   N206    1.437   .     S
C136   N207    1.434   .     S
C136   C149    1.405   .     A
C136   C142    1.401   .     A
C137   N208    1.434   .     S
C137   C150    1.405   .     A
C137   C144    1.401   .     A
C138   C152    1.407   .     A
C138   N209    1.435   .     S
C139   C151    1.407   .     A
C139   N210    1.435   .     S
C140   N211    1.437   .     S
C140   C151    1.406   .     A
C141   C152    1.406   .     A
C141   N212    1.437   .     S
C142   C155    1.404   .     A
C142   N213    1.437   .     S
C143   O239    1.292   .     A
C143   O236    1.292   .     A
C143   C148    1.453   .     S
C144   N214    1.437   .     S
C144   C153    1.404   .     A
C145   N215    1.434   .     S
C145   C153    1.405   .     A
C146   C155    1.405   .     A
C146   N217    1.434   .     S
C147   C154    1.453   .     S
C151   C159    1.453   .     S
C152   C158    1.453   .     S
C153   C157    1.448   .     S
C154   O238    1.292   .     A
C154   O237    1.292   .     A
C155   C156    1.448   .     S
C156   O228    1.291   .     A
C156   O240    1.290   .     A
C157   O227    1.291   .     A
C157   O226    1.290   .     A
C158   O229    1.292   .     A
C158   O232    1.292   .     A
C159   O230    1.292   .     A
C159   O231    1.292   .     A
C160   N216    1.368   .     A
C160   F165    1.352   .     S
C160   C1084   1.417   1_554 S
Cu161  Cu162   2.684   .     S
Cu161  O225    1.960   .     S
Cu161  O237    1.969   .     S
Cu161  N205    2.017   .     S
Cu162  N216    2.017   .     S
Cu162  O238    1.966   .     S
Cu162  O235    1.963   .     S
Cu163  N218    2.017   .     S
Cu163  O230    1.969   .     S
Cu163  Cu164   2.684   .     S
Cu163  O227    1.963   .     S
Cu163  O472    1.966   1_545 S
Cu163  O480    1.960   1_545 S
Cu164  O226    1.960   .     S
Cu164  O231    1.966   .     S
Cu164  N219    2.017   .     S
Cu164  O468    1.963   1_545 S
Cu164  O469    1.969   1_545 S
H173   N220    1.045   .     S
H174   N224    1.045   .     S
H175   N206    1.045   .     S
H176   N206    1.045   .     S
H177   N207    1.045   .     S
H178   N207    1.045   .     S
H179   N208    1.045   .     S
H180   N208    1.045   .     S
H181   N209    1.045   .     S
H182   N209    1.044   .     S
H183   N210    1.045   .     S
H184   N220    1.044   .     S
H185   N210    1.044   .     S
H186   N211    1.045   .     S
H187   N211    1.045   .     S
H188   N212    1.045   .     S
H189   N212    1.045   .     S
H190   N213    1.045   .     S
H191   N213    1.045   .     S
H192   N214    1.045   .     S
H193   N214    1.045   .     S
H194   N215    1.045   .     S
H195   N221    1.045   .     S
H196   N215    1.045   .     S
H197   N217    1.045   .     S
H198   N217    1.045   .     S
H199   N221    1.044   .     S
H200   N222    1.045   .     S
H201   N222    1.045   .     S
H202   N223    1.045   .     S
H203   N223    1.045   .     S
H204   N224    1.045   .     S
N218   C368    1.368   1_545 S
N219   C365    1.368   1_545 A
O228   Cu404   1.963   .     S
O229   Cu404   1.969   .     S
O232   Cu403   1.966   .     S
O233   Cu42    1.960   1_655 S
O234   Cu41    1.963   1_655 S
O236   Cu42    1.969   1_655 S
O239   Cu41    1.966   1_655 S
O240   Cu403   1.960   .     S
C241   C270    1.448   .     S
C241   O345    1.290   .     A
C241   O355    1.291   .     A
C242   F286    1.352   .     S
C242   N445    1.368   .     A
C242   C723    1.417   .     S
C243   F287    1.355   .     S
C243   C1202   1.417   1_554 S
C243   N456    1.368   .     S
C244   F288    1.355   .     S
C244   C760    1.417   .     S
C244   N325    1.368   .     S
C245   N99     1.368   1_565 A
C245   F289    1.352   .     S
C245   C1208   1.417   1_554 S
C246   N338    1.368   .     A
C246   F290    1.352   .     S
C246   C727    1.417   .     S
C247   F291    1.355   .     S
C247   C1206   1.417   1_554 S
C247   N339    1.368   .     S
C248   F292    1.355   .     S
C248   C725    1.417   .     S
C248   N98     1.368   1_565 S
C249   C260    1.401   .     A
C249   N340    1.435   .     S
C249   C268    1.407   .     A
C250   C267    1.407   .     A
C250   N341    1.435   .     S
C250   C261    1.401   .     A
C251   C258    1.401   .     A
C251   C267    1.406   .     A
C251   N342    1.437   .     S
C252   C269    1.448   .     S
C252   O354    1.291   .     A
C252   O353    1.290   .     A
C253   C268    1.406   .     A
C253   N343    1.437   .     S
C253   C259    1.401   .     A
C254   C270    1.404   .     A
C254   N344    1.437   .     S
C254   C265    1.401   .     A
C255   C269    1.404   .     A
C255   C266    1.401   .     A
C255   N326    1.437   .     S
C256   N327    1.434   .     S
C256   C269    1.405   .     A
C256   C262    1.401   .     A
C257   N328    1.434   .     S
C257   C270    1.405   .     A
C257   C264    1.401   .     A
C258   C272    1.407   .     A
C258   N329    1.435   .     S
C259   C271    1.407   .     A
C259   N330    1.435   .     S
C260   N331    1.437   .     S
C260   C271    1.406   .     A
C261   C272    1.406   .     A
C261   N332    1.437   .     S
C262   C275    1.404   .     A
C262   N333    1.437   .     S
C263   O359    1.292   .     A
C263   O356    1.292   .     A
C263   C268    1.453   .     S
C264   N334    1.437   .     S
C264   C273    1.404   .     A
C265   N335    1.434   .     S
C265   C273    1.405   .     A
C266   C275    1.405   .     A
C266   N337    1.434   .     S
C267   C274    1.453   .     S
C271   C279    1.453   .     S
C272   C278    1.453   .     S
C273   C277    1.448   .     S
C274   O358    1.292   .     A
C274   O357    1.292   .     A
C275   C276    1.448   .     S
C276   O348    1.291   .     A
C276   O360    1.290   .     A
C277   O347    1.291   .     A
C277   O346    1.290   .     A
C278   O349    1.292   .     A
C278   O352    1.292   .     A
C279   O350    1.292   .     A
C279   O351    1.292   .     A
C280   N336    1.368   .     A
C280   F285    1.352   .     S
C280   C1204   1.417   1_554 S
Cu281  Cu282   2.684   .     S
Cu281  O345    1.960   .     S
Cu281  O357    1.969   .     S
Cu281  N325    2.017   .     S
Cu281  O474    1.963   1_455 S
Cu281  O479    1.966   1_455 S
Cu282  N336    2.017   .     S
Cu282  O358    1.966   .     S
Cu282  O355    1.963   .     S
Cu282  O473    1.960   1_455 S
Cu282  O476    1.969   1_455 S
Cu283  N338    2.017   .     S
Cu283  O350    1.969   .     S
Cu283  Cu284   2.684   .     S
Cu283  O347    1.963   .     S
Cu284  O346    1.960   .     S
Cu284  O351    1.966   .     S
Cu284  N339    2.017   .     S
H293   N340    1.045   .     S
H294   N344    1.045   .     S
H295   N326    1.045   .     S
H296   N326    1.045   .     S
H297   N327    1.045   .     S
H298   N327    1.045   .     S
H299   N328    1.045   .     S
H300   N328    1.045   .     S
H301   N329    1.045   .     S
H302   N329    1.044   .     S
H303   N330    1.045   .     S
H304   N340    1.044   .     S
H305   N330    1.044   .     S
H306   N331    1.045   .     S
H307   N331    1.045   .     S
H308   N332    1.045   .     S
H309   N332    1.045   .     S
H310   N333    1.045   .     S
H311   N333    1.045   .     S
H312   N334    1.045   .     S
H313   N334    1.045   .     S
H314   N335    1.045   .     S
H315   N341    1.045   .     S
H316   N335    1.045   .     S
H317   N337    1.045   .     S
H318   N337    1.045   .     S
H319   N341    1.044   .     S
H320   N342    1.045   .     S
H321   N342    1.045   .     S
H322   N343    1.045   .     S
H323   N343    1.045   .     S
H324   N344    1.045   .     S
N325   C362    1.368   1_455 A
N336   C363    1.368   1_455 S
O348   Cu44    1.963   1_565 S
O349   Cu44    1.969   1_565 S
O352   Cu43    1.966   1_565 S
O353   Cu402   1.960   .     S
O354   Cu401   1.963   .     S
O356   Cu402   1.969   .     S
O359   Cu401   1.966   .     S
O360   Cu43    1.960   1_565 S
C361   C390    1.448   .     S
C361   O465    1.290   .     A
C361   O475    1.291   .     A
C362   F406    1.352   .     S
C362   N325    1.368   1_655 A
C362   C843    1.417   .     S
C363   F407    1.355   .     S
C363   C1322   1.417   1_554 S
C363   N336    1.368   1_655 S
C364   F408    1.355   .     S
C364   C880    1.417   .     S
C364   N445    1.368   .     S
C365   N219    1.368   1_565 A
C365   F409    1.352   .     S
C365   C1328   1.417   1_554 S
C366   N458    1.368   .     A
C366   F410    1.352   .     S
C366   C847    1.417   .     S
C367   F411    1.355   .     S
C367   C1326   1.417   1_554 S
C367   N459    1.368   .     S
C368   F412    1.355   .     S
C368   C845    1.417   .     S
C368   N218    1.368   1_565 S
C369   C380    1.401   .     A
C369   N460    1.435   .     S
C369   C388    1.407   .     A
C370   C387    1.407   .     A
C370   N461    1.435   .     S
C370   C381    1.401   .     A
C371   C378    1.401   .     A
C371   C387    1.406   .     A
C371   N462    1.437   .     S
C372   C389    1.448   .     S
C372   O474    1.291   .     A
C372   O473    1.290   .     A
C373   C388    1.406   .     A
C373   N463    1.437   .     S
C373   C379    1.401   .     A
C374   C390    1.404   .     A
C374   N464    1.437   .     S
C374   C385    1.401   .     A
C375   C389    1.404   .     A
C375   C386    1.401   .     A
C375   N446    1.437   .     S
C376   N447    1.434   .     S
C376   C389    1.405   .     A
C376   C382    1.401   .     A
C377   N448    1.434   .     S
C377   C390    1.405   .     A
C377   C384    1.401   .     A
C378   C392    1.407   .     A
C378   N449    1.435   .     S
C379   C391    1.407   .     A
C379   N450    1.435   .     S
C380   N451    1.437   .     S
C380   C391    1.406   .     A
C381   C392    1.406   .     A
C381   N452    1.437   .     S
C382   C395    1.404   .     A
C382   N453    1.437   .     S
C383   O479    1.292   .     A
C383   O476    1.292   .     A
C383   C388    1.453   .     S
C384   N454    1.437   .     S
C384   C393    1.404   .     A
C385   N455    1.434   .     S
C385   C393    1.405   .     A
C386   C395    1.405   .     A
C386   N457    1.434   .     S
C387   C394    1.453   .     S
C391   C399    1.453   .     S
C392   C398    1.453   .     S
C393   C397    1.448   .     S
C394   O478    1.292   .     A
C394   O477    1.292   .     A
C395   C396    1.448   .     S
C396   O468    1.291   .     A
C396   O480    1.290   .     A
C397   O467    1.291   .     A
C397   O466    1.290   .     A
C398   O469    1.292   .     A
C398   O472    1.292   .     A
C399   O470    1.292   .     A
C399   O471    1.292   .     A
C400   N456    1.368   .     A
C400   F405    1.352   .     S
C400   C1324   1.417   1_554 S
Cu401  Cu402   2.684   .     S
Cu401  O465    1.960   .     S
Cu401  O477    1.969   .     S
Cu401  N445    2.017   .     S
Cu402  N456    2.017   .     S
Cu402  O478    1.966   .     S
Cu402  O475    1.963   .     S
Cu403  N458    2.017   .     S
Cu403  O470    1.969   .     S
Cu403  Cu404   2.684   .     S
Cu403  O467    1.963   .     S
Cu404  O466    1.960   .     S
Cu404  O471    1.966   .     S
Cu404  N459    2.017   .     S
H413   N460    1.045   .     S
H414   N464    1.045   .     S
H415   N446    1.045   .     S
H416   N446    1.045   .     S
H417   N447    1.045   .     S
H418   N447    1.045   .     S
H419   N448    1.045   .     S
H420   N448    1.045   .     S
H421   N449    1.045   .     S
H422   N449    1.044   .     S
H423   N450    1.045   .     S
H424   N460    1.044   .     S
H425   N450    1.044   .     S
H426   N451    1.045   .     S
H427   N451    1.045   .     S
H428   N452    1.045   .     S
H429   N452    1.045   .     S
H430   N453    1.045   .     S
H431   N453    1.045   .     S
H432   N454    1.045   .     S
H433   N454    1.045   .     S
H434   N455    1.045   .     S
H435   N461    1.045   .     S
H436   N455    1.045   .     S
H437   N457    1.045   .     S
H438   N457    1.045   .     S
H439   N461    1.044   .     S
H440   N462    1.045   .     S
H441   N462    1.045   .     S
H442   N463    1.045   .     S
H443   N463    1.045   .     S
H444   N464    1.045   .     S
O468   Cu164   1.963   1_565 S
O469   Cu164   1.969   1_565 S
O472   Cu163   1.966   1_565 S
O473   Cu282   1.960   1_655 S
O474   Cu281   1.963   1_655 S
O476   Cu282   1.969   1_655 S
O479   Cu281   1.966   1_655 S
O480   Cu163   1.960   1_565 S
C481   C510    1.448   .     S
C481   O585    1.290   .     A
C481   O595    1.291   .     A
C482   F526    1.352   .     S
C482   N685    1.368   .     A
C482   C963    1.417   .     S
C483   F527    1.355   .     S
C483   N696    1.368   .     S
C484   F528    1.355   .     S
C484   C1000   1.417   .     S
C484   N565    1.368   .     S
C485   N819    1.368   .     A
C485   F529    1.352   .     S
C486   N578    1.368   .     A
C486   F530    1.352   .     S
C486   C967    1.417   .     S
C487   F531    1.355   .     S
C487   N579    1.368   .     S
C488   F532    1.355   .     S
C488   C965    1.417   .     S
C488   N818    1.368   .     S
C489   C500    1.401   .     A
C489   N580    1.435   .     S
C489   C508    1.407   .     A
C490   C507    1.407   .     A
C490   N581    1.435   .     S
C490   C501    1.401   .     A
C491   C498    1.401   .     A
C491   C507    1.406   .     A
C491   N582    1.437   .     S
C492   C509    1.448   .     S
C492   O594    1.291   .     A
C492   O593    1.290   .     A
C493   C508    1.406   .     A
C493   N583    1.437   .     S
C493   C499    1.401   .     A
C494   C510    1.404   .     A
C494   N584    1.437   .     S
C494   C505    1.401   .     A
C495   C509    1.404   .     A
C495   C506    1.401   .     A
C495   N566    1.437   .     S
C496   N567    1.434   .     S
C496   C509    1.405   .     A
C496   C502    1.401   .     A
C497   N568    1.434   .     S
C497   C510    1.405   .     A
C497   C504    1.401   .     A
C498   C512    1.407   .     A
C498   N569    1.435   .     S
C499   C511    1.407   .     A
C499   N570    1.435   .     S
C500   N571    1.437   .     S
C500   C511    1.406   .     A
C501   C512    1.406   .     A
C501   N572    1.437   .     S
C502   C515    1.404   .     A
C502   N573    1.437   .     S
C503   O599    1.292   .     A
C503   O596    1.292   .     A
C503   C508    1.453   .     S
C504   N574    1.437   .     S
C504   C513    1.404   .     A
C505   N575    1.434   .     S
C505   C513    1.405   .     A
C506   C515    1.405   .     A
C506   N577    1.434   .     S
C507   C514    1.453   .     S
C511   C519    1.453   .     S
C512   C518    1.453   .     S
C513   C517    1.448   .     S
C514   O598    1.292   .     A
C514   O597    1.292   .     A
C515   C516    1.448   .     S
C516   O588    1.291   .     A
C516   O600    1.290   .     A
C517   O587    1.291   .     A
C517   O586    1.290   .     A
C518   O589    1.292   .     A
C518   O592    1.292   .     A
C519   O590    1.292   .     A
C519   O591    1.292   .     A
C520   N576    1.368   .     A
C520   F525    1.352   .     S
Cu521  Cu522   2.684   .     S
Cu521  O585    1.960   .     S
Cu521  O597    1.969   .     S
Cu521  N565    2.017   .     S
Cu521  O714    1.963   1_455 S
Cu521  O719    1.966   1_455 S
Cu522  N576    2.017   .     S
Cu522  O598    1.966   .     S
Cu522  O595    1.963   .     S
Cu522  O713    1.960   1_455 S
Cu522  O716    1.969   1_455 S
Cu523  N578    2.017   .     S
Cu523  O590    1.969   .     S
Cu523  Cu524   2.684   .     S
Cu523  O587    1.963   .     S
Cu523  O832    1.966   1_545 S
Cu523  O840    1.960   1_545 S
Cu524  O586    1.960   .     S
Cu524  O591    1.966   .     S
Cu524  N579    2.017   .     S
Cu524  O828    1.963   1_545 S
Cu524  O829    1.969   1_545 S
H533   N580    1.045   .     S
H534   N584    1.045   .     S
H535   N566    1.045   .     S
H536   N566    1.045   .     S
H537   N567    1.045   .     S
H538   N567    1.045   .     S
H539   N568    1.045   .     S
H540   N568    1.045   .     S
H541   N569    1.045   .     S
H542   N569    1.044   .     S
H543   N570    1.045   .     S
H544   N580    1.044   .     S
H545   N570    1.044   .     S
H546   N571    1.045   .     S
H547   N571    1.045   .     S
H548   N572    1.045   .     S
H549   N572    1.045   .     S
H550   N573    1.045   .     S
H551   N573    1.045   .     S
H552   N574    1.045   .     S
H553   N574    1.045   .     S
H554   N575    1.045   .     S
H555   N581    1.045   .     S
H556   N575    1.045   .     S
H557   N577    1.045   .     S
H558   N577    1.045   .     S
H559   N581    1.044   .     S
H560   N582    1.045   .     S
H561   N582    1.045   .     S
H562   N583    1.045   .     S
H563   N583    1.045   .     S
H564   N584    1.045   .     S
N565   C602    1.368   1_455 A
N576   C603    1.368   1_455 S
N578   C728    1.368   1_545 S
N579   C725    1.368   1_545 A
O588   Cu764   1.963   .     S
O589   Cu764   1.969   .     S
O592   Cu763   1.966   .     S
O593   Cu642   1.960   .     S
O594   Cu641   1.963   .     S
O596   Cu642   1.969   .     S
O599   Cu641   1.966   .     S
O600   Cu763   1.960   .     S
C601   C630    1.448   .     S
C601   O705    1.290   .     A
C601   O715    1.291   .     A
C602   F646    1.352   .     S
C602   N565    1.368   1_655 A
C602   C1083   1.417   .     S
C603   F647    1.355   .     S
C603   N576    1.368   1_655 S
C604   F648    1.355   .     S
C604   C1120   1.417   .     S
C604   N685    1.368   .     S
C605   N939    1.368   .     A
C605   F649    1.352   .     S
C606   N698    1.368   .     A
C606   F650    1.352   .     S
C606   C1087   1.417   .     S
C607   F651    1.355   .     S
C607   N699    1.368   .     S
C608   F652    1.355   .     S
C608   C1085   1.417   .     S
C608   N938    1.368   .     S
C609   C620    1.401   .     A
C609   N700    1.435   .     S
C609   C628    1.407   .     A
C610   C627    1.407   .     A
C610   N701    1.435   .     S
C610   C621    1.401   .     A
C611   C618    1.401   .     A
C611   C627    1.406   .     A
C611   N702    1.437   .     S
C612   C629    1.448   .     S
C612   O714    1.291   .     A
C612   O713    1.290   .     A
C613   C628    1.406   .     A
C613   N703    1.437   .     S
C613   C619    1.401   .     A
C614   C630    1.404   .     A
C614   N704    1.437   .     S
C614   C625    1.401   .     A
C615   C629    1.404   .     A
C615   C626    1.401   .     A
C615   N686    1.437   .     S
C616   N687    1.434   .     S
C616   C629    1.405   .     A
C616   C622    1.401   .     A
C617   N688    1.434   .     S
C617   C630    1.405   .     A
C617   C624    1.401   .     A
C618   C632    1.407   .     A
C618   N689    1.435   .     S
C619   C631    1.407   .     A
C619   N690    1.435   .     S
C620   N691    1.437   .     S
C620   C631    1.406   .     A
C621   C632    1.406   .     A
C621   N692    1.437   .     S
C622   C635    1.404   .     A
C622   N693    1.437   .     S
C623   O719    1.292   .     A
C623   O716    1.292   .     A
C623   C628    1.453   .     S
C624   N694    1.437   .     S
C624   C633    1.404   .     A
C625   N695    1.434   .     S
C625   C633    1.405   .     A
C626   C635    1.405   .     A
C626   N697    1.434   .     S
C627   C634    1.453   .     S
C631   C639    1.453   .     S
C632   C638    1.453   .     S
C633   C637    1.448   .     S
C634   O718    1.292   .     A
C634   O717    1.292   .     A
C635   C636    1.448   .     S
C636   O708    1.291   .     A
C636   O720    1.290   .     A
C637   O707    1.291   .     A
C637   O706    1.290   .     A
C638   O709    1.292   .     A
C638   O712    1.292   .     A
C639   O710    1.292   .     A
C639   O711    1.292   .     A
C640   N696    1.368   .     A
C640   F645    1.352   .     S
Cu641  Cu642   2.684   .     S
Cu641  O705    1.960   .     S
Cu641  O717    1.969   .     S
Cu641  N685    2.017   .     S
Cu642  N696    2.017   .     S
Cu642  O718    1.966   .     S
Cu642  O715    1.963   .     S
Cu643  N698    2.017   .     S
Cu643  O710    1.969   .     S
Cu643  Cu644   2.684   .     S
Cu643  O707    1.963   .     S
Cu643  O952    1.966   1_545 S
Cu643  O960    1.960   1_545 S
Cu644  O706    1.960   .     S
Cu644  O711    1.966   .     S
Cu644  N699    2.017   .     S
Cu644  O948    1.963   1_545 S
Cu644  O949    1.969   1_545 S
H653   N700    1.045   .     S
H654   N704    1.045   .     S
H655   N686    1.045   .     S
H656   N686    1.045   .     S
H657   N687    1.045   .     S
H658   N687    1.045   .     S
H659   N688    1.045   .     S
H660   N688    1.045   .     S
H661   N689    1.045   .     S
H662   N689    1.044   .     S
H663   N690    1.045   .     S
H664   N700    1.044   .     S
H665   N690    1.044   .     S
H666   N691    1.045   .     S
H667   N691    1.045   .     S
H668   N692    1.045   .     S
H669   N692    1.045   .     S
H670   N693    1.045   .     S
H671   N693    1.045   .     S
H672   N694    1.045   .     S
H673   N694    1.045   .     S
H674   N695    1.045   .     S
H675   N701    1.045   .     S
H676   N695    1.045   .     S
H677   N697    1.045   .     S
H678   N697    1.045   .     S
H679   N701    1.044   .     S
H680   N702    1.045   .     S
H681   N702    1.045   .     S
H682   N703    1.045   .     S
H683   N703    1.045   .     S
H684   N704    1.045   .     S
N698   C848    1.368   1_545 S
N699   C845    1.368   1_545 A
O708   Cu884   1.963   .     S
O709   Cu884   1.969   .     S
O712   Cu883   1.966   .     S
O713   Cu522   1.960   1_655 S
O714   Cu521   1.963   1_655 S
O716   Cu522   1.969   1_655 S
O719   Cu521   1.966   1_655 S
O720   Cu883   1.960   .     S
C721   C750    1.448   .     S
C721   O825    1.290   .     A
C721   O835    1.291   .     A
C722   F766    1.352   .     S
C722   N925    1.368   .     A
C722   C1203   1.417   .     S
C723   F767    1.355   .     S
C723   N936    1.368   .     S
C724   F768    1.355   .     S
C724   C1240   1.417   .     S
C724   N805    1.368   .     S
C725   N579    1.368   1_565 A
C725   F769    1.352   .     S
C726   N818    1.368   .     A
C726   F770    1.352   .     S
C726   C1207   1.417   .     S
C727   F771    1.355   .     S
C727   N819    1.368   .     S
C728   F772    1.355   .     S
C728   C1205   1.417   .     S
C728   N578    1.368   1_565 S
C729   C740    1.401   .     A
C729   N820    1.435   .     S
C729   C748    1.407   .     A
C730   C747    1.407   .     A
C730   N821    1.435   .     S
C730   C741    1.401   .     A
C731   C738    1.401   .     A
C731   C747    1.406   .     A
C731   N822    1.437   .     S
C732   C749    1.448   .     S
C732   O834    1.291   .     A
C732   O833    1.290   .     A
C733   C748    1.406   .     A
C733   N823    1.437   .     S
C733   C739    1.401   .     A
C734   C750    1.404   .     A
C734   N824    1.437   .     S
C734   C745    1.401   .     A
C735   C749    1.404   .     A
C735   C746    1.401   .     A
C735   N806    1.437   .     S
C736   N807    1.434   .     S
C736   C749    1.405   .     A
C736   C742    1.401   .     A
C737   N808    1.434   .     S
C737   C750    1.405   .     A
C737   C744    1.401   .     A
C738   C752    1.407   .     A
C738   N809    1.435   .     S
C739   C751    1.407   .     A
C739   N810    1.435   .     S
C740   N811    1.437   .     S
C740   C751    1.406   .     A
C741   C752    1.406   .     A
C741   N812    1.437   .     S
C742   C755    1.404   .     A
C742   N813    1.437   .     S
C743   O839    1.292   .     A
C743   O836    1.292   .     A
C743   C748    1.453   .     S
C744   N814    1.437   .     S
C744   C753    1.404   .     A
C745   N815    1.434   .     S
C745   C753    1.405   .     A
C746   C755    1.405   .     A
C746   N817    1.434   .     S
C747   C754    1.453   .     S
C751   C759    1.453   .     S
C752   C758    1.453   .     S
C753   C757    1.448   .     S
C754   O838    1.292   .     A
C754   O837    1.292   .     A
C755   C756    1.448   .     S
C756   O828    1.291   .     A
C756   O840    1.290   .     A
C757   O827    1.291   .     A
C757   O826    1.290   .     A
C758   O829    1.292   .     A
C758   O832    1.292   .     A
C759   O830    1.292   .     A
C759   O831    1.292   .     A
C760   N816    1.368   .     A
C760   F765    1.352   .     S
Cu761  Cu762   2.684   .     S
Cu761  O825    1.960   .     S
Cu761  O837    1.969   .     S
Cu761  N805    2.017   .     S
Cu761  O954    1.963   1_455 S
Cu761  O959    1.966   1_455 S
Cu762  N816    2.017   .     S
Cu762  O838    1.966   .     S
Cu762  O835    1.963   .     S
Cu762  O953    1.960   1_455 S
Cu762  O956    1.969   1_455 S
Cu763  N818    2.017   .     S
Cu763  O830    1.969   .     S
Cu763  Cu764   2.684   .     S
Cu763  O827    1.963   .     S
Cu764  O826    1.960   .     S
Cu764  O831    1.966   .     S
Cu764  N819    2.017   .     S
H773   N820    1.045   .     S
H774   N824    1.045   .     S
H775   N806    1.045   .     S
H776   N806    1.045   .     S
H777   N807    1.045   .     S
H778   N807    1.045   .     S
H779   N808    1.045   .     S
H780   N808    1.045   .     S
H781   N809    1.045   .     S
H782   N809    1.044   .     S
H783   N810    1.045   .     S
H784   N820    1.044   .     S
H785   N810    1.044   .     S
H786   N811    1.045   .     S
H787   N811    1.045   .     S
H788   N812    1.045   .     S
H789   N812    1.045   .     S
H790   N813    1.045   .     S
H791   N813    1.045   .     S
H792   N814    1.045   .     S
H793   N814    1.045   .     S
H794   N815    1.045   .     S
H795   N821    1.045   .     S
H796   N815    1.045   .     S
H797   N817    1.045   .     S
H798   N817    1.045   .     S
H799   N821    1.044   .     S
H800   N822    1.045   .     S
H801   N822    1.045   .     S
H802   N823    1.045   .     S
H803   N823    1.045   .     S
H804   N824    1.045   .     S
N805   C842    1.368   1_455 A
N816   C843    1.368   1_455 S
O828   Cu524   1.963   1_565 S
O829   Cu524   1.969   1_565 S
O832   Cu523   1.966   1_565 S
O833   Cu882   1.960   .     S
O834   Cu881   1.963   .     S
O836   Cu882   1.969   .     S
O839   Cu881   1.966   .     S
O840   Cu523   1.960   1_565 S
C841   C870    1.448   .     S
C841   O945    1.290   .     A
C841   O955    1.291   .     A
C842   F886    1.352   .     S
C842   N805    1.368   1_655 A
C842   C1323   1.417   .     S
C843   F887    1.355   .     S
C843   N816    1.368   1_655 S
C844   F888    1.355   .     S
C844   C1360   1.417   .     S
C844   N925    1.368   .     S
C845   N699    1.368   1_565 A
C845   F889    1.352   .     S
C846   N938    1.368   .     A
C846   F890    1.352   .     S
C846   C1327   1.417   .     S
C847   F891    1.355   .     S
C847   N939    1.368   .     S
C848   F892    1.355   .     S
C848   C1325   1.417   .     S
C848   N698    1.368   1_565 S
C849   C860    1.401   .     A
C849   N940    1.435   .     S
C849   C868    1.407   .     A
C850   C867    1.407   .     A
C850   N941    1.435   .     S
C850   C861    1.401   .     A
C851   C858    1.401   .     A
C851   C867    1.406   .     A
C851   N942    1.437   .     S
C852   C869    1.448   .     S
C852   O954    1.291   .     A
C852   O953    1.290   .     A
C853   C868    1.406   .     A
C853   N943    1.437   .     S
C853   C859    1.401   .     A
C854   C870    1.404   .     A
C854   N944    1.437   .     S
C854   C865    1.401   .     A
C855   C869    1.404   .     A
C855   C866    1.401   .     A
C855   N926    1.437   .     S
C856   N927    1.434   .     S
C856   C869    1.405   .     A
C856   C862    1.401   .     A
C857   N928    1.434   .     S
C857   C870    1.405   .     A
C857   C864    1.401   .     A
C858   C872    1.407   .     A
C858   N929    1.435   .     S
C859   C871    1.407   .     A
C859   N930    1.435   .     S
C860   N931    1.437   .     S
C860   C871    1.406   .     A
C861   C872    1.406   .     A
C861   N932    1.437   .     S
C862   C875    1.404   .     A
C862   N933    1.437   .     S
C863   O959    1.292   .     A
C863   O956    1.292   .     A
C863   C868    1.453   .     S
C864   N934    1.437   .     S
C864   C873    1.404   .     A
C865   N935    1.434   .     S
C865   C873    1.405   .     A
C866   C875    1.405   .     A
C866   N937    1.434   .     S
C867   C874    1.453   .     S
C871   C879    1.453   .     S
C872   C878    1.453   .     S
C873   C877    1.448   .     S
C874   O958    1.292   .     A
C874   O957    1.292   .     A
C875   C876    1.448   .     S
C876   O948    1.291   .     A
C876   O960    1.290   .     A
C877   O947    1.291   .     A
C877   O946    1.290   .     A
C878   O949    1.292   .     A
C878   O952    1.292   .     A
C879   O950    1.292   .     A
C879   O951    1.292   .     A
C880   N936    1.368   .     A
C880   F885    1.352   .     S
Cu881  Cu882   2.684   .     S
Cu881  O945    1.960   .     S
Cu881  O957    1.969   .     S
Cu881  N925    2.017   .     S
Cu882  N936    2.017   .     S
Cu882  O958    1.966   .     S
Cu882  O955    1.963   .     S
Cu883  N938    2.017   .     S
Cu883  O950    1.969   .     S
Cu883  Cu884   2.684   .     S
Cu883  O947    1.963   .     S
Cu884  O946    1.960   .     S
Cu884  O951    1.966   .     S
Cu884  N939    2.017   .     S
H893   N940    1.045   .     S
H894   N944    1.045   .     S
H895   N926    1.045   .     S
H896   N926    1.045   .     S
H897   N927    1.045   .     S
H898   N927    1.045   .     S
H899   N928    1.045   .     S
H900   N928    1.045   .     S
H901   N929    1.045   .     S
H902   N929    1.044   .     S
H903   N930    1.045   .     S
H904   N940    1.044   .     S
H905   N930    1.044   .     S
H906   N931    1.045   .     S
H907   N931    1.045   .     S
H908   N932    1.045   .     S
H909   N932    1.045   .     S
H910   N933    1.045   .     S
H911   N933    1.045   .     S
H912   N934    1.045   .     S
H913   N934    1.045   .     S
H914   N935    1.045   .     S
H915   N941    1.045   .     S
H916   N935    1.045   .     S
H917   N937    1.045   .     S
H918   N937    1.045   .     S
H919   N941    1.044   .     S
H920   N942    1.045   .     S
H921   N942    1.045   .     S
H922   N943    1.045   .     S
H923   N943    1.045   .     S
H924   N944    1.045   .     S
O948   Cu644   1.963   1_565 S
O949   Cu644   1.969   1_565 S
O952   Cu643   1.966   1_565 S
O953   Cu762   1.960   1_655 S
O954   Cu761   1.963   1_655 S
O956   Cu762   1.969   1_655 S
O959   Cu761   1.966   1_655 S
O960   Cu643   1.960   1_565 S
C961   C990    1.448   .     S
C961   O1065   1.290   .     A
C961   O1075   1.291   .     A
C962   F1006   1.352   .     S
C962   N1165   1.368   .     A
C962   C3      1.417   1_556 S
C963   F1007   1.355   .     S
C963   N1176   1.368   .     S
C964   F1008   1.355   .     S
C964   C40     1.417   1_556 S
C964   N1045   1.368   .     S
C965   N1299   1.368   .     A
C965   F1009   1.352   .     S
C966   N1058   1.368   .     A
C966   F1010   1.352   .     S
C966   C7      1.417   1_556 S
C967   F1011   1.355   .     S
C967   N1059   1.368   .     S
C968   F1012   1.355   .     S
C968   C5      1.417   1_556 S
C968   N1298   1.368   .     S
C969   C980    1.401   .     A
C969   N1060   1.435   .     S
C969   C988    1.407   .     A
C970   C987    1.407   .     A
C970   N1061   1.435   .     S
C970   C981    1.401   .     A
C971   C978    1.401   .     A
C971   C987    1.406   .     A
C971   N1062   1.437   .     S
C972   C989    1.448   .     S
C972   O1074   1.291   .     A
C972   O1073   1.290   .     A
C973   C988    1.406   .     A
C973   N1063   1.437   .     S
C973   C979    1.401   .     A
C974   C990    1.404   .     A
C974   N1064   1.437   .     S
C974   C985    1.401   .     A
C975   C989    1.404   .     A
C975   C986    1.401   .     A
C975   N1046   1.437   .     S
C976   N1047   1.434   .     S
C976   C989    1.405   .     A
C976   C982    1.401   .     A
C977   N1048   1.434   .     S
C977   C990    1.405   .     A
C977   C984    1.401   .     A
C978   C992    1.407   .     A
C978   N1049   1.435   .     S
C979   C991    1.407   .     A
C979   N1050   1.435   .     S
C980   N1051   1.437   .     S
C980   C991    1.406   .     A
C981   C992    1.406   .     A
C981   N1052   1.437   .     S
C982   C995    1.404   .     A
C982   N1053   1.437   .     S
C983   O1079   1.292   .     A
C983   O1076   1.292   .     A
C983   C988    1.453   .     S
C984   N1054   1.437   .     S
C984   C993    1.404   .     A
C985   N1055   1.434   .     S
C985   C993    1.405   .     A
C986   C995    1.405   .     A
C986   N1057   1.434   .     S
C987   C994    1.453   .     S
C991   C999    1.453   .     S
C992   C998    1.453   .     S
C993   C997    1.448   .     S
C994   O1078   1.292   .     A
C994   O1077   1.292   .     A
C995   C996    1.448   .     S
C996   O1068   1.291   .     A
C996   O1080   1.290   .     A
C997   O1067   1.291   .     A
C997   O1066   1.290   .     A
C998   O1069   1.292   .     A
C998   O1072   1.292   .     A
C999   O1070   1.292   .     A
C999   O1071   1.292   .     A
C1000  N1056   1.368   .     A
C1000  F1005   1.352   .     S
Cu1001 Cu1002  2.684   .     S
Cu1001 O1065   1.960   .     S
Cu1001 O1077   1.969   .     S
Cu1001 N1045   2.017   .     S
Cu1001 O1194   1.963   1_455 S
Cu1001 O1199   1.966   1_455 S
Cu1002 N1056   2.017   .     S
Cu1002 O1078   1.966   .     S
Cu1002 O1075   1.963   .     S
Cu1002 O1193   1.960   1_455 S
Cu1002 O1196   1.969   1_455 S
Cu1003 N1058   2.017   .     S
Cu1003 O1070   1.969   .     S
Cu1003 Cu1004  2.684   .     S
Cu1003 O1067   1.963   .     S
Cu1003 O1312   1.966   1_545 S
Cu1003 O1320   1.960   1_545 S
Cu1004 O1066   1.960   .     S
Cu1004 O1071   1.966   .     S
Cu1004 N1059   2.017   .     S
Cu1004 O1308   1.963   1_545 S
Cu1004 O1309   1.969   1_545 S
H1013  N1060   1.045   .     S
H1014  N1064   1.045   .     S
H1015  N1046   1.045   .     S
H1016  N1046   1.045   .     S
H1017  N1047   1.045   .     S
H1018  N1047   1.045   .     S
H1019  N1048   1.045   .     S
H1020  N1048   1.045   .     S
H1021  N1049   1.045   .     S
H1022  N1049   1.044   .     S
H1023  N1050   1.045   .     S
H1024  N1060   1.044   .     S
H1025  N1050   1.044   .     S
H1026  N1051   1.045   .     S
H1027  N1051   1.045   .     S
H1028  N1052   1.045   .     S
H1029  N1052   1.045   .     S
H1030  N1053   1.045   .     S
H1031  N1053   1.045   .     S
H1032  N1054   1.045   .     S
H1033  N1054   1.045   .     S
H1034  N1055   1.045   .     S
H1035  N1061   1.045   .     S
H1036  N1055   1.045   .     S
H1037  N1057   1.045   .     S
H1038  N1057   1.045   .     S
H1039  N1061   1.044   .     S
H1040  N1062   1.045   .     S
H1041  N1062   1.045   .     S
H1042  N1063   1.045   .     S
H1043  N1063   1.045   .     S
H1044  N1064   1.045   .     S
N1045  C1082   1.368   1_455 A
N1056  C1083   1.368   1_455 S
N1058  C1208   1.368   1_545 S
N1059  C1205   1.368   1_545 A
O1068  Cu1244  1.963   .     S
O1069  Cu1244  1.969   .     S
O1072  Cu1243  1.966   .     S
O1073  Cu1122  1.960   .     S
O1074  Cu1121  1.963   .     S
O1076  Cu1122  1.969   .     S
O1079  Cu1121  1.966   .     S
O1080  Cu1243  1.960   .     S
C1081  C1110   1.448   .     S
C1081  O1185   1.290   .     A
C1081  O1195   1.291   .     A
C1082  F1126   1.352   .     S
C1082  N1045   1.368   1_655 A
C1082  C123    1.417   1_556 S
C1083  F1127   1.355   .     S
C1083  N1056   1.368   1_655 S
C1084  F1128   1.355   .     S
C1084  C160    1.417   1_556 S
C1084  N1165   1.368   .     S
C1085  N1419   1.368   .     A
C1085  F1129   1.352   .     S
C1086  N1178   1.368   .     A
C1086  F1130   1.352   .     S
C1086  C127    1.417   1_556 S
C1087  F1131   1.355   .     S
C1087  N1179   1.368   .     S
C1088  F1132   1.355   .     S
C1088  C125    1.417   1_556 S
C1088  N1418   1.368   .     S
C1089  C1100   1.401   .     A
C1089  N1180   1.435   .     S
C1089  C1108   1.407   .     A
C1090  C1107   1.407   .     A
C1090  N1181   1.435   .     S
C1090  C1101   1.401   .     A
C1091  C1098   1.401   .     A
C1091  C1107   1.406   .     A
C1091  N1182   1.437   .     S
C1092  C1109   1.448   .     S
C1092  O1194   1.291   .     A
C1092  O1193   1.290   .     A
C1093  C1108   1.406   .     A
C1093  N1183   1.437   .     S
C1093  C1099   1.401   .     A
C1094  C1110   1.404   .     A
C1094  N1184   1.437   .     S
C1094  C1105   1.401   .     A
C1095  C1109   1.404   .     A
C1095  C1106   1.401   .     A
C1095  N1166   1.437   .     S
C1096  N1167   1.434   .     S
C1096  C1109   1.405   .     A
C1096  C1102   1.401   .     A
C1097  N1168   1.434   .     S
C1097  C1110   1.405   .     A
C1097  C1104   1.401   .     A
C1098  C1112   1.407   .     A
C1098  N1169   1.435   .     S
C1099  C1111   1.407   .     A
C1099  N1170   1.435   .     S
C1100  N1171   1.437   .     S
C1100  C1111   1.406   .     A
C1101  C1112   1.406   .     A
C1101  N1172   1.437   .     S
C1102  C1115   1.404   .     A
C1102  N1173   1.437   .     S
C1103  O1199   1.292   .     A
C1103  O1196   1.292   .     A
C1103  C1108   1.453   .     S
C1104  N1174   1.437   .     S
C1104  C1113   1.404   .     A
C1105  N1175   1.434   .     S
C1105  C1113   1.405   .     A
C1106  C1115   1.405   .     A
C1106  N1177   1.434   .     S
C1107  C1114   1.453   .     S
C1111  C1119   1.453   .     S
C1112  C1118   1.453   .     S
C1113  C1117   1.448   .     S
C1114  O1198   1.292   .     A
C1114  O1197   1.292   .     A
C1115  C1116   1.448   .     S
C1116  O1188   1.291   .     A
C1116  O1200   1.290   .     A
C1117  O1187   1.291   .     A
C1117  O1186   1.290   .     A
C1118  O1189   1.292   .     A
C1118  O1192   1.292   .     A
C1119  O1190   1.292   .     A
C1119  O1191   1.292   .     A
C1120  N1176   1.368   .     A
C1120  F1125   1.352   .     S
Cu1121 Cu1122  2.684   .     S
Cu1121 O1185   1.960   .     S
Cu1121 O1197   1.969   .     S
Cu1121 N1165   2.017   .     S
Cu1122 N1176   2.017   .     S
Cu1122 O1198   1.966   .     S
Cu1122 O1195   1.963   .     S
Cu1123 N1178   2.017   .     S
Cu1123 O1190   1.969   .     S
Cu1123 Cu1124  2.684   .     S
Cu1123 O1187   1.963   .     S
Cu1123 O1432   1.966   1_545 S
Cu1123 O1440   1.960   1_545 S
Cu1124 O1186   1.960   .     S
Cu1124 O1191   1.966   .     S
Cu1124 N1179   2.017   .     S
Cu1124 O1428   1.963   1_545 S
Cu1124 O1429   1.969   1_545 S
H1133  N1180   1.045   .     S
H1134  N1184   1.045   .     S
H1135  N1166   1.045   .     S
H1136  N1166   1.045   .     S
H1137  N1167   1.045   .     S
H1138  N1167   1.045   .     S
H1139  N1168   1.045   .     S
H1140  N1168   1.045   .     S
H1141  N1169   1.045   .     S
H1142  N1169   1.044   .     S
H1143  N1170   1.045   .     S
H1144  N1180   1.044   .     S
H1145  N1170   1.044   .     S
H1146  N1171   1.045   .     S
H1147  N1171   1.045   .     S
H1148  N1172   1.045   .     S
H1149  N1172   1.045   .     S
H1150  N1173   1.045   .     S
H1151  N1173   1.045   .     S
H1152  N1174   1.045   .     S
H1153  N1174   1.045   .     S
H1154  N1175   1.045   .     S
H1155  N1181   1.045   .     S
H1156  N1175   1.045   .     S
H1157  N1177   1.045   .     S
H1158  N1177   1.045   .     S
H1159  N1181   1.044   .     S
H1160  N1182   1.045   .     S
H1161  N1182   1.045   .     S
H1162  N1183   1.045   .     S
H1163  N1183   1.045   .     S
H1164  N1184   1.045   .     S
N1178  C1328   1.368   1_545 S
N1179  C1325   1.368   1_545 A
O1188  Cu1364  1.963   .     S
O1189  Cu1364  1.969   .     S
O1192  Cu1363  1.966   .     S
O1193  Cu1002  1.960   1_655 S
O1194  Cu1001  1.963   1_655 S
O1196  Cu1002  1.969   1_655 S
O1199  Cu1001  1.966   1_655 S
O1200  Cu1363  1.960   .     S
C1201  C1230   1.448   .     S
C1201  O1305   1.290   .     A
C1201  O1315   1.291   .     A
C1202  F1246   1.352   .     S
C1202  N1405   1.368   .     A
C1202  C243    1.417   1_556 S
C1203  F1247   1.355   .     S
C1203  N1416   1.368   .     S
C1204  F1248   1.355   .     S
C1204  C280    1.417   1_556 S
C1204  N1285   1.368   .     S
C1205  N1059   1.368   1_565 A
C1205  F1249   1.352   .     S
C1206  N1298   1.368   .     A
C1206  F1250   1.352   .     S
C1206  C247    1.417   1_556 S
C1207  F1251   1.355   .     S
C1207  N1299   1.368   .     S
C1208  F1252   1.355   .     S
C1208  C245    1.417   1_556 S
C1208  N1058   1.368   1_565 S
C1209  C1220   1.401   .     A
C1209  N1300   1.435   .     S
C1209  C1228   1.407   .     A
C1210  C1227   1.407   .     A
C1210  N1301   1.435   .     S
C1210  C1221   1.401   .     A
C1211  C1218   1.401   .     A
C1211  C1227   1.406   .     A
C1211  N1302   1.437   .     S
C1212  C1229   1.448   .     S
C1212  O1314   1.291   .     A
C1212  O1313   1.290   .     A
C1213  C1228   1.406   .     A
C1213  N1303   1.437   .     S
C1213  C1219   1.401   .     A
C1214  C1230   1.404   .     A
C1214  N1304   1.437   .     S
C1214  C1225   1.401   .     A
C1215  C1229   1.404   .     A
C1215  C1226   1.401   .     A
C1215  N1286   1.437   .     S
C1216  N1287   1.434   .     S
C1216  C1229   1.405   .     A
C1216  C1222   1.401   .     A
C1217  N1288   1.434   .     S
C1217  C1230   1.405   .     A
C1217  C1224   1.401   .     A
C1218  C1232   1.407   .     A
C1218  N1289   1.435   .     S
C1219  C1231   1.407   .     A
C1219  N1290   1.435   .     S
C1220  N1291   1.437   .     S
C1220  C1231   1.406   .     A
C1221  C1232   1.406   .     A
C1221  N1292   1.437   .     S
C1222  C1235   1.404   .     A
C1222  N1293   1.437   .     S
C1223  O1319   1.292   .     A
C1223  O1316   1.292   .     A
C1223  C1228   1.453   .     S
C1224  N1294   1.437   .     S
C1224  C1233   1.404   .     A
C1225  N1295   1.434   .     S
C1225  C1233   1.405   .     A
C1226  C1235   1.405   .     A
C1226  N1297   1.434   .     S
C1227  C1234   1.453   .     S
C1231  C1239   1.453   .     S
C1232  C1238   1.453   .     S
C1233  C1237   1.448   .     S
C1234  O1318   1.292   .     A
C1234  O1317   1.292   .     A
C1235  C1236   1.448   .     S
C1236  O1308   1.291   .     A
C1236  O1320   1.290   .     A
C1237  O1307   1.291   .     A
C1237  O1306   1.290   .     A
C1238  O1309   1.292   .     A
C1238  O1312   1.292   .     A
C1239  O1310   1.292   .     A
C1239  O1311   1.292   .     A
C1240  N1296   1.368   .     A
C1240  F1245   1.352   .     S
Cu1241 Cu1242  2.684   .     S
Cu1241 O1305   1.960   .     S
Cu1241 O1317   1.969   .     S
Cu1241 N1285   2.017   .     S
Cu1241 O1434   1.963   1_455 S
Cu1241 O1439   1.966   1_455 S
Cu1242 N1296   2.017   .     S
Cu1242 O1318   1.966   .     S
Cu1242 O1315   1.963   .     S
Cu1242 O1433   1.960   1_455 S
Cu1242 O1436   1.969   1_455 S
Cu1243 N1298   2.017   .     S
Cu1243 O1310   1.969   .     S
Cu1243 Cu1244  2.684   .     S
Cu1243 O1307   1.963   .     S
Cu1244 O1306   1.960   .     S
Cu1244 O1311   1.966   .     S
Cu1244 N1299   2.017   .     S
H1253  N1300   1.045   .     S
H1254  N1304   1.045   .     S
H1255  N1286   1.045   .     S
H1256  N1286   1.045   .     S
H1257  N1287   1.045   .     S
H1258  N1287   1.045   .     S
H1259  N1288   1.045   .     S
H1260  N1288   1.045   .     S
H1261  N1289   1.045   .     S
H1262  N1289   1.044   .     S
H1263  N1290   1.045   .     S
H1264  N1300   1.044   .     S
H1265  N1290   1.044   .     S
H1266  N1291   1.045   .     S
H1267  N1291   1.045   .     S
H1268  N1292   1.045   .     S
H1269  N1292   1.045   .     S
H1270  N1293   1.045   .     S
H1271  N1293   1.045   .     S
H1272  N1294   1.045   .     S
H1273  N1294   1.045   .     S
H1274  N1295   1.045   .     S
H1275  N1301   1.045   .     S
H1276  N1295   1.045   .     S
H1277  N1297   1.045   .     S
H1278  N1297   1.045   .     S
H1279  N1301   1.044   .     S
H1280  N1302   1.045   .     S
H1281  N1302   1.045   .     S
H1282  N1303   1.045   .     S
H1283  N1303   1.045   .     S
H1284  N1304   1.045   .     S
N1285  C1322   1.368   1_455 A
N1296  C1323   1.368   1_455 S
O1308  Cu1004  1.963   1_565 S
O1309  Cu1004  1.969   1_565 S
O1312  Cu1003  1.966   1_565 S
O1313  Cu1362  1.960   .     S
O1314  Cu1361  1.963   .     S
O1316  Cu1362  1.969   .     S
O1319  Cu1361  1.966   .     S
O1320  Cu1003  1.960   1_565 S
C1321  C1350   1.448   .     S
C1321  O1425   1.290   .     A
C1321  O1435   1.291   .     A
C1322  F1366   1.352   .     S
C1322  N1285   1.368   1_655 A
C1322  C363    1.417   1_556 S
C1323  F1367   1.355   .     S
C1323  N1296   1.368   1_655 S
C1324  F1368   1.355   .     S
C1324  C400    1.417   1_556 S
C1324  N1405   1.368   .     S
C1325  N1179   1.368   1_565 A
C1325  F1369   1.352   .     S
C1326  N1418   1.368   .     A
C1326  F1370   1.352   .     S
C1326  C367    1.417   1_556 S
C1327  F1371   1.355   .     S
C1327  N1419   1.368   .     S
C1328  F1372   1.355   .     S
C1328  C365    1.417   1_556 S
C1328  N1178   1.368   1_565 S
C1329  C1340   1.401   .     A
C1329  N1420   1.435   .     S
C1329  C1348   1.407   .     A
C1330  C1347   1.407   .     A
C1330  N1421   1.435   .     S
C1330  C1341   1.401   .     A
C1331  C1338   1.401   .     A
C1331  C1347   1.406   .     A
C1331  N1422   1.437   .     S
C1332  C1349   1.448   .     S
C1332  O1434   1.291   .     A
C1332  O1433   1.290   .     A
C1333  C1348   1.406   .     A
C1333  N1423   1.437   .     S
C1333  C1339   1.401   .     A
C1334  C1350   1.404   .     A
C1334  N1424   1.437   .     S
C1334  C1345   1.401   .     A
C1335  C1349   1.404   .     A
C1335  C1346   1.401   .     A
C1335  N1406   1.437   .     S
C1336  N1407   1.434   .     S
C1336  C1349   1.405   .     A
C1336  C1342   1.401   .     A
C1337  N1408   1.434   .     S
C1337  C1350   1.405   .     A
C1337  C1344   1.401   .     A
C1338  C1352   1.407   .     A
C1338  N1409   1.435   .     S
C1339  C1351   1.407   .     A
C1339  N1410   1.435   .     S
C1340  N1411   1.437   .     S
C1340  C1351   1.406   .     A
C1341  C1352   1.406   .     A
C1341  N1412   1.437   .     S
C1342  C1355   1.404   .     A
C1342  N1413   1.437   .     S
C1343  O1439   1.292   .     A
C1343  O1436   1.292   .     A
C1343  C1348   1.453   .     S
C1344  N1414   1.437   .     S
C1344  C1353   1.404   .     A
C1345  N1415   1.434   .     S
C1345  C1353   1.405   .     A
C1346  C1355   1.405   .     A
C1346  N1417   1.434   .     S
C1347  C1354   1.453   .     S
C1351  C1359   1.453   .     S
C1352  C1358   1.453   .     S
C1353  C1357   1.448   .     S
C1354  O1438   1.292   .     A
C1354  O1437   1.292   .     A
C1355  C1356   1.448   .     S
C1356  O1428   1.291   .     A
C1356  O1440   1.290   .     A
C1357  O1427   1.291   .     A
C1357  O1426   1.290   .     A
C1358  O1429   1.292   .     A
C1358  O1432   1.292   .     A
C1359  O1430   1.292   .     A
C1359  O1431   1.292   .     A
C1360  N1416   1.368   .     A
C1360  F1365   1.352   .     S
Cu1361 Cu1362  2.684   .     S
Cu1361 O1425   1.960   .     S
Cu1361 O1437   1.969   .     S
Cu1361 N1405   2.017   .     S
Cu1362 N1416   2.017   .     S
Cu1362 O1438   1.966   .     S
Cu1362 O1435   1.963   .     S
Cu1363 N1418   2.017   .     S
Cu1363 O1430   1.969   .     S
Cu1363 Cu1364  2.684   .     S
Cu1363 O1427   1.963   .     S
Cu1364 O1426   1.960   .     S
Cu1364 O1431   1.966   .     S
Cu1364 N1419   2.017   .     S
H1373  N1420   1.045   .     S
H1374  N1424   1.045   .     S
H1375  N1406   1.045   .     S
H1376  N1406   1.045   .     S
H1377  N1407   1.045   .     S
H1378  N1407   1.045   .     S
H1379  N1408   1.045   .     S
H1380  N1408   1.045   .     S
H1381  N1409   1.045   .     S
H1382  N1409   1.044   .     S
H1383  N1410   1.045   .     S
H1384  N1420   1.044   .     S
H1385  N1410   1.044   .     S
H1386  N1411   1.045   .     S
H1387  N1411   1.045   .     S
H1388  N1412   1.045   .     S
H1389  N1412   1.045   .     S
H1390  N1413   1.045   .     S
H1391  N1413   1.045   .     S
H1392  N1414   1.045   .     S
H1393  N1414   1.045   .     S
H1394  N1415   1.045   .     S
H1395  N1421   1.045   .     S
H1396  N1415   1.045   .     S
H1397  N1417   1.045   .     S
H1398  N1417   1.045   .     S
H1399  N1421   1.044   .     S
H1400  N1422   1.045   .     S
H1401  N1422   1.045   .     S
H1402  N1423   1.045   .     S
H1403  N1423   1.045   .     S
H1404  N1424   1.045   .     S
O1428  Cu1124  1.963   1_565 S
O1429  Cu1124  1.969   1_565 S
O1432  Cu1123  1.966   1_565 S
O1433  Cu1242  1.960   1_655 S
O1434  Cu1241  1.963   1_655 S
O1436  Cu1242  1.969   1_655 S
O1439  Cu1241  1.966   1_655 S
O1440  Cu1123  1.960   1_565 S
