data_str_m2_o10_o18_pcu_sym.146
_audit_creation_date              2020-01-03
_audit_creation_method            'Materials Studio'
_symmetry_space_group_name_H-M    'P1'
_symmetry_Int_Tables_number       1
_symmetry_cell_setting            triclinic
loop_
_symmetry_equiv_pos_as_xyz
  x,y,z
_cell_length_a                    22.4596
_cell_length_b                    26.2021
_cell_length_c                    31.5434
_cell_angle_alpha                 95.4234
_cell_angle_beta                  75.4179
_cell_angle_gamma                 103.1603
loop_
_atom_site_label
_atom_site_type_symbol
_atom_site_fract_x
_atom_site_fract_y
_atom_site_fract_z
_atom_site_U_iso_or_equiv
_atom_site_adp_type
_atom_site_occupancy
C1     C     0.18111   0.26649   0.25181   0.00000  Uiso   1.00
C2     C     0.15222   0.06684   0.24819   0.00000  Uiso   1.00
C3     C     0.10088   0.11895   0.03426   0.00000  Uiso   1.00
C4     C     0.23246   0.21438   0.46574   0.00000  Uiso   1.00
C5     C     0.05424   0.11168   0.01070   0.00000  Uiso   1.00
C6     C     0.27909   0.22165   0.48930   0.00000  Uiso   1.00
C7     C     0.18471   0.32167   0.25855   0.00000  Uiso   1.00
C8     C     0.14862   0.01167   0.24145   0.00000  Uiso   1.00
C9     C     0.12834   0.16273   0.33307   0.00000  Uiso   1.00
C10    C     0.20500   0.17061   0.16693   0.00000  Uiso   1.00
C11    C     0.10542   0.15777   0.38071   0.00000  Uiso   1.00
C12    C     0.22791   0.17557   0.11929   0.00000  Uiso   1.00
C13    C     0.02317   0.12819   0.44445   0.00000  Uiso   1.00
C14    C     0.31016   0.20514   0.05555   0.00000  Uiso   1.00
C15    C     0.04155   0.14087   0.40043   0.00000  Uiso   1.00
C16    C     0.29178   0.19246   0.09957   0.00000  Uiso   1.00
C17    C     0.14930   0.16737   0.40656   0.00000  Uiso   1.00
C18    C     0.18403   0.16596   0.09344   0.00000  Uiso   1.00
C19    C     0.13079   0.16157   0.45194   0.00000  Uiso   1.00
C20    C     0.20254   0.17176   0.04806   0.00000  Uiso   1.00
C21    C     0.06835   0.13463   0.46971   0.00000  Uiso   1.00
C22    C     0.26498   0.19870   0.03029   0.00000  Uiso   1.00
C23    C     0.17445   0.17728   0.47892   0.00000  Uiso   1.00
C24    C     0.15888   0.15605   0.02108   0.00000  Uiso   1.00
Cu25   Cu    0.10737   0.16108   0.24517   0.00000  Uiso   1.00
Cu26   Cu    0.22596   0.17225   0.25484   0.00000  Uiso   1.00
H27    H     0.13458   0.15712   0.10937   0.00000  Uiso   1.00
H28    H     0.19875   0.17621   0.39063   0.00000  Uiso   1.00
H29    H     0.32693   0.19916   0.11867   0.00000  Uiso   1.00
H30    H     0.00641   0.13418   0.38133   0.00000  Uiso   1.00
H31    H     0.30708   0.11254   0.45801   0.00000  Uiso   1.00
H32    H     0.02625   0.22079   0.04199   0.00000  Uiso   1.00
N33    N     0.31506   0.18068   0.26212   0.00000  Uiso   1.00
N34    N     0.01827   0.15265   0.23788   0.00000  Uiso   1.00
O35    O     0.12815   0.23809   0.24686   0.00000  Uiso   1.00
O36    O     0.20518   0.09524   0.25314   0.00000  Uiso   1.00
O37    O     0.22829   0.24753   0.25503   0.00000  Uiso   1.00
O38    O     0.10504   0.08580   0.24498   0.00000  Uiso   1.00
O39    O     0.08851   0.15930   0.30855   0.00000  Uiso   1.00
O40    O     0.24482   0.17403   0.19146   0.00000  Uiso   1.00
O41    O     0.18866   0.16874   0.31671   0.00000  Uiso   1.00
O42    O     0.14468   0.16460   0.18329   0.00000  Uiso   1.00
O43    O     0.33072   0.07827   0.02729   0.00000  Uiso   1.00
H44    H     0.31473   0.05843   0.00273   0.00000  Uiso   1.00
O45    O     0.00262   0.25506   0.47271   0.00000  Uiso   1.00
H46    H     0.01861   0.27490   0.49727   0.00000  Uiso   1.00
Cl47   Cl    0.08895   0.07149   0.07387   0.00000  Uiso   1.00
Cl48   Cl    0.24439   0.26184   0.42613   0.00000  Uiso   1.00
Cl49   Cl    0.23031   0.01972   0.29601   0.00000  Uiso   1.00
Cl50   Cl    0.10302   0.31362   0.20399   0.00000  Uiso   1.00
Cl51   Cl    0.00572   0.22240   0.30320   0.00000  Uiso   1.00
Cl52   Cl    0.32761   0.11093   0.19680   0.00000  Uiso   1.00
C53    C     0.51444   0.26649   0.25181   0.00000  Uiso   1.00
C54    C     0.48556   0.06684   0.24819   0.00000  Uiso   1.00
C55    C     0.43421   0.11895   0.03426   0.00000  Uiso   1.00
C56    C     0.56579   0.21438   0.46574   0.00000  Uiso   1.00
C57    C     0.38757   0.11168   0.01070   0.00000  Uiso   1.00
C58    C     0.61243   0.22165   0.48930   0.00000  Uiso   1.00
C59    C     0.51804   0.32167   0.25855   0.00000  Uiso   1.00
C60    C     0.48196   0.01167   0.24145   0.00000  Uiso   1.00
C61    C     0.46167   0.16273   0.33307   0.00000  Uiso   1.00
C62    C     0.53833   0.17061   0.16693   0.00000  Uiso   1.00
C63    C     0.43876   0.15777   0.38071   0.00000  Uiso   1.00
C64    C     0.56124   0.17557   0.11929   0.00000  Uiso   1.00
C65    C     0.35651   0.12819   0.44445   0.00000  Uiso   1.00
C66    C     0.64349   0.20514   0.05555   0.00000  Uiso   1.00
C67    C     0.37488   0.14087   0.40043   0.00000  Uiso   1.00
C68    C     0.62512   0.19246   0.09957   0.00000  Uiso   1.00
C69    C     0.48264   0.16737   0.40656   0.00000  Uiso   1.00
C70    C     0.51736   0.16596   0.09344   0.00000  Uiso   1.00
C71    C     0.46413   0.16157   0.45194   0.00000  Uiso   1.00
C72    C     0.53587   0.17176   0.04806   0.00000  Uiso   1.00
C73    C     0.40169   0.13463   0.46971   0.00000  Uiso   1.00
C74    C     0.59831   0.19870   0.03029   0.00000  Uiso   1.00
C75    C     0.50778   0.17728   0.47892   0.00000  Uiso   1.00
C76    C     0.49222   0.15605   0.02108   0.00000  Uiso   1.00
Cu77   Cu    0.44071   0.16108   0.24517   0.00000  Uiso   1.00
Cu78   Cu    0.55929   0.17225   0.25484   0.00000  Uiso   1.00
H79    H     0.46791   0.15712   0.10937   0.00000  Uiso   1.00
H80    H     0.53209   0.17621   0.39063   0.00000  Uiso   1.00
H81    H     0.66026   0.19916   0.11867   0.00000  Uiso   1.00
H82    H     0.33974   0.13418   0.38133   0.00000  Uiso   1.00
H83    H     0.64042   0.11254   0.45801   0.00000  Uiso   1.00
H84    H     0.35958   0.22079   0.04199   0.00000  Uiso   1.00
N85    N     0.64839   0.18068   0.26212   0.00000  Uiso   1.00
N86    N     0.35161   0.15265   0.23788   0.00000  Uiso   1.00
O87    O     0.46148   0.23809   0.24686   0.00000  Uiso   1.00
O88    O     0.53852   0.09524   0.25314   0.00000  Uiso   1.00
O89    O     0.56163   0.24753   0.25503   0.00000  Uiso   1.00
O90    O     0.43837   0.08580   0.24498   0.00000  Uiso   1.00
O91    O     0.42185   0.15930   0.30855   0.00000  Uiso   1.00
O92    O     0.57815   0.17403   0.19146   0.00000  Uiso   1.00
O93    O     0.52199   0.16874   0.31671   0.00000  Uiso   1.00
O94    O     0.47801   0.16460   0.18329   0.00000  Uiso   1.00
O95    O     0.66405   0.07827   0.02729   0.00000  Uiso   1.00
H96    H     0.64806   0.05843   0.00273   0.00000  Uiso   1.00
O97    O     0.33595   0.25506   0.47271   0.00000  Uiso   1.00
H98    H     0.35194   0.27490   0.49727   0.00000  Uiso   1.00
Cl99   Cl    0.42228   0.07149   0.07387   0.00000  Uiso   1.00
Cl100  Cl    0.57772   0.26184   0.42613   0.00000  Uiso   1.00
Cl101  Cl    0.56364   0.01972   0.29601   0.00000  Uiso   1.00
Cl102  Cl    0.43635   0.31362   0.20399   0.00000  Uiso   1.00
Cl103  Cl    0.33906   0.22240   0.30320   0.00000  Uiso   1.00
Cl104  Cl    0.66094   0.11093   0.19680   0.00000  Uiso   1.00
C105   C     0.84778   0.26649   0.25181   0.00000  Uiso   1.00
C106   C     0.81889   0.06684   0.24819   0.00000  Uiso   1.00
C107   C     0.76754   0.11895   0.03426   0.00000  Uiso   1.00
C108   C     0.89912   0.21438   0.46574   0.00000  Uiso   1.00
C109   C     0.72091   0.11168   0.01070   0.00000  Uiso   1.00
C110   C     0.94576   0.22165   0.48930   0.00000  Uiso   1.00
C111   C     0.85138   0.32167   0.25855   0.00000  Uiso   1.00
C112   C     0.81529   0.01167   0.24145   0.00000  Uiso   1.00
C113   C     0.79500   0.16273   0.33307   0.00000  Uiso   1.00
C114   C     0.87166   0.17061   0.16693   0.00000  Uiso   1.00
C115   C     0.77209   0.15777   0.38071   0.00000  Uiso   1.00
C116   C     0.89458   0.17557   0.11929   0.00000  Uiso   1.00
C117   C     0.68984   0.12819   0.44445   0.00000  Uiso   1.00
C118   C     0.97683   0.20514   0.05555   0.00000  Uiso   1.00
C119   C     0.70822   0.14087   0.40043   0.00000  Uiso   1.00
C120   C     0.95845   0.19246   0.09957   0.00000  Uiso   1.00
C121   C     0.81597   0.16737   0.40656   0.00000  Uiso   1.00
C122   C     0.85070   0.16596   0.09344   0.00000  Uiso   1.00
C123   C     0.79746   0.16157   0.45194   0.00000  Uiso   1.00
C124   C     0.86921   0.17176   0.04806   0.00000  Uiso   1.00
C125   C     0.73502   0.13463   0.46971   0.00000  Uiso   1.00
C126   C     0.93165   0.19870   0.03029   0.00000  Uiso   1.00
C127   C     0.84112   0.17728   0.47892   0.00000  Uiso   1.00
C128   C     0.82555   0.15605   0.02108   0.00000  Uiso   1.00
Cu129  Cu    0.77404   0.16108   0.24517   0.00000  Uiso   1.00
Cu130  Cu    0.89263   0.17225   0.25484   0.00000  Uiso   1.00
H131   H     0.80124   0.15712   0.10937   0.00000  Uiso   1.00
H132   H     0.86542   0.17621   0.39063   0.00000  Uiso   1.00
H133   H     0.99359   0.19916   0.11867   0.00000  Uiso   1.00
H134   H     0.67307   0.13418   0.38133   0.00000  Uiso   1.00
H135   H     0.97375   0.11254   0.45801   0.00000  Uiso   1.00
H136   H     0.69292   0.22079   0.04199   0.00000  Uiso   1.00
N137   N     0.98173   0.18068   0.26212   0.00000  Uiso   1.00
N138   N     0.68494   0.15265   0.23788   0.00000  Uiso   1.00
O139   O     0.79482   0.23809   0.24686   0.00000  Uiso   1.00
O140   O     0.87185   0.09524   0.25314   0.00000  Uiso   1.00
O141   O     0.89496   0.24753   0.25503   0.00000  Uiso   1.00
O142   O     0.77171   0.08580   0.24498   0.00000  Uiso   1.00
O143   O     0.75518   0.15930   0.30855   0.00000  Uiso   1.00
O144   O     0.91149   0.17403   0.19146   0.00000  Uiso   1.00
O145   O     0.85532   0.16874   0.31671   0.00000  Uiso   1.00
O146   O     0.81134   0.16460   0.18329   0.00000  Uiso   1.00
O147   O     0.99738   0.07827   0.02729   0.00000  Uiso   1.00
H148   H     0.98140   0.05843   0.00273   0.00000  Uiso   1.00
O149   O     0.66929   0.25506   0.47271   0.00000  Uiso   1.00
H150   H     0.68527   0.27490   0.49727   0.00000  Uiso   1.00
Cl151  Cl    0.75561   0.07149   0.07387   0.00000  Uiso   1.00
Cl152  Cl    0.91106   0.26184   0.42613   0.00000  Uiso   1.00
Cl153  Cl    0.89698   0.01972   0.29601   0.00000  Uiso   1.00
Cl154  Cl    0.76969   0.31362   0.20399   0.00000  Uiso   1.00
Cl155  Cl    0.67239   0.22240   0.30320   0.00000  Uiso   1.00
Cl156  Cl    0.99428   0.11093   0.19680   0.00000  Uiso   1.00
C157   C     0.18111   0.59982   0.25181   0.00000  Uiso   1.00
C158   C     0.15222   0.40018   0.24819   0.00000  Uiso   1.00
C159   C     0.10088   0.45228   0.03426   0.00000  Uiso   1.00
C160   C     0.23246   0.54772   0.46574   0.00000  Uiso   1.00
C161   C     0.05424   0.44501   0.01070   0.00000  Uiso   1.00
C162   C     0.27909   0.55499   0.48930   0.00000  Uiso   1.00
C163   C     0.18471   0.65500   0.25855   0.00000  Uiso   1.00
C164   C     0.14862   0.34500   0.24145   0.00000  Uiso   1.00
C165   C     0.12834   0.49606   0.33307   0.00000  Uiso   1.00
C166   C     0.20500   0.50394   0.16693   0.00000  Uiso   1.00
C167   C     0.10542   0.49110   0.38071   0.00000  Uiso   1.00
C168   C     0.22791   0.50890   0.11929   0.00000  Uiso   1.00
C169   C     0.02317   0.46152   0.44445   0.00000  Uiso   1.00
C170   C     0.31016   0.53847   0.05555   0.00000  Uiso   1.00
C171   C     0.04155   0.47420   0.40043   0.00000  Uiso   1.00
C172   C     0.29178   0.52579   0.09957   0.00000  Uiso   1.00
C173   C     0.14930   0.50070   0.40656   0.00000  Uiso   1.00
C174   C     0.18403   0.49930   0.09344   0.00000  Uiso   1.00
C175   C     0.13079   0.49491   0.45194   0.00000  Uiso   1.00
C176   C     0.20254   0.50509   0.04806   0.00000  Uiso   1.00
C177   C     0.06835   0.46797   0.46971   0.00000  Uiso   1.00
C178   C     0.26498   0.53203   0.03029   0.00000  Uiso   1.00
C179   C     0.17445   0.51062   0.47892   0.00000  Uiso   1.00
C180   C     0.15888   0.48939   0.02108   0.00000  Uiso   1.00
Cu181  Cu    0.10737   0.49441   0.24517   0.00000  Uiso   1.00
Cu182  Cu    0.22596   0.50559   0.25484   0.00000  Uiso   1.00
H183   H     0.13458   0.49045   0.10937   0.00000  Uiso   1.00
H184   H     0.19875   0.50955   0.39063   0.00000  Uiso   1.00
H185   H     0.32693   0.53249   0.11867   0.00000  Uiso   1.00
H186   H     0.00641   0.46751   0.38133   0.00000  Uiso   1.00
H187   H     0.30708   0.44587   0.45801   0.00000  Uiso   1.00
H188   H     0.02625   0.55413   0.04199   0.00000  Uiso   1.00
N189   N     0.31506   0.51401   0.26212   0.00000  Uiso   1.00
N190   N     0.01827   0.48599   0.23788   0.00000  Uiso   1.00
O191   O     0.12815   0.57142   0.24686   0.00000  Uiso   1.00
O192   O     0.20518   0.42858   0.25314   0.00000  Uiso   1.00
O193   O     0.22829   0.58086   0.25503   0.00000  Uiso   1.00
O194   O     0.10504   0.41914   0.24498   0.00000  Uiso   1.00
O195   O     0.08851   0.49263   0.30855   0.00000  Uiso   1.00
O196   O     0.24482   0.50737   0.19146   0.00000  Uiso   1.00
O197   O     0.18866   0.50207   0.31671   0.00000  Uiso   1.00
O198   O     0.14468   0.49793   0.18329   0.00000  Uiso   1.00
O199   O     0.33072   0.41160   0.02729   0.00000  Uiso   1.00
H200   H     0.31473   0.39176   0.00273   0.00000  Uiso   1.00
O201   O     0.00262   0.58840   0.47271   0.00000  Uiso   1.00
H202   H     0.01861   0.60824   0.49727   0.00000  Uiso   1.00
Cl203  Cl    0.08895   0.40483   0.07387   0.00000  Uiso   1.00
Cl204  Cl    0.24439   0.59517   0.42613   0.00000  Uiso   1.00
Cl205  Cl    0.23031   0.35305   0.29601   0.00000  Uiso   1.00
Cl206  Cl    0.10302   0.64695   0.20399   0.00000  Uiso   1.00
Cl207  Cl    0.00572   0.55573   0.30320   0.00000  Uiso   1.00
Cl208  Cl    0.32761   0.44427   0.19680   0.00000  Uiso   1.00
C209   C     0.51444   0.59982   0.25181   0.00000  Uiso   1.00
C210   C     0.48556   0.40018   0.24819   0.00000  Uiso   1.00
C211   C     0.43421   0.45228   0.03426   0.00000  Uiso   1.00
C212   C     0.56579   0.54772   0.46574   0.00000  Uiso   1.00
C213   C     0.38757   0.44501   0.01070   0.00000  Uiso   1.00
C214   C     0.61243   0.55499   0.48930   0.00000  Uiso   1.00
C215   C     0.51804   0.65500   0.25855   0.00000  Uiso   1.00
C216   C     0.48196   0.34500   0.24145   0.00000  Uiso   1.00
C217   C     0.46167   0.49606   0.33307   0.00000  Uiso   1.00
C218   C     0.53833   0.50394   0.16693   0.00000  Uiso   1.00
C219   C     0.43876   0.49110   0.38071   0.00000  Uiso   1.00
C220   C     0.56124   0.50890   0.11929   0.00000  Uiso   1.00
C221   C     0.35651   0.46152   0.44445   0.00000  Uiso   1.00
C222   C     0.64349   0.53847   0.05555   0.00000  Uiso   1.00
C223   C     0.37488   0.47420   0.40043   0.00000  Uiso   1.00
C224   C     0.62512   0.52579   0.09957   0.00000  Uiso   1.00
C225   C     0.48264   0.50070   0.40656   0.00000  Uiso   1.00
C226   C     0.51736   0.49930   0.09344   0.00000  Uiso   1.00
C227   C     0.46413   0.49491   0.45194   0.00000  Uiso   1.00
C228   C     0.53587   0.50509   0.04806   0.00000  Uiso   1.00
C229   C     0.40169   0.46797   0.46971   0.00000  Uiso   1.00
C230   C     0.59831   0.53203   0.03029   0.00000  Uiso   1.00
C231   C     0.50778   0.51062   0.47892   0.00000  Uiso   1.00
C232   C     0.49222   0.48939   0.02108   0.00000  Uiso   1.00
Cu233  Cu    0.44071   0.49441   0.24517   0.00000  Uiso   1.00
Cu234  Cu    0.55929   0.50559   0.25484   0.00000  Uiso   1.00
H235   H     0.46791   0.49045   0.10937   0.00000  Uiso   1.00
H236   H     0.53209   0.50955   0.39063   0.00000  Uiso   1.00
H237   H     0.66026   0.53249   0.11867   0.00000  Uiso   1.00
H238   H     0.33974   0.46751   0.38133   0.00000  Uiso   1.00
H239   H     0.64042   0.44587   0.45801   0.00000  Uiso   1.00
H240   H     0.35958   0.55413   0.04199   0.00000  Uiso   1.00
N241   N     0.64839   0.51401   0.26212   0.00000  Uiso   1.00
N242   N     0.35161   0.48599   0.23788   0.00000  Uiso   1.00
O243   O     0.46148   0.57142   0.24686   0.00000  Uiso   1.00
O244   O     0.53852   0.42858   0.25314   0.00000  Uiso   1.00
O245   O     0.56163   0.58086   0.25503   0.00000  Uiso   1.00
O246   O     0.43837   0.41914   0.24498   0.00000  Uiso   1.00
O247   O     0.42185   0.49263   0.30855   0.00000  Uiso   1.00
O248   O     0.57815   0.50737   0.19146   0.00000  Uiso   1.00
O249   O     0.52199   0.50207   0.31671   0.00000  Uiso   1.00
O250   O     0.47801   0.49793   0.18329   0.00000  Uiso   1.00
O251   O     0.66405   0.41160   0.02729   0.00000  Uiso   1.00
H252   H     0.64806   0.39176   0.00273   0.00000  Uiso   1.00
O253   O     0.33595   0.58840   0.47271   0.00000  Uiso   1.00
H254   H     0.35194   0.60824   0.49727   0.00000  Uiso   1.00
Cl255  Cl    0.42228   0.40483   0.07387   0.00000  Uiso   1.00
Cl256  Cl    0.57772   0.59517   0.42613   0.00000  Uiso   1.00
Cl257  Cl    0.56364   0.35305   0.29601   0.00000  Uiso   1.00
Cl258  Cl    0.43635   0.64695   0.20399   0.00000  Uiso   1.00
Cl259  Cl    0.33906   0.55573   0.30320   0.00000  Uiso   1.00
Cl260  Cl    0.66094   0.44427   0.19680   0.00000  Uiso   1.00
C261   C     0.84778   0.59982   0.25181   0.00000  Uiso   1.00
C262   C     0.81889   0.40018   0.24819   0.00000  Uiso   1.00
C263   C     0.76754   0.45228   0.03426   0.00000  Uiso   1.00
C264   C     0.89912   0.54772   0.46574   0.00000  Uiso   1.00
C265   C     0.72091   0.44501   0.01070   0.00000  Uiso   1.00
C266   C     0.94576   0.55499   0.48930   0.00000  Uiso   1.00
C267   C     0.85138   0.65500   0.25855   0.00000  Uiso   1.00
C268   C     0.81529   0.34500   0.24145   0.00000  Uiso   1.00
C269   C     0.79500   0.49606   0.33307   0.00000  Uiso   1.00
C270   C     0.87166   0.50394   0.16693   0.00000  Uiso   1.00
C271   C     0.77209   0.49110   0.38071   0.00000  Uiso   1.00
C272   C     0.89458   0.50890   0.11929   0.00000  Uiso   1.00
C273   C     0.68984   0.46152   0.44445   0.00000  Uiso   1.00
C274   C     0.97683   0.53847   0.05555   0.00000  Uiso   1.00
C275   C     0.70822   0.47420   0.40043   0.00000  Uiso   1.00
C276   C     0.95845   0.52579   0.09957   0.00000  Uiso   1.00
C277   C     0.81597   0.50070   0.40656   0.00000  Uiso   1.00
C278   C     0.85070   0.49930   0.09344   0.00000  Uiso   1.00
C279   C     0.79746   0.49491   0.45194   0.00000  Uiso   1.00
C280   C     0.86921   0.50509   0.04806   0.00000  Uiso   1.00
C281   C     0.73502   0.46797   0.46971   0.00000  Uiso   1.00
C282   C     0.93165   0.53203   0.03029   0.00000  Uiso   1.00
C283   C     0.84112   0.51062   0.47892   0.00000  Uiso   1.00
C284   C     0.82555   0.48939   0.02108   0.00000  Uiso   1.00
Cu285  Cu    0.77404   0.49441   0.24517   0.00000  Uiso   1.00
Cu286  Cu    0.89263   0.50559   0.25484   0.00000  Uiso   1.00
H287   H     0.80124   0.49045   0.10937   0.00000  Uiso   1.00
H288   H     0.86542   0.50955   0.39063   0.00000  Uiso   1.00
H289   H     0.99359   0.53249   0.11867   0.00000  Uiso   1.00
H290   H     0.67307   0.46751   0.38133   0.00000  Uiso   1.00
H291   H     0.97375   0.44587   0.45801   0.00000  Uiso   1.00
H292   H     0.69292   0.55413   0.04199   0.00000  Uiso   1.00
N293   N     0.98173   0.51401   0.26212   0.00000  Uiso   1.00
N294   N     0.68494   0.48599   0.23788   0.00000  Uiso   1.00
O295   O     0.79482   0.57142   0.24686   0.00000  Uiso   1.00
O296   O     0.87185   0.42858   0.25314   0.00000  Uiso   1.00
O297   O     0.89496   0.58086   0.25503   0.00000  Uiso   1.00
O298   O     0.77171   0.41914   0.24498   0.00000  Uiso   1.00
O299   O     0.75518   0.49263   0.30855   0.00000  Uiso   1.00
O300   O     0.91149   0.50737   0.19146   0.00000  Uiso   1.00
O301   O     0.85532   0.50207   0.31671   0.00000  Uiso   1.00
O302   O     0.81134   0.49793   0.18329   0.00000  Uiso   1.00
O303   O     0.99738   0.41160   0.02729   0.00000  Uiso   1.00
H304   H     0.98140   0.39176   0.00273   0.00000  Uiso   1.00
O305   O     0.66929   0.58840   0.47271   0.00000  Uiso   1.00
H306   H     0.68527   0.60824   0.49727   0.00000  Uiso   1.00
Cl307  Cl    0.75561   0.40483   0.07387   0.00000  Uiso   1.00
Cl308  Cl    0.91106   0.59517   0.42613   0.00000  Uiso   1.00
Cl309  Cl    0.89698   0.35305   0.29601   0.00000  Uiso   1.00
Cl310  Cl    0.76969   0.64695   0.20399   0.00000  Uiso   1.00
Cl311  Cl    0.67239   0.55573   0.30320   0.00000  Uiso   1.00
Cl312  Cl    0.99428   0.44427   0.19680   0.00000  Uiso   1.00
C313   C     0.18111   0.93316   0.25181   0.00000  Uiso   1.00
C314   C     0.15222   0.73351   0.24819   0.00000  Uiso   1.00
C315   C     0.10088   0.78562   0.03426   0.00000  Uiso   1.00
C316   C     0.23246   0.88105   0.46574   0.00000  Uiso   1.00
C317   C     0.05424   0.77835   0.01070   0.00000  Uiso   1.00
C318   C     0.27909   0.88832   0.48930   0.00000  Uiso   1.00
C319   C     0.18471   0.98833   0.25855   0.00000  Uiso   1.00
C320   C     0.14862   0.67833   0.24145   0.00000  Uiso   1.00
C321   C     0.12834   0.82939   0.33307   0.00000  Uiso   1.00
C322   C     0.20500   0.83727   0.16693   0.00000  Uiso   1.00
C323   C     0.10542   0.82443   0.38071   0.00000  Uiso   1.00
C324   C     0.22791   0.84224   0.11929   0.00000  Uiso   1.00
C325   C     0.02317   0.79486   0.44445   0.00000  Uiso   1.00
C326   C     0.31016   0.87181   0.05555   0.00000  Uiso   1.00
C327   C     0.04155   0.80754   0.40043   0.00000  Uiso   1.00
C328   C     0.29178   0.85913   0.09957   0.00000  Uiso   1.00
C329   C     0.14930   0.83404   0.40656   0.00000  Uiso   1.00
C330   C     0.18403   0.83263   0.09344   0.00000  Uiso   1.00
C331   C     0.13079   0.82824   0.45194   0.00000  Uiso   1.00
C332   C     0.20254   0.83843   0.04806   0.00000  Uiso   1.00
C333   C     0.06835   0.80130   0.46971   0.00000  Uiso   1.00
C334   C     0.26498   0.86537   0.03029   0.00000  Uiso   1.00
C335   C     0.17445   0.84395   0.47892   0.00000  Uiso   1.00
C336   C     0.15888   0.82272   0.02108   0.00000  Uiso   1.00
Cu337  Cu    0.10737   0.82775   0.24517   0.00000  Uiso   1.00
Cu338  Cu    0.22596   0.83892   0.25484   0.00000  Uiso   1.00
H339   H     0.13458   0.82379   0.10937   0.00000  Uiso   1.00
H340   H     0.19875   0.84288   0.39063   0.00000  Uiso   1.00
H341   H     0.32693   0.86582   0.11867   0.00000  Uiso   1.00
H342   H     0.00641   0.80084   0.38133   0.00000  Uiso   1.00
H343   H     0.30708   0.77920   0.45801   0.00000  Uiso   1.00
H344   H     0.02625   0.88746   0.04199   0.00000  Uiso   1.00
N345   N     0.31506   0.84735   0.26212   0.00000  Uiso   1.00
N346   N     0.01827   0.81932   0.23788   0.00000  Uiso   1.00
O347   O     0.12815   0.90476   0.24686   0.00000  Uiso   1.00
O348   O     0.20518   0.76191   0.25314   0.00000  Uiso   1.00
O349   O     0.22829   0.91420   0.25503   0.00000  Uiso   1.00
O350   O     0.10504   0.75247   0.24498   0.00000  Uiso   1.00
O351   O     0.08851   0.82597   0.30855   0.00000  Uiso   1.00
O352   O     0.24482   0.84070   0.19146   0.00000  Uiso   1.00
O353   O     0.18866   0.83540   0.31671   0.00000  Uiso   1.00
O354   O     0.14468   0.83126   0.18329   0.00000  Uiso   1.00
O355   O     0.33072   0.74493   0.02729   0.00000  Uiso   1.00
H356   H     0.31473   0.72509   0.00273   0.00000  Uiso   1.00
O357   O     0.00262   0.92173   0.47271   0.00000  Uiso   1.00
H358   H     0.01861   0.94157   0.49727   0.00000  Uiso   1.00
Cl359  Cl    0.08895   0.73816   0.07387   0.00000  Uiso   1.00
Cl360  Cl    0.24439   0.92851   0.42613   0.00000  Uiso   1.00
Cl361  Cl    0.23031   0.68638   0.29601   0.00000  Uiso   1.00
Cl362  Cl    0.10302   0.98028   0.20399   0.00000  Uiso   1.00
Cl363  Cl    0.00572   0.88907   0.30320   0.00000  Uiso   1.00
Cl364  Cl    0.32761   0.77760   0.19680   0.00000  Uiso   1.00
C365   C     0.51444   0.93316   0.25181   0.00000  Uiso   1.00
C366   C     0.48556   0.73351   0.24819   0.00000  Uiso   1.00
C367   C     0.43421   0.78562   0.03426   0.00000  Uiso   1.00
C368   C     0.56579   0.88105   0.46574   0.00000  Uiso   1.00
C369   C     0.38757   0.77835   0.01070   0.00000  Uiso   1.00
C370   C     0.61243   0.88832   0.48930   0.00000  Uiso   1.00
C371   C     0.51804   0.98833   0.25855   0.00000  Uiso   1.00
C372   C     0.48196   0.67833   0.24145   0.00000  Uiso   1.00
C373   C     0.46167   0.82939   0.33307   0.00000  Uiso   1.00
C374   C     0.53833   0.83727   0.16693   0.00000  Uiso   1.00
C375   C     0.43876   0.82443   0.38071   0.00000  Uiso   1.00
C376   C     0.56124   0.84224   0.11929   0.00000  Uiso   1.00
C377   C     0.35651   0.79486   0.44445   0.00000  Uiso   1.00
C378   C     0.64349   0.87181   0.05555   0.00000  Uiso   1.00
C379   C     0.37488   0.80754   0.40043   0.00000  Uiso   1.00
C380   C     0.62512   0.85913   0.09957   0.00000  Uiso   1.00
C381   C     0.48264   0.83404   0.40656   0.00000  Uiso   1.00
C382   C     0.51736   0.83263   0.09344   0.00000  Uiso   1.00
C383   C     0.46413   0.82824   0.45194   0.00000  Uiso   1.00
C384   C     0.53587   0.83843   0.04806   0.00000  Uiso   1.00
C385   C     0.40169   0.80130   0.46971   0.00000  Uiso   1.00
C386   C     0.59831   0.86537   0.03029   0.00000  Uiso   1.00
C387   C     0.50778   0.84395   0.47892   0.00000  Uiso   1.00
C388   C     0.49222   0.82272   0.02108   0.00000  Uiso   1.00
Cu389  Cu    0.44071   0.82775   0.24517   0.00000  Uiso   1.00
Cu390  Cu    0.55929   0.83892   0.25484   0.00000  Uiso   1.00
H391   H     0.46791   0.82379   0.10937   0.00000  Uiso   1.00
H392   H     0.53209   0.84288   0.39063   0.00000  Uiso   1.00
H393   H     0.66026   0.86582   0.11867   0.00000  Uiso   1.00
H394   H     0.33974   0.80084   0.38133   0.00000  Uiso   1.00
H395   H     0.64042   0.77920   0.45801   0.00000  Uiso   1.00
H396   H     0.35958   0.88746   0.04199   0.00000  Uiso   1.00
N397   N     0.64839   0.84735   0.26212   0.00000  Uiso   1.00
N398   N     0.35161   0.81932   0.23788   0.00000  Uiso   1.00
O399   O     0.46148   0.90476   0.24686   0.00000  Uiso   1.00
O400   O     0.53852   0.76191   0.25314   0.00000  Uiso   1.00
O401   O     0.56163   0.91420   0.25503   0.00000  Uiso   1.00
O402   O     0.43837   0.75247   0.24498   0.00000  Uiso   1.00
O403   O     0.42185   0.82597   0.30855   0.00000  Uiso   1.00
O404   O     0.57815   0.84070   0.19146   0.00000  Uiso   1.00
O405   O     0.52199   0.83540   0.31671   0.00000  Uiso   1.00
O406   O     0.47801   0.83126   0.18329   0.00000  Uiso   1.00
O407   O     0.66405   0.74493   0.02729   0.00000  Uiso   1.00
H408   H     0.64806   0.72509   0.00273   0.00000  Uiso   1.00
O409   O     0.33595   0.92173   0.47271   0.00000  Uiso   1.00
H410   H     0.35194   0.94157   0.49727   0.00000  Uiso   1.00
Cl411  Cl    0.42228   0.73816   0.07387   0.00000  Uiso   1.00
Cl412  Cl    0.57772   0.92851   0.42613   0.00000  Uiso   1.00
Cl413  Cl    0.56364   0.68638   0.29601   0.00000  Uiso   1.00
Cl414  Cl    0.43635   0.98028   0.20399   0.00000  Uiso   1.00
Cl415  Cl    0.33906   0.88907   0.30320   0.00000  Uiso   1.00
Cl416  Cl    0.66094   0.77760   0.19680   0.00000  Uiso   1.00
C417   C     0.84778   0.93316   0.25181   0.00000  Uiso   1.00
C418   C     0.81889   0.73351   0.24819   0.00000  Uiso   1.00
C419   C     0.76754   0.78562   0.03426   0.00000  Uiso   1.00
C420   C     0.89912   0.88105   0.46574   0.00000  Uiso   1.00
C421   C     0.72091   0.77835   0.01070   0.00000  Uiso   1.00
C422   C     0.94576   0.88832   0.48930   0.00000  Uiso   1.00
C423   C     0.85138   0.98833   0.25855   0.00000  Uiso   1.00
C424   C     0.81529   0.67833   0.24145   0.00000  Uiso   1.00
C425   C     0.79500   0.82939   0.33307   0.00000  Uiso   1.00
C426   C     0.87166   0.83727   0.16693   0.00000  Uiso   1.00
C427   C     0.77209   0.82443   0.38071   0.00000  Uiso   1.00
C428   C     0.89458   0.84224   0.11929   0.00000  Uiso   1.00
C429   C     0.68984   0.79486   0.44445   0.00000  Uiso   1.00
C430   C     0.97683   0.87181   0.05555   0.00000  Uiso   1.00
C431   C     0.70822   0.80754   0.40043   0.00000  Uiso   1.00
C432   C     0.95845   0.85913   0.09957   0.00000  Uiso   1.00
C433   C     0.81597   0.83404   0.40656   0.00000  Uiso   1.00
C434   C     0.85070   0.83263   0.09344   0.00000  Uiso   1.00
C435   C     0.79746   0.82824   0.45194   0.00000  Uiso   1.00
C436   C     0.86921   0.83843   0.04806   0.00000  Uiso   1.00
C437   C     0.73502   0.80130   0.46971   0.00000  Uiso   1.00
C438   C     0.93165   0.86537   0.03029   0.00000  Uiso   1.00
C439   C     0.84112   0.84395   0.47892   0.00000  Uiso   1.00
C440   C     0.82555   0.82272   0.02108   0.00000  Uiso   1.00
Cu441  Cu    0.77404   0.82775   0.24517   0.00000  Uiso   1.00
Cu442  Cu    0.89263   0.83892   0.25484   0.00000  Uiso   1.00
H443   H     0.80124   0.82379   0.10937   0.00000  Uiso   1.00
H444   H     0.86542   0.84288   0.39063   0.00000  Uiso   1.00
H445   H     0.99359   0.86582   0.11867   0.00000  Uiso   1.00
H446   H     0.67307   0.80084   0.38133   0.00000  Uiso   1.00
H447   H     0.97375   0.77920   0.45801   0.00000  Uiso   1.00
H448   H     0.69292   0.88746   0.04199   0.00000  Uiso   1.00
N449   N     0.98173   0.84735   0.26212   0.00000  Uiso   1.00
N450   N     0.68494   0.81932   0.23788   0.00000  Uiso   1.00
O451   O     0.79482   0.90476   0.24686   0.00000  Uiso   1.00
O452   O     0.87185   0.76191   0.25314   0.00000  Uiso   1.00
O453   O     0.89496   0.91420   0.25503   0.00000  Uiso   1.00
O454   O     0.77171   0.75247   0.24498   0.00000  Uiso   1.00
O455   O     0.75518   0.82597   0.30855   0.00000  Uiso   1.00
O456   O     0.91149   0.84070   0.19146   0.00000  Uiso   1.00
O457   O     0.85532   0.83540   0.31671   0.00000  Uiso   1.00
O458   O     0.81134   0.83126   0.18329   0.00000  Uiso   1.00
O459   O     0.99738   0.74493   0.02729   0.00000  Uiso   1.00
H460   H     0.98140   0.72509   0.00273   0.00000  Uiso   1.00
O461   O     0.66929   0.92173   0.47271   0.00000  Uiso   1.00
H462   H     0.68527   0.94157   0.49727   0.00000  Uiso   1.00
Cl463  Cl    0.75561   0.73816   0.07387   0.00000  Uiso   1.00
Cl464  Cl    0.91106   0.92851   0.42613   0.00000  Uiso   1.00
Cl465  Cl    0.89698   0.68638   0.29601   0.00000  Uiso   1.00
Cl466  Cl    0.76969   0.98028   0.20399   0.00000  Uiso   1.00
Cl467  Cl    0.67239   0.88907   0.30320   0.00000  Uiso   1.00
Cl468  Cl    0.99428   0.77760   0.19680   0.00000  Uiso   1.00
C469   C     0.18111   0.26649   0.75181   0.00000  Uiso   1.00
C470   C     0.15222   0.06684   0.74819   0.00000  Uiso   1.00
C471   C     0.10088   0.11895   0.53426   0.00000  Uiso   1.00
C472   C     0.23246   0.21438   0.96574   0.00000  Uiso   1.00
C473   C     0.05424   0.11168   0.51070   0.00000  Uiso   1.00
C474   C     0.27909   0.22165   0.98930   0.00000  Uiso   1.00
C475   C     0.18471   0.32167   0.75855   0.00000  Uiso   1.00
C476   C     0.14862   0.01167   0.74145   0.00000  Uiso   1.00
C477   C     0.12834   0.16273   0.83307   0.00000  Uiso   1.00
C478   C     0.20500   0.17061   0.66693   0.00000  Uiso   1.00
C479   C     0.10542   0.15777   0.88071   0.00000  Uiso   1.00
C480   C     0.22791   0.17557   0.61929   0.00000  Uiso   1.00
C481   C     0.02317   0.12819   0.94445   0.00000  Uiso   1.00
C482   C     0.31016   0.20514   0.55555   0.00000  Uiso   1.00
C483   C     0.04155   0.14087   0.90043   0.00000  Uiso   1.00
C484   C     0.29178   0.19246   0.59957   0.00000  Uiso   1.00
C485   C     0.14930   0.16737   0.90656   0.00000  Uiso   1.00
C486   C     0.18403   0.16596   0.59344   0.00000  Uiso   1.00
C487   C     0.13079   0.16157   0.95194   0.00000  Uiso   1.00
C488   C     0.20254   0.17176   0.54806   0.00000  Uiso   1.00
C489   C     0.06835   0.13463   0.96971   0.00000  Uiso   1.00
C490   C     0.26498   0.19870   0.53029   0.00000  Uiso   1.00
C491   C     0.17445   0.17728   0.97892   0.00000  Uiso   1.00
C492   C     0.15888   0.15605   0.52108   0.00000  Uiso   1.00
Cu493  Cu    0.10737   0.16108   0.74517   0.00000  Uiso   1.00
Cu494  Cu    0.22596   0.17225   0.75484   0.00000  Uiso   1.00
H495   H     0.13458   0.15712   0.60937   0.00000  Uiso   1.00
H496   H     0.19875   0.17621   0.89063   0.00000  Uiso   1.00
H497   H     0.32693   0.19916   0.61867   0.00000  Uiso   1.00
H498   H     0.00641   0.13418   0.88133   0.00000  Uiso   1.00
H499   H     0.30708   0.11254   0.95801   0.00000  Uiso   1.00
H500   H     0.02625   0.22079   0.54199   0.00000  Uiso   1.00
N501   N     0.31506   0.18068   0.76212   0.00000  Uiso   1.00
N502   N     0.01827   0.15265   0.73788   0.00000  Uiso   1.00
O503   O     0.12815   0.23809   0.74686   0.00000  Uiso   1.00
O504   O     0.20518   0.09524   0.75314   0.00000  Uiso   1.00
O505   O     0.22829   0.24753   0.75503   0.00000  Uiso   1.00
O506   O     0.10504   0.08580   0.74498   0.00000  Uiso   1.00
O507   O     0.08851   0.15930   0.80855   0.00000  Uiso   1.00
O508   O     0.24482   0.17403   0.69146   0.00000  Uiso   1.00
O509   O     0.18866   0.16874   0.81671   0.00000  Uiso   1.00
O510   O     0.14468   0.16460   0.68329   0.00000  Uiso   1.00
O511   O     0.33072   0.07827   0.52729   0.00000  Uiso   1.00
H512   H     0.31473   0.05843   0.50273   0.00000  Uiso   1.00
O513   O     0.00262   0.25506   0.97271   0.00000  Uiso   1.00
H514   H     0.01861   0.27490   0.99727   0.00000  Uiso   1.00
Cl515  Cl    0.08895   0.07149   0.57387   0.00000  Uiso   1.00
Cl516  Cl    0.24439   0.26184   0.92613   0.00000  Uiso   1.00
Cl517  Cl    0.23031   0.01972   0.79601   0.00000  Uiso   1.00
Cl518  Cl    0.10302   0.31362   0.70399   0.00000  Uiso   1.00
Cl519  Cl    0.00572   0.22240   0.80320   0.00000  Uiso   1.00
Cl520  Cl    0.32761   0.11093   0.69680   0.00000  Uiso   1.00
C521   C     0.51444   0.26649   0.75181   0.00000  Uiso   1.00
C522   C     0.48556   0.06684   0.74819   0.00000  Uiso   1.00
C523   C     0.43421   0.11895   0.53426   0.00000  Uiso   1.00
C524   C     0.56579   0.21438   0.96574   0.00000  Uiso   1.00
C525   C     0.38757   0.11168   0.51070   0.00000  Uiso   1.00
C526   C     0.61243   0.22165   0.98930   0.00000  Uiso   1.00
C527   C     0.51804   0.32167   0.75855   0.00000  Uiso   1.00
C528   C     0.48196   0.01167   0.74145   0.00000  Uiso   1.00
C529   C     0.46167   0.16273   0.83307   0.00000  Uiso   1.00
C530   C     0.53833   0.17061   0.66693   0.00000  Uiso   1.00
C531   C     0.43876   0.15777   0.88071   0.00000  Uiso   1.00
C532   C     0.56124   0.17557   0.61929   0.00000  Uiso   1.00
C533   C     0.35651   0.12819   0.94445   0.00000  Uiso   1.00
C534   C     0.64349   0.20514   0.55555   0.00000  Uiso   1.00
C535   C     0.37488   0.14087   0.90043   0.00000  Uiso   1.00
C536   C     0.62512   0.19246   0.59957   0.00000  Uiso   1.00
C537   C     0.48264   0.16737   0.90656   0.00000  Uiso   1.00
C538   C     0.51736   0.16596   0.59344   0.00000  Uiso   1.00
C539   C     0.46413   0.16157   0.95194   0.00000  Uiso   1.00
C540   C     0.53587   0.17176   0.54806   0.00000  Uiso   1.00
C541   C     0.40169   0.13463   0.96971   0.00000  Uiso   1.00
C542   C     0.59831   0.19870   0.53029   0.00000  Uiso   1.00
C543   C     0.50778   0.17728   0.97892   0.00000  Uiso   1.00
C544   C     0.49222   0.15605   0.52108   0.00000  Uiso   1.00
Cu545  Cu    0.44071   0.16108   0.74517   0.00000  Uiso   1.00
Cu546  Cu    0.55929   0.17225   0.75484   0.00000  Uiso   1.00
H547   H     0.46791   0.15712   0.60937   0.00000  Uiso   1.00
H548   H     0.53209   0.17621   0.89063   0.00000  Uiso   1.00
H549   H     0.66026   0.19916   0.61867   0.00000  Uiso   1.00
H550   H     0.33974   0.13418   0.88133   0.00000  Uiso   1.00
H551   H     0.64042   0.11254   0.95801   0.00000  Uiso   1.00
H552   H     0.35958   0.22079   0.54199   0.00000  Uiso   1.00
N553   N     0.64839   0.18068   0.76212   0.00000  Uiso   1.00
N554   N     0.35161   0.15265   0.73788   0.00000  Uiso   1.00
O555   O     0.46148   0.23809   0.74686   0.00000  Uiso   1.00
O556   O     0.53852   0.09524   0.75314   0.00000  Uiso   1.00
O557   O     0.56163   0.24753   0.75503   0.00000  Uiso   1.00
O558   O     0.43837   0.08580   0.74498   0.00000  Uiso   1.00
O559   O     0.42185   0.15930   0.80855   0.00000  Uiso   1.00
O560   O     0.57815   0.17403   0.69146   0.00000  Uiso   1.00
O561   O     0.52199   0.16874   0.81671   0.00000  Uiso   1.00
O562   O     0.47801   0.16460   0.68329   0.00000  Uiso   1.00
O563   O     0.66405   0.07827   0.52729   0.00000  Uiso   1.00
H564   H     0.64806   0.05843   0.50273   0.00000  Uiso   1.00
O565   O     0.33595   0.25506   0.97271   0.00000  Uiso   1.00
H566   H     0.35194   0.27490   0.99727   0.00000  Uiso   1.00
Cl567  Cl    0.42228   0.07149   0.57387   0.00000  Uiso   1.00
Cl568  Cl    0.57772   0.26184   0.92613   0.00000  Uiso   1.00
Cl569  Cl    0.56364   0.01972   0.79601   0.00000  Uiso   1.00
Cl570  Cl    0.43635   0.31362   0.70399   0.00000  Uiso   1.00
Cl571  Cl    0.33906   0.22240   0.80320   0.00000  Uiso   1.00
Cl572  Cl    0.66094   0.11093   0.69680   0.00000  Uiso   1.00
C573   C     0.84778   0.26649   0.75181   0.00000  Uiso   1.00
C574   C     0.81889   0.06684   0.74819   0.00000  Uiso   1.00
C575   C     0.76754   0.11895   0.53426   0.00000  Uiso   1.00
C576   C     0.89912   0.21438   0.96574   0.00000  Uiso   1.00
C577   C     0.72091   0.11168   0.51070   0.00000  Uiso   1.00
C578   C     0.94576   0.22165   0.98930   0.00000  Uiso   1.00
C579   C     0.85138   0.32167   0.75855   0.00000  Uiso   1.00
C580   C     0.81529   0.01167   0.74145   0.00000  Uiso   1.00
C581   C     0.79500   0.16273   0.83307   0.00000  Uiso   1.00
C582   C     0.87166   0.17061   0.66693   0.00000  Uiso   1.00
C583   C     0.77209   0.15777   0.88071   0.00000  Uiso   1.00
C584   C     0.89458   0.17557   0.61929   0.00000  Uiso   1.00
C585   C     0.68984   0.12819   0.94445   0.00000  Uiso   1.00
C586   C     0.97683   0.20514   0.55555   0.00000  Uiso   1.00
C587   C     0.70822   0.14087   0.90043   0.00000  Uiso   1.00
C588   C     0.95845   0.19246   0.59957   0.00000  Uiso   1.00
C589   C     0.81597   0.16737   0.90656   0.00000  Uiso   1.00
C590   C     0.85070   0.16596   0.59344   0.00000  Uiso   1.00
C591   C     0.79746   0.16157   0.95194   0.00000  Uiso   1.00
C592   C     0.86921   0.17176   0.54806   0.00000  Uiso   1.00
C593   C     0.73502   0.13463   0.96971   0.00000  Uiso   1.00
C594   C     0.93165   0.19870   0.53029   0.00000  Uiso   1.00
C595   C     0.84112   0.17728   0.97892   0.00000  Uiso   1.00
C596   C     0.82555   0.15605   0.52108   0.00000  Uiso   1.00
Cu597  Cu    0.77404   0.16108   0.74517   0.00000  Uiso   1.00
Cu598  Cu    0.89263   0.17225   0.75484   0.00000  Uiso   1.00
H599   H     0.80124   0.15712   0.60937   0.00000  Uiso   1.00
H600   H     0.86542   0.17621   0.89063   0.00000  Uiso   1.00
H601   H     0.99359   0.19916   0.61867   0.00000  Uiso   1.00
H602   H     0.67307   0.13418   0.88133   0.00000  Uiso   1.00
H603   H     0.97375   0.11254   0.95801   0.00000  Uiso   1.00
H604   H     0.69292   0.22079   0.54199   0.00000  Uiso   1.00
N605   N     0.98173   0.18068   0.76212   0.00000  Uiso   1.00
N606   N     0.68494   0.15265   0.73788   0.00000  Uiso   1.00
O607   O     0.79482   0.23809   0.74686   0.00000  Uiso   1.00
O608   O     0.87185   0.09524   0.75314   0.00000  Uiso   1.00
O609   O     0.89496   0.24753   0.75503   0.00000  Uiso   1.00
O610   O     0.77171   0.08580   0.74498   0.00000  Uiso   1.00
O611   O     0.75518   0.15930   0.80855   0.00000  Uiso   1.00
O612   O     0.91149   0.17403   0.69146   0.00000  Uiso   1.00
O613   O     0.85532   0.16874   0.81671   0.00000  Uiso   1.00
O614   O     0.81134   0.16460   0.68329   0.00000  Uiso   1.00
O615   O     0.99738   0.07827   0.52729   0.00000  Uiso   1.00
H616   H     0.98140   0.05843   0.50273   0.00000  Uiso   1.00
O617   O     0.66929   0.25506   0.97271   0.00000  Uiso   1.00
H618   H     0.68527   0.27490   0.99727   0.00000  Uiso   1.00
Cl619  Cl    0.75561   0.07149   0.57387   0.00000  Uiso   1.00
Cl620  Cl    0.91106   0.26184   0.92613   0.00000  Uiso   1.00
Cl621  Cl    0.89698   0.01972   0.79601   0.00000  Uiso   1.00
Cl622  Cl    0.76969   0.31362   0.70399   0.00000  Uiso   1.00
Cl623  Cl    0.67239   0.22240   0.80320   0.00000  Uiso   1.00
Cl624  Cl    0.99428   0.11093   0.69680   0.00000  Uiso   1.00
C625   C     0.18111   0.59982   0.75181   0.00000  Uiso   1.00
C626   C     0.15222   0.40018   0.74819   0.00000  Uiso   1.00
C627   C     0.10088   0.45228   0.53426   0.00000  Uiso   1.00
C628   C     0.23246   0.54772   0.96574   0.00000  Uiso   1.00
C629   C     0.05424   0.44501   0.51070   0.00000  Uiso   1.00
C630   C     0.27909   0.55499   0.98930   0.00000  Uiso   1.00
C631   C     0.18471   0.65500   0.75855   0.00000  Uiso   1.00
C632   C     0.14862   0.34500   0.74145   0.00000  Uiso   1.00
C633   C     0.12834   0.49606   0.83307   0.00000  Uiso   1.00
C634   C     0.20500   0.50394   0.66693   0.00000  Uiso   1.00
C635   C     0.10542   0.49110   0.88071   0.00000  Uiso   1.00
C636   C     0.22791   0.50890   0.61929   0.00000  Uiso   1.00
C637   C     0.02317   0.46152   0.94445   0.00000  Uiso   1.00
C638   C     0.31016   0.53847   0.55555   0.00000  Uiso   1.00
C639   C     0.04155   0.47420   0.90043   0.00000  Uiso   1.00
C640   C     0.29178   0.52579   0.59957   0.00000  Uiso   1.00
C641   C     0.14930   0.50070   0.90656   0.00000  Uiso   1.00
C642   C     0.18403   0.49930   0.59344   0.00000  Uiso   1.00
C643   C     0.13079   0.49491   0.95194   0.00000  Uiso   1.00
C644   C     0.20254   0.50509   0.54806   0.00000  Uiso   1.00
C645   C     0.06835   0.46797   0.96971   0.00000  Uiso   1.00
C646   C     0.26498   0.53203   0.53029   0.00000  Uiso   1.00
C647   C     0.17445   0.51062   0.97892   0.00000  Uiso   1.00
C648   C     0.15888   0.48939   0.52108   0.00000  Uiso   1.00
Cu649  Cu    0.10737   0.49441   0.74517   0.00000  Uiso   1.00
Cu650  Cu    0.22596   0.50559   0.75484   0.00000  Uiso   1.00
H651   H     0.13458   0.49045   0.60937   0.00000  Uiso   1.00
H652   H     0.19875   0.50955   0.89063   0.00000  Uiso   1.00
H653   H     0.32693   0.53249   0.61867   0.00000  Uiso   1.00
H654   H     0.00641   0.46751   0.88133   0.00000  Uiso   1.00
H655   H     0.30708   0.44587   0.95801   0.00000  Uiso   1.00
H656   H     0.02625   0.55413   0.54199   0.00000  Uiso   1.00
N657   N     0.31506   0.51401   0.76212   0.00000  Uiso   1.00
N658   N     0.01827   0.48599   0.73788   0.00000  Uiso   1.00
O659   O     0.12815   0.57142   0.74686   0.00000  Uiso   1.00
O660   O     0.20518   0.42858   0.75314   0.00000  Uiso   1.00
O661   O     0.22829   0.58086   0.75503   0.00000  Uiso   1.00
O662   O     0.10504   0.41914   0.74498   0.00000  Uiso   1.00
O663   O     0.08851   0.49263   0.80855   0.00000  Uiso   1.00
O664   O     0.24482   0.50737   0.69146   0.00000  Uiso   1.00
O665   O     0.18866   0.50207   0.81671   0.00000  Uiso   1.00
O666   O     0.14468   0.49793   0.68329   0.00000  Uiso   1.00
O667   O     0.33072   0.41160   0.52729   0.00000  Uiso   1.00
H668   H     0.31473   0.39176   0.50273   0.00000  Uiso   1.00
O669   O     0.00262   0.58840   0.97271   0.00000  Uiso   1.00
H670   H     0.01861   0.60824   0.99727   0.00000  Uiso   1.00
Cl671  Cl    0.08895   0.40483   0.57387   0.00000  Uiso   1.00
Cl672  Cl    0.24439   0.59517   0.92613   0.00000  Uiso   1.00
Cl673  Cl    0.23031   0.35305   0.79601   0.00000  Uiso   1.00
Cl674  Cl    0.10302   0.64695   0.70399   0.00000  Uiso   1.00
Cl675  Cl    0.00572   0.55573   0.80320   0.00000  Uiso   1.00
Cl676  Cl    0.32761   0.44427   0.69680   0.00000  Uiso   1.00
C677   C     0.51444   0.59982   0.75181   0.00000  Uiso   1.00
C678   C     0.48556   0.40018   0.74819   0.00000  Uiso   1.00
C679   C     0.43421   0.45228   0.53426   0.00000  Uiso   1.00
C680   C     0.56579   0.54772   0.96574   0.00000  Uiso   1.00
C681   C     0.38757   0.44501   0.51070   0.00000  Uiso   1.00
C682   C     0.61243   0.55499   0.98930   0.00000  Uiso   1.00
C683   C     0.51804   0.65500   0.75855   0.00000  Uiso   1.00
C684   C     0.48196   0.34500   0.74145   0.00000  Uiso   1.00
C685   C     0.46167   0.49606   0.83307   0.00000  Uiso   1.00
C686   C     0.53833   0.50394   0.66693   0.00000  Uiso   1.00
C687   C     0.43876   0.49110   0.88071   0.00000  Uiso   1.00
C688   C     0.56124   0.50890   0.61929   0.00000  Uiso   1.00
C689   C     0.35651   0.46152   0.94445   0.00000  Uiso   1.00
C690   C     0.64349   0.53847   0.55555   0.00000  Uiso   1.00
C691   C     0.37488   0.47420   0.90043   0.00000  Uiso   1.00
C692   C     0.62512   0.52579   0.59957   0.00000  Uiso   1.00
C693   C     0.48264   0.50070   0.90656   0.00000  Uiso   1.00
C694   C     0.51736   0.49930   0.59344   0.00000  Uiso   1.00
C695   C     0.46413   0.49491   0.95194   0.00000  Uiso   1.00
C696   C     0.53587   0.50509   0.54806   0.00000  Uiso   1.00
C697   C     0.40169   0.46797   0.96971   0.00000  Uiso   1.00
C698   C     0.59831   0.53203   0.53029   0.00000  Uiso   1.00
C699   C     0.50778   0.51062   0.97892   0.00000  Uiso   1.00
C700   C     0.49222   0.48939   0.52108   0.00000  Uiso   1.00
Cu701  Cu    0.44071   0.49441   0.74517   0.00000  Uiso   1.00
Cu702  Cu    0.55929   0.50559   0.75484   0.00000  Uiso   1.00
H703   H     0.46791   0.49045   0.60937   0.00000  Uiso   1.00
H704   H     0.53209   0.50955   0.89063   0.00000  Uiso   1.00
H705   H     0.66026   0.53249   0.61867   0.00000  Uiso   1.00
H706   H     0.33974   0.46751   0.88133   0.00000  Uiso   1.00
H707   H     0.64042   0.44587   0.95801   0.00000  Uiso   1.00
H708   H     0.35958   0.55413   0.54199   0.00000  Uiso   1.00
N709   N     0.64839   0.51401   0.76212   0.00000  Uiso   1.00
N710   N     0.35161   0.48599   0.73788   0.00000  Uiso   1.00
O711   O     0.46148   0.57142   0.74686   0.00000  Uiso   1.00
O712   O     0.53852   0.42858   0.75314   0.00000  Uiso   1.00
O713   O     0.56163   0.58086   0.75503   0.00000  Uiso   1.00
O714   O     0.43837   0.41914   0.74498   0.00000  Uiso   1.00
O715   O     0.42185   0.49263   0.80855   0.00000  Uiso   1.00
O716   O     0.57815   0.50737   0.69146   0.00000  Uiso   1.00
O717   O     0.52199   0.50207   0.81671   0.00000  Uiso   1.00
O718   O     0.47801   0.49793   0.68329   0.00000  Uiso   1.00
O719   O     0.66405   0.41160   0.52729   0.00000  Uiso   1.00
H720   H     0.64806   0.39176   0.50273   0.00000  Uiso   1.00
O721   O     0.33595   0.58840   0.97271   0.00000  Uiso   1.00
H722   H     0.35194   0.60824   0.99727   0.00000  Uiso   1.00
Cl723  Cl    0.42228   0.40483   0.57387   0.00000  Uiso   1.00
Cl724  Cl    0.57772   0.59517   0.92613   0.00000  Uiso   1.00
Cl725  Cl    0.56364   0.35305   0.79601   0.00000  Uiso   1.00
Cl726  Cl    0.43635   0.64695   0.70399   0.00000  Uiso   1.00
Cl727  Cl    0.33906   0.55573   0.80320   0.00000  Uiso   1.00
Cl728  Cl    0.66094   0.44427   0.69680   0.00000  Uiso   1.00
C729   C     0.84778   0.59982   0.75181   0.00000  Uiso   1.00
C730   C     0.81889   0.40018   0.74819   0.00000  Uiso   1.00
C731   C     0.76754   0.45228   0.53426   0.00000  Uiso   1.00
C732   C     0.89912   0.54772   0.96574   0.00000  Uiso   1.00
C733   C     0.72091   0.44501   0.51070   0.00000  Uiso   1.00
C734   C     0.94576   0.55499   0.98930   0.00000  Uiso   1.00
C735   C     0.85138   0.65500   0.75855   0.00000  Uiso   1.00
C736   C     0.81529   0.34500   0.74145   0.00000  Uiso   1.00
C737   C     0.79500   0.49606   0.83307   0.00000  Uiso   1.00
C738   C     0.87166   0.50394   0.66693   0.00000  Uiso   1.00
C739   C     0.77209   0.49110   0.88071   0.00000  Uiso   1.00
C740   C     0.89458   0.50890   0.61929   0.00000  Uiso   1.00
C741   C     0.68984   0.46152   0.94445   0.00000  Uiso   1.00
C742   C     0.97683   0.53847   0.55555   0.00000  Uiso   1.00
C743   C     0.70822   0.47420   0.90043   0.00000  Uiso   1.00
C744   C     0.95845   0.52579   0.59957   0.00000  Uiso   1.00
C745   C     0.81597   0.50070   0.90656   0.00000  Uiso   1.00
C746   C     0.85070   0.49930   0.59344   0.00000  Uiso   1.00
C747   C     0.79746   0.49491   0.95194   0.00000  Uiso   1.00
C748   C     0.86921   0.50509   0.54806   0.00000  Uiso   1.00
C749   C     0.73502   0.46797   0.96971   0.00000  Uiso   1.00
C750   C     0.93165   0.53203   0.53029   0.00000  Uiso   1.00
C751   C     0.84112   0.51062   0.97892   0.00000  Uiso   1.00
C752   C     0.82555   0.48939   0.52108   0.00000  Uiso   1.00
Cu753  Cu    0.77404   0.49441   0.74517   0.00000  Uiso   1.00
Cu754  Cu    0.89263   0.50559   0.75484   0.00000  Uiso   1.00
H755   H     0.80124   0.49045   0.60937   0.00000  Uiso   1.00
H756   H     0.86542   0.50955   0.89063   0.00000  Uiso   1.00
H757   H     0.99359   0.53249   0.61867   0.00000  Uiso   1.00
H758   H     0.67307   0.46751   0.88133   0.00000  Uiso   1.00
H759   H     0.97375   0.44587   0.95801   0.00000  Uiso   1.00
H760   H     0.69292   0.55413   0.54199   0.00000  Uiso   1.00
N761   N     0.98173   0.51401   0.76212   0.00000  Uiso   1.00
N762   N     0.68494   0.48599   0.73788   0.00000  Uiso   1.00
O763   O     0.79482   0.57142   0.74686   0.00000  Uiso   1.00
O764   O     0.87185   0.42858   0.75314   0.00000  Uiso   1.00
O765   O     0.89496   0.58086   0.75503   0.00000  Uiso   1.00
O766   O     0.77171   0.41914   0.74498   0.00000  Uiso   1.00
O767   O     0.75518   0.49263   0.80855   0.00000  Uiso   1.00
O768   O     0.91149   0.50737   0.69146   0.00000  Uiso   1.00
O769   O     0.85532   0.50207   0.81671   0.00000  Uiso   1.00
O770   O     0.81134   0.49793   0.68329   0.00000  Uiso   1.00
O771   O     0.99738   0.41160   0.52729   0.00000  Uiso   1.00
H772   H     0.98140   0.39176   0.50273   0.00000  Uiso   1.00
O773   O     0.66929   0.58840   0.97271   0.00000  Uiso   1.00
H774   H     0.68527   0.60824   0.99727   0.00000  Uiso   1.00
Cl775  Cl    0.75561   0.40483   0.57387   0.00000  Uiso   1.00
Cl776  Cl    0.91106   0.59517   0.92613   0.00000  Uiso   1.00
Cl777  Cl    0.89698   0.35305   0.79601   0.00000  Uiso   1.00
Cl778  Cl    0.76969   0.64695   0.70399   0.00000  Uiso   1.00
Cl779  Cl    0.67239   0.55573   0.80320   0.00000  Uiso   1.00
Cl780  Cl    0.99428   0.44427   0.69680   0.00000  Uiso   1.00
C781   C     0.18111   0.93316   0.75181   0.00000  Uiso   1.00
C782   C     0.15222   0.73351   0.74819   0.00000  Uiso   1.00
C783   C     0.10088   0.78562   0.53426   0.00000  Uiso   1.00
C784   C     0.23246   0.88105   0.96574   0.00000  Uiso   1.00
C785   C     0.05424   0.77835   0.51070   0.00000  Uiso   1.00
C786   C     0.27909   0.88832   0.98930   0.00000  Uiso   1.00
C787   C     0.18471   0.98833   0.75855   0.00000  Uiso   1.00
C788   C     0.14862   0.67833   0.74145   0.00000  Uiso   1.00
C789   C     0.12834   0.82939   0.83307   0.00000  Uiso   1.00
C790   C     0.20500   0.83727   0.66693   0.00000  Uiso   1.00
C791   C     0.10542   0.82443   0.88071   0.00000  Uiso   1.00
C792   C     0.22791   0.84224   0.61929   0.00000  Uiso   1.00
C793   C     0.02317   0.79486   0.94445   0.00000  Uiso   1.00
C794   C     0.31016   0.87181   0.55555   0.00000  Uiso   1.00
C795   C     0.04155   0.80754   0.90043   0.00000  Uiso   1.00
C796   C     0.29178   0.85913   0.59957   0.00000  Uiso   1.00
C797   C     0.14930   0.83404   0.90656   0.00000  Uiso   1.00
C798   C     0.18403   0.83263   0.59344   0.00000  Uiso   1.00
C799   C     0.13079   0.82824   0.95194   0.00000  Uiso   1.00
C800   C     0.20254   0.83843   0.54806   0.00000  Uiso   1.00
C801   C     0.06835   0.80130   0.96971   0.00000  Uiso   1.00
C802   C     0.26498   0.86537   0.53029   0.00000  Uiso   1.00
C803   C     0.17445   0.84395   0.97892   0.00000  Uiso   1.00
C804   C     0.15888   0.82272   0.52108   0.00000  Uiso   1.00
Cu805  Cu    0.10737   0.82775   0.74517   0.00000  Uiso   1.00
Cu806  Cu    0.22596   0.83892   0.75484   0.00000  Uiso   1.00
H807   H     0.13458   0.82379   0.60937   0.00000  Uiso   1.00
H808   H     0.19875   0.84288   0.89063   0.00000  Uiso   1.00
H809   H     0.32693   0.86582   0.61867   0.00000  Uiso   1.00
H810   H     0.00641   0.80084   0.88133   0.00000  Uiso   1.00
H811   H     0.30708   0.77920   0.95801   0.00000  Uiso   1.00
H812   H     0.02625   0.88746   0.54199   0.00000  Uiso   1.00
N813   N     0.31506   0.84735   0.76212   0.00000  Uiso   1.00
N814   N     0.01827   0.81932   0.73788   0.00000  Uiso   1.00
O815   O     0.12815   0.90476   0.74686   0.00000  Uiso   1.00
O816   O     0.20518   0.76191   0.75314   0.00000  Uiso   1.00
O817   O     0.22829   0.91420   0.75503   0.00000  Uiso   1.00
O818   O     0.10504   0.75247   0.74498   0.00000  Uiso   1.00
O819   O     0.08851   0.82597   0.80855   0.00000  Uiso   1.00
O820   O     0.24482   0.84070   0.69146   0.00000  Uiso   1.00
O821   O     0.18866   0.83540   0.81671   0.00000  Uiso   1.00
O822   O     0.14468   0.83126   0.68329   0.00000  Uiso   1.00
O823   O     0.33072   0.74493   0.52729   0.00000  Uiso   1.00
H824   H     0.31473   0.72509   0.50273   0.00000  Uiso   1.00
O825   O     0.00262   0.92173   0.97271   0.00000  Uiso   1.00
H826   H     0.01861   0.94157   0.99727   0.00000  Uiso   1.00
Cl827  Cl    0.08895   0.73816   0.57387   0.00000  Uiso   1.00
Cl828  Cl    0.24439   0.92851   0.92613   0.00000  Uiso   1.00
Cl829  Cl    0.23031   0.68638   0.79601   0.00000  Uiso   1.00
Cl830  Cl    0.10302   0.98028   0.70399   0.00000  Uiso   1.00
Cl831  Cl    0.00572   0.88907   0.80320   0.00000  Uiso   1.00
Cl832  Cl    0.32761   0.77760   0.69680   0.00000  Uiso   1.00
C833   C     0.51444   0.93316   0.75181   0.00000  Uiso   1.00
C834   C     0.48556   0.73351   0.74819   0.00000  Uiso   1.00
C835   C     0.43421   0.78562   0.53426   0.00000  Uiso   1.00
C836   C     0.56579   0.88105   0.96574   0.00000  Uiso   1.00
C837   C     0.38757   0.77835   0.51070   0.00000  Uiso   1.00
C838   C     0.61243   0.88832   0.98930   0.00000  Uiso   1.00
C839   C     0.51804   0.98833   0.75855   0.00000  Uiso   1.00
C840   C     0.48196   0.67833   0.74145   0.00000  Uiso   1.00
C841   C     0.46167   0.82939   0.83307   0.00000  Uiso   1.00
C842   C     0.53833   0.83727   0.66693   0.00000  Uiso   1.00
C843   C     0.43876   0.82443   0.88071   0.00000  Uiso   1.00
C844   C     0.56124   0.84224   0.61929   0.00000  Uiso   1.00
C845   C     0.35651   0.79486   0.94445   0.00000  Uiso   1.00
C846   C     0.64349   0.87181   0.55555   0.00000  Uiso   1.00
C847   C     0.37488   0.80754   0.90043   0.00000  Uiso   1.00
C848   C     0.62512   0.85913   0.59957   0.00000  Uiso   1.00
C849   C     0.48264   0.83404   0.90656   0.00000  Uiso   1.00
C850   C     0.51736   0.83263   0.59344   0.00000  Uiso   1.00
C851   C     0.46413   0.82824   0.95194   0.00000  Uiso   1.00
C852   C     0.53587   0.83843   0.54806   0.00000  Uiso   1.00
C853   C     0.40169   0.80130   0.96971   0.00000  Uiso   1.00
C854   C     0.59831   0.86537   0.53029   0.00000  Uiso   1.00
C855   C     0.50778   0.84395   0.97892   0.00000  Uiso   1.00
C856   C     0.49222   0.82272   0.52108   0.00000  Uiso   1.00
Cu857  Cu    0.44071   0.82775   0.74517   0.00000  Uiso   1.00
Cu858  Cu    0.55929   0.83892   0.75484   0.00000  Uiso   1.00
H859   H     0.46791   0.82379   0.60937   0.00000  Uiso   1.00
H860   H     0.53209   0.84288   0.89063   0.00000  Uiso   1.00
H861   H     0.66026   0.86582   0.61867   0.00000  Uiso   1.00
H862   H     0.33974   0.80084   0.88133   0.00000  Uiso   1.00
H863   H     0.64042   0.77920   0.95801   0.00000  Uiso   1.00
H864   H     0.35958   0.88746   0.54199   0.00000  Uiso   1.00
N865   N     0.64839   0.84735   0.76212   0.00000  Uiso   1.00
N866   N     0.35161   0.81932   0.73788   0.00000  Uiso   1.00
O867   O     0.46148   0.90476   0.74686   0.00000  Uiso   1.00
O868   O     0.53852   0.76191   0.75314   0.00000  Uiso   1.00
O869   O     0.56163   0.91420   0.75503   0.00000  Uiso   1.00
O870   O     0.43837   0.75247   0.74498   0.00000  Uiso   1.00
O871   O     0.42185   0.82597   0.80855   0.00000  Uiso   1.00
O872   O     0.57815   0.84070   0.69146   0.00000  Uiso   1.00
O873   O     0.52199   0.83540   0.81671   0.00000  Uiso   1.00
O874   O     0.47801   0.83126   0.68329   0.00000  Uiso   1.00
O875   O     0.66405   0.74493   0.52729   0.00000  Uiso   1.00
H876   H     0.64806   0.72509   0.50273   0.00000  Uiso   1.00
O877   O     0.33595   0.92173   0.97271   0.00000  Uiso   1.00
H878   H     0.35194   0.94157   0.99727   0.00000  Uiso   1.00
Cl879  Cl    0.42228   0.73816   0.57387   0.00000  Uiso   1.00
Cl880  Cl    0.57772   0.92851   0.92613   0.00000  Uiso   1.00
Cl881  Cl    0.56364   0.68638   0.79601   0.00000  Uiso   1.00
Cl882  Cl    0.43635   0.98028   0.70399   0.00000  Uiso   1.00
Cl883  Cl    0.33906   0.88907   0.80320   0.00000  Uiso   1.00
Cl884  Cl    0.66094   0.77760   0.69680   0.00000  Uiso   1.00
C885   C     0.84778   0.93316   0.75181   0.00000  Uiso   1.00
C886   C     0.81889   0.73351   0.74819   0.00000  Uiso   1.00
C887   C     0.76754   0.78562   0.53426   0.00000  Uiso   1.00
C888   C     0.89912   0.88105   0.96574   0.00000  Uiso   1.00
C889   C     0.72091   0.77835   0.51070   0.00000  Uiso   1.00
C890   C     0.94576   0.88832   0.98930   0.00000  Uiso   1.00
C891   C     0.85138   0.98833   0.75855   0.00000  Uiso   1.00
C892   C     0.81529   0.67833   0.74145   0.00000  Uiso   1.00
C893   C     0.79500   0.82939   0.83307   0.00000  Uiso   1.00
C894   C     0.87166   0.83727   0.66693   0.00000  Uiso   1.00
C895   C     0.77209   0.82443   0.88071   0.00000  Uiso   1.00
C896   C     0.89458   0.84224   0.61929   0.00000  Uiso   1.00
C897   C     0.68984   0.79486   0.94445   0.00000  Uiso   1.00
C898   C     0.97683   0.87181   0.55555   0.00000  Uiso   1.00
C899   C     0.70822   0.80754   0.90043   0.00000  Uiso   1.00
C900   C     0.95845   0.85913   0.59957   0.00000  Uiso   1.00
C901   C     0.81597   0.83404   0.90656   0.00000  Uiso   1.00
C902   C     0.85070   0.83263   0.59344   0.00000  Uiso   1.00
C903   C     0.79746   0.82824   0.95194   0.00000  Uiso   1.00
C904   C     0.86921   0.83843   0.54806   0.00000  Uiso   1.00
C905   C     0.73502   0.80130   0.96971   0.00000  Uiso   1.00
C906   C     0.93165   0.86537   0.53029   0.00000  Uiso   1.00
C907   C     0.84112   0.84395   0.97892   0.00000  Uiso   1.00
C908   C     0.82555   0.82272   0.52108   0.00000  Uiso   1.00
Cu909  Cu    0.77404   0.82775   0.74517   0.00000  Uiso   1.00
Cu910  Cu    0.89263   0.83892   0.75484   0.00000  Uiso   1.00
H911   H     0.80124   0.82379   0.60937   0.00000  Uiso   1.00
H912   H     0.86542   0.84288   0.89063   0.00000  Uiso   1.00
H913   H     0.99359   0.86582   0.61867   0.00000  Uiso   1.00
H914   H     0.67307   0.80084   0.88133   0.00000  Uiso   1.00
H915   H     0.97375   0.77920   0.95801   0.00000  Uiso   1.00
H916   H     0.69292   0.88746   0.54199   0.00000  Uiso   1.00
N917   N     0.98173   0.84735   0.76212   0.00000  Uiso   1.00
N918   N     0.68494   0.81932   0.73788   0.00000  Uiso   1.00
O919   O     0.79482   0.90476   0.74686   0.00000  Uiso   1.00
O920   O     0.87185   0.76191   0.75314   0.00000  Uiso   1.00
O921   O     0.89496   0.91420   0.75503   0.00000  Uiso   1.00
O922   O     0.77171   0.75247   0.74498   0.00000  Uiso   1.00
O923   O     0.75518   0.82597   0.80855   0.00000  Uiso   1.00
O924   O     0.91149   0.84070   0.69146   0.00000  Uiso   1.00
O925   O     0.85532   0.83540   0.81671   0.00000  Uiso   1.00
O926   O     0.81134   0.83126   0.68329   0.00000  Uiso   1.00
O927   O     0.99738   0.74493   0.52729   0.00000  Uiso   1.00
H928   H     0.98140   0.72509   0.50273   0.00000  Uiso   1.00
O929   O     0.66929   0.92173   0.97271   0.00000  Uiso   1.00
H930   H     0.68527   0.94157   0.99727   0.00000  Uiso   1.00
Cl931  Cl    0.75561   0.73816   0.57387   0.00000  Uiso   1.00
Cl932  Cl    0.91106   0.92851   0.92613   0.00000  Uiso   1.00
Cl933  Cl    0.89698   0.68638   0.79601   0.00000  Uiso   1.00
Cl934  Cl    0.76969   0.98028   0.70399   0.00000  Uiso   1.00
Cl935  Cl    0.67239   0.88907   0.80320   0.00000  Uiso   1.00
Cl936  Cl    0.99428   0.77760   0.69680   0.00000  Uiso   1.00
loop_
_geom_bond_atom_site_label_1
_geom_bond_atom_site_label_2
_geom_bond_distance
_geom_bond_site_symmetry_2
_ccdc_geom_bond_type
C1     O37     1.298   .     A
C1     O35     1.289   .     A
C1     C7      1.428   .     S
C2     O38     1.298   .     A
C2     O36     1.289   .     A
C2     C8      1.428   .     S
C3     C24     1.429   .     A
C3     Cl47    1.776   .     S
C3     C5      1.400   .     A
C4     C6      1.400   .     A
C4     Cl48    1.776   .     S
C4     C23     1.429   .     A
C5     C489    1.410   1_554 S
C5     O147    1.383   1_455 S
C6     C490    1.410   .     S
C6     O97     1.383   .     S
C7     C164    1.353   .     S
C7     Cl205   1.779   .     S
C8     C319    1.353   1_545 S
C8     Cl362   1.779   1_545 S
C9     C11     1.468   .     S
C9     O41     1.301   .     A
C9     O39     1.306   .     A
C10    O42     1.301   .     A
C10    C12     1.468   .     S
C10    O40     1.306   .     A
C11    C15     1.398   .     A
C11    C17     1.397   .     A
C12    C18     1.397   .     A
C12    C16     1.398   .     A
C13    C21     1.413   .     A
C13    C15     1.395   .     A
C13    H135    1.082   1_455 S
C14    C22     1.413   .     A
C14    C16     1.395   .     A
C14    H84     1.082   .     S
C15    H30     1.083   .     S
C16    H29     1.083   .     S
C17    C19     1.399   .     A
C17    H28     1.079   .     S
C18    C20     1.399   .     A
C18    H27     1.079   .     S
C19    C23     1.423   .     A
C19    C21     1.417   .     A
C20    C22     1.417   .     A
C20    C24     1.423   .     A
C21    C473    1.410   .     S
C22    C474    1.410   1_554 S
C23    C492    1.420   .     S
C24    C491    1.420   1_554 S
Cu25   O42     1.922   .     S
Cu25   O38     1.961   .     S
Cu25   N34     2.031   .     S
Cu25   Cu26    2.704   .     S
Cu25   O39     1.939   .     S
Cu25   O35     1.964   .     S
Cu26   O37     1.961   .     S
Cu26   N33     2.031   .     S
Cu26   O40     1.939   .     S
Cu26   O36     1.964   .     S
Cu26   O41     1.922   .     S
H31    C65     1.082   .     S
H32    C118    1.082   1_455 S
N33    N86     1.285   .     S
N33    Cl103   1.726   .     S
N34    N137    1.285   1_455 S
N34    Cl156   1.726   1_455 S
O43    H44     0.989   .     S
O43    C57     1.383   .     S
O45    H46     0.989   .     S
O45    C110    1.383   1_455 S
Cl49   C319    1.779   1_545 S
Cl50   C164    1.779   .     S
Cl51   N137    1.726   1_455 S
Cl52   N86     1.726   .     S
C53    O89     1.298   .     A
C53    O87     1.289   .     A
C53    C59     1.428   .     S
C54    O90     1.298   .     A
C54    O88     1.289   .     A
C54    C60     1.428   .     S
C55    C76     1.429   .     A
C55    Cl99    1.776   .     S
C55    C57     1.400   .     A
C56    C58     1.400   .     A
C56    Cl100   1.776   .     S
C56    C75     1.429   .     A
C57    C541    1.410   1_554 S
C58    C542    1.410   .     S
C58    O149    1.383   .     S
C59    C216    1.353   .     S
C59    Cl257   1.779   .     S
C60    C371    1.353   1_545 S
C60    Cl414   1.779   1_545 S
C61    C63     1.468   .     S
C61    O93     1.301   .     A
C61    O91     1.306   .     A
C62    O94     1.301   .     A
C62    C64     1.468   .     S
C62    O92     1.306   .     A
C63    C67     1.398   .     A
C63    C69     1.397   .     A
C64    C70     1.397   .     A
C64    C68     1.398   .     A
C65    C73     1.413   .     A
C65    C67     1.395   .     A
C66    C74     1.413   .     A
C66    C68     1.395   .     A
C66    H136    1.082   .     S
C67    H82     1.083   .     S
C68    H81     1.083   .     S
C69    C71     1.399   .     A
C69    H80     1.079   .     S
C70    C72     1.399   .     A
C70    H79     1.079   .     S
C71    C75     1.423   .     A
C71    C73     1.417   .     A
C72    C74     1.417   .     A
C72    C76     1.423   .     A
C73    C525    1.410   .     S
C74    C526    1.410   1_554 S
C75    C544    1.420   .     S
C76    C543    1.420   1_554 S
Cu77   O94     1.922   .     S
Cu77   O90     1.961   .     S
Cu77   N86     2.031   .     S
Cu77   Cu78    2.704   .     S
Cu77   O91     1.939   .     S
Cu77   O87     1.964   .     S
Cu78   O89     1.961   .     S
Cu78   N85     2.031   .     S
Cu78   O92     1.939   .     S
Cu78   O88     1.964   .     S
Cu78   O93     1.922   .     S
H83    C117    1.082   .     S
N85    N138    1.285   .     S
N85    Cl155   1.726   .     S
O95    H96     0.989   .     S
O95    C109    1.383   .     S
O97    H98     0.989   .     S
Cl101  C371    1.779   1_545 S
Cl102  C216    1.779   .     S
Cl104  N138    1.726   .     S
C105   O141    1.298   .     A
C105   O139    1.289   .     A
C105   C111    1.428   .     S
C106   O142    1.298   .     A
C106   O140    1.289   .     A
C106   C112    1.428   .     S
C107   C128    1.429   .     A
C107   Cl151   1.776   .     S
C107   C109    1.400   .     A
C108   C110    1.400   .     A
C108   Cl152   1.776   .     S
C108   C127    1.429   .     A
C109   C593    1.410   1_554 S
C110   C594    1.410   .     S
C110   O45     1.383   1_655 S
C111   C268    1.353   .     S
C111   Cl309   1.779   .     S
C112   C423    1.353   1_545 S
C112   Cl466   1.779   1_545 S
C113   C115    1.468   .     S
C113   O145    1.301   .     A
C113   O143    1.306   .     A
C114   O146    1.301   .     A
C114   C116    1.468   .     S
C114   O144    1.306   .     A
C115   C119    1.398   .     A
C115   C121    1.397   .     A
C116   C122    1.397   .     A
C116   C120    1.398   .     A
C117   C125    1.413   .     A
C117   C119    1.395   .     A
C118   C126    1.413   .     A
C118   C120    1.395   .     A
C118   H32     1.082   1_655 S
C119   H134    1.083   .     S
C120   H133    1.083   .     S
C121   C123    1.399   .     A
C121   H132    1.079   .     S
C122   C124    1.399   .     A
C122   H131    1.079   .     S
C123   C127    1.423   .     A
C123   C125    1.417   .     A
C124   C126    1.417   .     A
C124   C128    1.423   .     A
C125   C577    1.410   .     S
C126   C578    1.410   1_554 S
C127   C596    1.420   .     S
C128   C595    1.420   1_554 S
Cu129  O146    1.922   .     S
Cu129  O142    1.961   .     S
Cu129  N138    2.031   .     S
Cu129  Cu130   2.704   .     S
Cu129  O143    1.939   .     S
Cu129  O139    1.964   .     S
Cu130  O141    1.961   .     S
Cu130  N137    2.031   .     S
Cu130  O144    1.939   .     S
Cu130  O140    1.964   .     S
Cu130  O145    1.922   .     S
H135   C13     1.082   1_655 S
N137   N34     1.285   1_655 S
N137   Cl51    1.726   1_655 S
O147   H148    0.989   .     S
O147   C5      1.383   1_655 S
O149   H150    0.989   .     S
Cl153  C423    1.779   1_545 S
Cl154  C268    1.779   .     S
Cl156  N34     1.726   1_655 S
C157   O193    1.298   .     A
C157   O191    1.289   .     A
C157   C163    1.428   .     S
C158   O194    1.298   .     A
C158   O192    1.289   .     A
C158   C164    1.428   .     S
C159   C180    1.429   .     A
C159   Cl203   1.776   .     S
C159   C161    1.400   .     A
C160   C162    1.400   .     A
C160   Cl204   1.776   .     S
C160   C179    1.429   .     A
C161   C645    1.410   1_554 S
C161   O303    1.383   1_455 S
C162   C646    1.410   .     S
C162   O253    1.383   .     S
C163   C320    1.353   .     S
C163   Cl361   1.779   .     S
C165   C167    1.468   .     S
C165   O197    1.301   .     A
C165   O195    1.306   .     A
C166   O198    1.301   .     A
C166   C168    1.468   .     S
C166   O196    1.306   .     A
C167   C171    1.398   .     A
C167   C173    1.397   .     A
C168   C174    1.397   .     A
C168   C172    1.398   .     A
C169   C177    1.413   .     A
C169   C171    1.395   .     A
C169   H291    1.082   1_455 S
C170   C178    1.413   .     A
C170   C172    1.395   .     A
C170   H240    1.082   .     S
C171   H186    1.083   .     S
C172   H185    1.083   .     S
C173   C175    1.399   .     A
C173   H184    1.079   .     S
C174   C176    1.399   .     A
C174   H183    1.079   .     S
C175   C179    1.423   .     A
C175   C177    1.417   .     A
C176   C178    1.417   .     A
C176   C180    1.423   .     A
C177   C629    1.410   .     S
C178   C630    1.410   1_554 S
C179   C648    1.420   .     S
C180   C647    1.420   1_554 S
Cu181  O198    1.922   .     S
Cu181  O194    1.961   .     S
Cu181  N190    2.031   .     S
Cu181  Cu182   2.704   .     S
Cu181  O195    1.939   .     S
Cu181  O191    1.964   .     S
Cu182  O193    1.961   .     S
Cu182  N189    2.031   .     S
Cu182  O196    1.939   .     S
Cu182  O192    1.964   .     S
Cu182  O197    1.922   .     S
H187   C221    1.082   .     S
H188   C274    1.082   1_455 S
N189   N242    1.285   .     S
N189   Cl259   1.726   .     S
N190   N293    1.285   1_455 S
N190   Cl312   1.726   1_455 S
O199   H200    0.989   .     S
O199   C213    1.383   .     S
O201   H202    0.989   .     S
O201   C266    1.383   1_455 S
Cl206  C320    1.779   .     S
Cl207  N293    1.726   1_455 S
Cl208  N242    1.726   .     S
C209   O245    1.298   .     A
C209   O243    1.289   .     A
C209   C215    1.428   .     S
C210   O246    1.298   .     A
C210   O244    1.289   .     A
C210   C216    1.428   .     S
C211   C232    1.429   .     A
C211   Cl255   1.776   .     S
C211   C213    1.400   .     A
C212   C214    1.400   .     A
C212   Cl256   1.776   .     S
C212   C231    1.429   .     A
C213   C697    1.410   1_554 S
C214   C698    1.410   .     S
C214   O305    1.383   .     S
C215   C372    1.353   .     S
C215   Cl413   1.779   .     S
C217   C219    1.468   .     S
C217   O249    1.301   .     A
C217   O247    1.306   .     A
C218   O250    1.301   .     A
C218   C220    1.468   .     S
C218   O248    1.306   .     A
C219   C223    1.398   .     A
C219   C225    1.397   .     A
C220   C226    1.397   .     A
C220   C224    1.398   .     A
C221   C229    1.413   .     A
C221   C223    1.395   .     A
C222   C230    1.413   .     A
C222   C224    1.395   .     A
C222   H292    1.082   .     S
C223   H238    1.083   .     S
C224   H237    1.083   .     S
C225   C227    1.399   .     A
C225   H236    1.079   .     S
C226   C228    1.399   .     A
C226   H235    1.079   .     S
C227   C231    1.423   .     A
C227   C229    1.417   .     A
C228   C230    1.417   .     A
C228   C232    1.423   .     A
C229   C681    1.410   .     S
C230   C682    1.410   1_554 S
C231   C700    1.420   .     S
C232   C699    1.420   1_554 S
Cu233  O250    1.922   .     S
Cu233  O246    1.961   .     S
Cu233  N242    2.031   .     S
Cu233  Cu234   2.704   .     S
Cu233  O247    1.939   .     S
Cu233  O243    1.964   .     S
Cu234  O245    1.961   .     S
Cu234  N241    2.031   .     S
Cu234  O248    1.939   .     S
Cu234  O244    1.964   .     S
Cu234  O249    1.922   .     S
H239   C273    1.082   .     S
N241   N294    1.285   .     S
N241   Cl311   1.726   .     S
O251   H252    0.989   .     S
O251   C265    1.383   .     S
O253   H254    0.989   .     S
Cl258  C372    1.779   .     S
Cl260  N294    1.726   .     S
C261   O297    1.298   .     A
C261   O295    1.289   .     A
C261   C267    1.428   .     S
C262   O298    1.298   .     A
C262   O296    1.289   .     A
C262   C268    1.428   .     S
C263   C284    1.429   .     A
C263   Cl307   1.776   .     S
C263   C265    1.400   .     A
C264   C266    1.400   .     A
C264   Cl308   1.776   .     S
C264   C283    1.429   .     A
C265   C749    1.410   1_554 S
C266   C750    1.410   .     S
C266   O201    1.383   1_655 S
C267   C424    1.353   .     S
C267   Cl465   1.779   .     S
C269   C271    1.468   .     S
C269   O301    1.301   .     A
C269   O299    1.306   .     A
C270   O302    1.301   .     A
C270   C272    1.468   .     S
C270   O300    1.306   .     A
C271   C275    1.398   .     A
C271   C277    1.397   .     A
C272   C278    1.397   .     A
C272   C276    1.398   .     A
C273   C281    1.413   .     A
C273   C275    1.395   .     A
C274   C282    1.413   .     A
C274   C276    1.395   .     A
C274   H188    1.082   1_655 S
C275   H290    1.083   .     S
C276   H289    1.083   .     S
C277   C279    1.399   .     A
C277   H288    1.079   .     S
C278   C280    1.399   .     A
C278   H287    1.079   .     S
C279   C283    1.423   .     A
C279   C281    1.417   .     A
C280   C282    1.417   .     A
C280   C284    1.423   .     A
C281   C733    1.410   .     S
C282   C734    1.410   1_554 S
C283   C752    1.420   .     S
C284   C751    1.420   1_554 S
Cu285  O302    1.922   .     S
Cu285  O298    1.961   .     S
Cu285  N294    2.031   .     S
Cu285  Cu286   2.704   .     S
Cu285  O299    1.939   .     S
Cu285  O295    1.964   .     S
Cu286  O297    1.961   .     S
Cu286  N293    2.031   .     S
Cu286  O300    1.939   .     S
Cu286  O296    1.964   .     S
Cu286  O301    1.922   .     S
H291   C169    1.082   1_655 S
N293   N190    1.285   1_655 S
N293   Cl207   1.726   1_655 S
O303   H304    0.989   .     S
O303   C161    1.383   1_655 S
O305   H306    0.989   .     S
Cl310  C424    1.779   .     S
Cl312  N190    1.726   1_655 S
C313   O349    1.298   .     A
C313   O347    1.289   .     A
C313   C319    1.428   .     S
C314   O350    1.298   .     A
C314   O348    1.289   .     A
C314   C320    1.428   .     S
C315   C336    1.429   .     A
C315   Cl359   1.776   .     S
C315   C317    1.400   .     A
C316   C318    1.400   .     A
C316   Cl360   1.776   .     S
C316   C335    1.429   .     A
C317   C801    1.410   1_554 S
C317   O459    1.383   1_455 S
C318   C802    1.410   .     S
C318   O409    1.383   .     S
C319   C8      1.353   1_565 S
C319   Cl49    1.779   1_565 S
C321   C323    1.468   .     S
C321   O353    1.301   .     A
C321   O351    1.306   .     A
C322   O354    1.301   .     A
C322   C324    1.468   .     S
C322   O352    1.306   .     A
C323   C327    1.398   .     A
C323   C329    1.397   .     A
C324   C330    1.397   .     A
C324   C328    1.398   .     A
C325   C333    1.413   .     A
C325   C327    1.395   .     A
C325   H447    1.082   1_455 S
C326   C334    1.413   .     A
C326   C328    1.395   .     A
C326   H396    1.082   .     S
C327   H342    1.083   .     S
C328   H341    1.083   .     S
C329   C331    1.399   .     A
C329   H340    1.079   .     S
C330   C332    1.399   .     A
C330   H339    1.079   .     S
C331   C335    1.423   .     A
C331   C333    1.417   .     A
C332   C334    1.417   .     A
C332   C336    1.423   .     A
C333   C785    1.410   .     S
C334   C786    1.410   1_554 S
C335   C804    1.420   .     S
C336   C803    1.420   1_554 S
Cu337  O354    1.922   .     S
Cu337  O350    1.961   .     S
Cu337  N346    2.031   .     S
Cu337  Cu338   2.704   .     S
Cu337  O351    1.939   .     S
Cu337  O347    1.964   .     S
Cu338  O349    1.961   .     S
Cu338  N345    2.031   .     S
Cu338  O352    1.939   .     S
Cu338  O348    1.964   .     S
Cu338  O353    1.922   .     S
H343   C377    1.082   .     S
H344   C430    1.082   1_455 S
N345   N398    1.285   .     S
N345   Cl415   1.726   .     S
N346   N449    1.285   1_455 S
N346   Cl468   1.726   1_455 S
O355   H356    0.989   .     S
O355   C369    1.383   .     S
O357   H358    0.989   .     S
O357   C422    1.383   1_455 S
Cl362  C8      1.779   1_565 S
Cl363  N449    1.726   1_455 S
Cl364  N398    1.726   .     S
C365   O401    1.298   .     A
C365   O399    1.289   .     A
C365   C371    1.428   .     S
C366   O402    1.298   .     A
C366   O400    1.289   .     A
C366   C372    1.428   .     S
C367   C388    1.429   .     A
C367   Cl411   1.776   .     S
C367   C369    1.400   .     A
C368   C370    1.400   .     A
C368   Cl412   1.776   .     S
C368   C387    1.429   .     A
C369   C853    1.410   1_554 S
C370   C854    1.410   .     S
C370   O461    1.383   .     S
C371   C60     1.353   1_565 S
C371   Cl101   1.779   1_565 S
C373   C375    1.468   .     S
C373   O405    1.301   .     A
C373   O403    1.306   .     A
C374   O406    1.301   .     A
C374   C376    1.468   .     S
C374   O404    1.306   .     A
C375   C379    1.398   .     A
C375   C381    1.397   .     A
C376   C382    1.397   .     A
C376   C380    1.398   .     A
C377   C385    1.413   .     A
C377   C379    1.395   .     A
C378   C386    1.413   .     A
C378   C380    1.395   .     A
C378   H448    1.082   .     S
C379   H394    1.083   .     S
C380   H393    1.083   .     S
C381   C383    1.399   .     A
C381   H392    1.079   .     S
C382   C384    1.399   .     A
C382   H391    1.079   .     S
C383   C387    1.423   .     A
C383   C385    1.417   .     A
C384   C386    1.417   .     A
C384   C388    1.423   .     A
C385   C837    1.410   .     S
C386   C838    1.410   1_554 S
C387   C856    1.420   .     S
C388   C855    1.420   1_554 S
Cu389  O406    1.922   .     S
Cu389  O402    1.961   .     S
Cu389  N398    2.031   .     S
Cu389  Cu390   2.704   .     S
Cu389  O403    1.939   .     S
Cu389  O399    1.964   .     S
Cu390  O401    1.961   .     S
Cu390  N397    2.031   .     S
Cu390  O404    1.939   .     S
Cu390  O400    1.964   .     S
Cu390  O405    1.922   .     S
H395   C429    1.082   .     S
N397   N450    1.285   .     S
N397   Cl467   1.726   .     S
O407   H408    0.989   .     S
O407   C421    1.383   .     S
O409   H410    0.989   .     S
Cl414  C60     1.779   1_565 S
Cl416  N450    1.726   .     S
C417   O453    1.298   .     A
C417   O451    1.289   .     A
C417   C423    1.428   .     S
C418   O454    1.298   .     A
C418   O452    1.289   .     A
C418   C424    1.428   .     S
C419   C440    1.429   .     A
C419   Cl463   1.776   .     S
C419   C421    1.400   .     A
C420   C422    1.400   .     A
C420   Cl464   1.776   .     S
C420   C439    1.429   .     A
C421   C905    1.410   1_554 S
C422   C906    1.410   .     S
C422   O357    1.383   1_655 S
C423   C112    1.353   1_565 S
C423   Cl153   1.779   1_565 S
C425   C427    1.468   .     S
C425   O457    1.301   .     A
C425   O455    1.306   .     A
C426   O458    1.301   .     A
C426   C428    1.468   .     S
C426   O456    1.306   .     A
C427   C431    1.398   .     A
C427   C433    1.397   .     A
C428   C434    1.397   .     A
C428   C432    1.398   .     A
C429   C437    1.413   .     A
C429   C431    1.395   .     A
C430   C438    1.413   .     A
C430   C432    1.395   .     A
C430   H344    1.082   1_655 S
C431   H446    1.083   .     S
C432   H445    1.083   .     S
C433   C435    1.399   .     A
C433   H444    1.079   .     S
C434   C436    1.399   .     A
C434   H443    1.079   .     S
C435   C439    1.423   .     A
C435   C437    1.417   .     A
C436   C438    1.417   .     A
C436   C440    1.423   .     A
C437   C889    1.410   .     S
C438   C890    1.410   1_554 S
C439   C908    1.420   .     S
C440   C907    1.420   1_554 S
Cu441  O458    1.922   .     S
Cu441  O454    1.961   .     S
Cu441  N450    2.031   .     S
Cu441  Cu442   2.704   .     S
Cu441  O455    1.939   .     S
Cu441  O451    1.964   .     S
Cu442  O453    1.961   .     S
Cu442  N449    2.031   .     S
Cu442  O456    1.939   .     S
Cu442  O452    1.964   .     S
Cu442  O457    1.922   .     S
H447   C325    1.082   1_655 S
N449   N346    1.285   1_655 S
N449   Cl363   1.726   1_655 S
O459   H460    0.989   .     S
O459   C317    1.383   1_655 S
O461   H462    0.989   .     S
Cl466  C112    1.779   1_565 S
Cl468  N346    1.726   1_655 S
C469   O505    1.298   .     A
C469   O503    1.289   .     A
C469   C475    1.428   .     S
C470   O506    1.298   .     A
C470   O504    1.289   .     A
C470   C476    1.428   .     S
C471   C492    1.429   .     A
C471   Cl515   1.776   .     S
C471   C473    1.400   .     A
C472   C474    1.400   .     A
C472   Cl516   1.776   .     S
C472   C491    1.429   .     A
C473   O615    1.383   1_455 S
C474   C22     1.410   1_556 S
C474   O565    1.383   .     S
C475   C632    1.353   .     S
C475   Cl673   1.779   .     S
C476   C787    1.353   1_545 S
C476   Cl830   1.779   1_545 S
C477   C479    1.468   .     S
C477   O509    1.301   .     A
C477   O507    1.306   .     A
C478   O510    1.301   .     A
C478   C480    1.468   .     S
C478   O508    1.306   .     A
C479   C483    1.398   .     A
C479   C485    1.397   .     A
C480   C486    1.397   .     A
C480   C484    1.398   .     A
C481   C489    1.413   .     A
C481   C483    1.395   .     A
C481   H603    1.082   1_455 S
C482   C490    1.413   .     A
C482   C484    1.395   .     A
C482   H552    1.082   .     S
C483   H498    1.083   .     S
C484   H497    1.083   .     S
C485   C487    1.399   .     A
C485   H496    1.079   .     S
C486   C488    1.399   .     A
C486   H495    1.079   .     S
C487   C491    1.423   .     A
C487   C489    1.417   .     A
C488   C490    1.417   .     A
C488   C492    1.423   .     A
C489   C5      1.410   1_556 S
C491   C24     1.420   1_556 S
Cu493  O510    1.922   .     S
Cu493  O506    1.961   .     S
Cu493  N502    2.031   .     S
Cu493  Cu494   2.704   .     S
Cu493  O507    1.939   .     S
Cu493  O503    1.964   .     S
Cu494  O505    1.961   .     S
Cu494  N501    2.031   .     S
Cu494  O508    1.939   .     S
Cu494  O504    1.964   .     S
Cu494  O509    1.922   .     S
H499   C533    1.082   .     S
H500   C586    1.082   1_455 S
N501   N554    1.285   .     S
N501   Cl571   1.726   .     S
N502   N605    1.285   1_455 S
N502   Cl624   1.726   1_455 S
O511   H512    0.989   .     S
O511   C525    1.383   .     S
O513   H514    0.989   .     S
O513   C578    1.383   1_455 S
Cl517  C787    1.779   1_545 S
Cl518  C632    1.779   .     S
Cl519  N605    1.726   1_455 S
Cl520  N554    1.726   .     S
C521   O557    1.298   .     A
C521   O555    1.289   .     A
C521   C527    1.428   .     S
C522   O558    1.298   .     A
C522   O556    1.289   .     A
C522   C528    1.428   .     S
C523   C544    1.429   .     A
C523   Cl567   1.776   .     S
C523   C525    1.400   .     A
C524   C526    1.400   .     A
C524   Cl568   1.776   .     S
C524   C543    1.429   .     A
C526   C74     1.410   1_556 S
C526   O617    1.383   .     S
C527   C684    1.353   .     S
C527   Cl725   1.779   .     S
C528   C839    1.353   1_545 S
C528   Cl882   1.779   1_545 S
C529   C531    1.468   .     S
C529   O561    1.301   .     A
C529   O559    1.306   .     A
C530   O562    1.301   .     A
C530   C532    1.468   .     S
C530   O560    1.306   .     A
C531   C535    1.398   .     A
C531   C537    1.397   .     A
C532   C538    1.397   .     A
C532   C536    1.398   .     A
C533   C541    1.413   .     A
C533   C535    1.395   .     A
C534   C542    1.413   .     A
C534   C536    1.395   .     A
C534   H604    1.082   .     S
C535   H550    1.083   .     S
C536   H549    1.083   .     S
C537   C539    1.399   .     A
C537   H548    1.079   .     S
C538   C540    1.399   .     A
C538   H547    1.079   .     S
C539   C543    1.423   .     A
C539   C541    1.417   .     A
C540   C542    1.417   .     A
C540   C544    1.423   .     A
C541   C57     1.410   1_556 S
C543   C76     1.420   1_556 S
Cu545  O562    1.922   .     S
Cu545  O558    1.961   .     S
Cu545  N554    2.031   .     S
Cu545  Cu546   2.704   .     S
Cu545  O559    1.939   .     S
Cu545  O555    1.964   .     S
Cu546  O557    1.961   .     S
Cu546  N553    2.031   .     S
Cu546  O560    1.939   .     S
Cu546  O556    1.964   .     S
Cu546  O561    1.922   .     S
H551   C585    1.082   .     S
N553   N606    1.285   .     S
N553   Cl623   1.726   .     S
O563   H564    0.989   .     S
O563   C577    1.383   .     S
O565   H566    0.989   .     S
Cl569  C839    1.779   1_545 S
Cl570  C684    1.779   .     S
Cl572  N606    1.726   .     S
C573   O609    1.298   .     A
C573   O607    1.289   .     A
C573   C579    1.428   .     S
C574   O610    1.298   .     A
C574   O608    1.289   .     A
C574   C580    1.428   .     S
C575   C596    1.429   .     A
C575   Cl619   1.776   .     S
C575   C577    1.400   .     A
C576   C578    1.400   .     A
C576   Cl620   1.776   .     S
C576   C595    1.429   .     A
C578   C126    1.410   1_556 S
C578   O513    1.383   1_655 S
C579   C736    1.353   .     S
C579   Cl777   1.779   .     S
C580   C891    1.353   1_545 S
C580   Cl934   1.779   1_545 S
C581   C583    1.468   .     S
C581   O613    1.301   .     A
C581   O611    1.306   .     A
C582   O614    1.301   .     A
C582   C584    1.468   .     S
C582   O612    1.306   .     A
C583   C587    1.398   .     A
C583   C589    1.397   .     A
C584   C590    1.397   .     A
C584   C588    1.398   .     A
C585   C593    1.413   .     A
C585   C587    1.395   .     A
C586   C594    1.413   .     A
C586   C588    1.395   .     A
C586   H500    1.082   1_655 S
C587   H602    1.083   .     S
C588   H601    1.083   .     S
C589   C591    1.399   .     A
C589   H600    1.079   .     S
C590   C592    1.399   .     A
C590   H599    1.079   .     S
C591   C595    1.423   .     A
C591   C593    1.417   .     A
C592   C594    1.417   .     A
C592   C596    1.423   .     A
C593   C109    1.410   1_556 S
C595   C128    1.420   1_556 S
Cu597  O614    1.922   .     S
Cu597  O610    1.961   .     S
Cu597  N606    2.031   .     S
Cu597  Cu598   2.704   .     S
Cu597  O611    1.939   .     S
Cu597  O607    1.964   .     S
Cu598  O609    1.961   .     S
Cu598  N605    2.031   .     S
Cu598  O612    1.939   .     S
Cu598  O608    1.964   .     S
Cu598  O613    1.922   .     S
H603   C481    1.082   1_655 S
N605   N502    1.285   1_655 S
N605   Cl519   1.726   1_655 S
O615   H616    0.989   .     S
O615   C473    1.383   1_655 S
O617   H618    0.989   .     S
Cl621  C891    1.779   1_545 S
Cl622  C736    1.779   .     S
Cl624  N502    1.726   1_655 S
C625   O661    1.298   .     A
C625   O659    1.289   .     A
C625   C631    1.428   .     S
C626   O662    1.298   .     A
C626   O660    1.289   .     A
C626   C632    1.428   .     S
C627   C648    1.429   .     A
C627   Cl671   1.776   .     S
C627   C629    1.400   .     A
C628   C630    1.400   .     A
C628   Cl672   1.776   .     S
C628   C647    1.429   .     A
C629   O771    1.383   1_455 S
C630   C178    1.410   1_556 S
C630   O721    1.383   .     S
C631   C788    1.353   .     S
C631   Cl829   1.779   .     S
C633   C635    1.468   .     S
C633   O665    1.301   .     A
C633   O663    1.306   .     A
C634   O666    1.301   .     A
C634   C636    1.468   .     S
C634   O664    1.306   .     A
C635   C639    1.398   .     A
C635   C641    1.397   .     A
C636   C642    1.397   .     A
C636   C640    1.398   .     A
C637   C645    1.413   .     A
C637   C639    1.395   .     A
C637   H759    1.082   1_455 S
C638   C646    1.413   .     A
C638   C640    1.395   .     A
C638   H708    1.082   .     S
C639   H654    1.083   .     S
C640   H653    1.083   .     S
C641   C643    1.399   .     A
C641   H652    1.079   .     S
C642   C644    1.399   .     A
C642   H651    1.079   .     S
C643   C647    1.423   .     A
C643   C645    1.417   .     A
C644   C646    1.417   .     A
C644   C648    1.423   .     A
C645   C161    1.410   1_556 S
C647   C180    1.420   1_556 S
Cu649  O666    1.922   .     S
Cu649  O662    1.961   .     S
Cu649  N658    2.031   .     S
Cu649  Cu650   2.704   .     S
Cu649  O663    1.939   .     S
Cu649  O659    1.964   .     S
Cu650  O661    1.961   .     S
Cu650  N657    2.031   .     S
Cu650  O664    1.939   .     S
Cu650  O660    1.964   .     S
Cu650  O665    1.922   .     S
H655   C689    1.082   .     S
H656   C742    1.082   1_455 S
N657   N710    1.285   .     S
N657   Cl727   1.726   .     S
N658   N761    1.285   1_455 S
N658   Cl780   1.726   1_455 S
O667   H668    0.989   .     S
O667   C681    1.383   .     S
O669   H670    0.989   .     S
O669   C734    1.383   1_455 S
Cl674  C788    1.779   .     S
Cl675  N761    1.726   1_455 S
Cl676  N710    1.726   .     S
C677   O713    1.298   .     A
C677   O711    1.289   .     A
C677   C683    1.428   .     S
C678   O714    1.298   .     A
C678   O712    1.289   .     A
C678   C684    1.428   .     S
C679   C700    1.429   .     A
C679   Cl723   1.776   .     S
C679   C681    1.400   .     A
C680   C682    1.400   .     A
C680   Cl724   1.776   .     S
C680   C699    1.429   .     A
C682   C230    1.410   1_556 S
C682   O773    1.383   .     S
C683   C840    1.353   .     S
C683   Cl881   1.779   .     S
C685   C687    1.468   .     S
C685   O717    1.301   .     A
C685   O715    1.306   .     A
C686   O718    1.301   .     A
C686   C688    1.468   .     S
C686   O716    1.306   .     A
C687   C691    1.398   .     A
C687   C693    1.397   .     A
C688   C694    1.397   .     A
C688   C692    1.398   .     A
C689   C697    1.413   .     A
C689   C691    1.395   .     A
C690   C698    1.413   .     A
C690   C692    1.395   .     A
C690   H760    1.082   .     S
C691   H706    1.083   .     S
C692   H705    1.083   .     S
C693   C695    1.399   .     A
C693   H704    1.079   .     S
C694   C696    1.399   .     A
C694   H703    1.079   .     S
C695   C699    1.423   .     A
C695   C697    1.417   .     A
C696   C698    1.417   .     A
C696   C700    1.423   .     A
C697   C213    1.410   1_556 S
C699   C232    1.420   1_556 S
Cu701  O718    1.922   .     S
Cu701  O714    1.961   .     S
Cu701  N710    2.031   .     S
Cu701  Cu702   2.704   .     S
Cu701  O715    1.939   .     S
Cu701  O711    1.964   .     S
Cu702  O713    1.961   .     S
Cu702  N709    2.031   .     S
Cu702  O716    1.939   .     S
Cu702  O712    1.964   .     S
Cu702  O717    1.922   .     S
H707   C741    1.082   .     S
N709   N762    1.285   .     S
N709   Cl779   1.726   .     S
O719   H720    0.989   .     S
O719   C733    1.383   .     S
O721   H722    0.989   .     S
Cl726  C840    1.779   .     S
Cl728  N762    1.726   .     S
C729   O765    1.298   .     A
C729   O763    1.289   .     A
C729   C735    1.428   .     S
C730   O766    1.298   .     A
C730   O764    1.289   .     A
C730   C736    1.428   .     S
C731   C752    1.429   .     A
C731   Cl775   1.776   .     S
C731   C733    1.400   .     A
C732   C734    1.400   .     A
C732   Cl776   1.776   .     S
C732   C751    1.429   .     A
C734   C282    1.410   1_556 S
C734   O669    1.383   1_655 S
C735   C892    1.353   .     S
C735   Cl933   1.779   .     S
C737   C739    1.468   .     S
C737   O769    1.301   .     A
C737   O767    1.306   .     A
C738   O770    1.301   .     A
C738   C740    1.468   .     S
C738   O768    1.306   .     A
C739   C743    1.398   .     A
C739   C745    1.397   .     A
C740   C746    1.397   .     A
C740   C744    1.398   .     A
C741   C749    1.413   .     A
C741   C743    1.395   .     A
C742   C750    1.413   .     A
C742   C744    1.395   .     A
C742   H656    1.082   1_655 S
C743   H758    1.083   .     S
C744   H757    1.083   .     S
C745   C747    1.399   .     A
C745   H756    1.079   .     S
C746   C748    1.399   .     A
C746   H755    1.079   .     S
C747   C751    1.423   .     A
C747   C749    1.417   .     A
C748   C750    1.417   .     A
C748   C752    1.423   .     A
C749   C265    1.410   1_556 S
C751   C284    1.420   1_556 S
Cu753  O770    1.922   .     S
Cu753  O766    1.961   .     S
Cu753  N762    2.031   .     S
Cu753  Cu754   2.704   .     S
Cu753  O767    1.939   .     S
Cu753  O763    1.964   .     S
Cu754  O765    1.961   .     S
Cu754  N761    2.031   .     S
Cu754  O768    1.939   .     S
Cu754  O764    1.964   .     S
Cu754  O769    1.922   .     S
H759   C637    1.082   1_655 S
N761   N658    1.285   1_655 S
N761   Cl675   1.726   1_655 S
O771   H772    0.989   .     S
O771   C629    1.383   1_655 S
O773   H774    0.989   .     S
Cl778  C892    1.779   .     S
Cl780  N658    1.726   1_655 S
C781   O817    1.298   .     A
C781   O815    1.289   .     A
C781   C787    1.428   .     S
C782   O818    1.298   .     A
C782   O816    1.289   .     A
C782   C788    1.428   .     S
C783   C804    1.429   .     A
C783   Cl827   1.776   .     S
C783   C785    1.400   .     A
C784   C786    1.400   .     A
C784   Cl828   1.776   .     S
C784   C803    1.429   .     A
C785   O927    1.383   1_455 S
C786   C334    1.410   1_556 S
C786   O877    1.383   .     S
C787   C476    1.353   1_565 S
C787   Cl517   1.779   1_565 S
C789   C791    1.468   .     S
C789   O821    1.301   .     A
C789   O819    1.306   .     A
C790   O822    1.301   .     A
C790   C792    1.468   .     S
C790   O820    1.306   .     A
C791   C795    1.398   .     A
C791   C797    1.397   .     A
C792   C798    1.397   .     A
C792   C796    1.398   .     A
C793   C801    1.413   .     A
C793   C795    1.395   .     A
C793   H915    1.082   1_455 S
C794   C802    1.413   .     A
C794   C796    1.395   .     A
C794   H864    1.082   .     S
C795   H810    1.083   .     S
C796   H809    1.083   .     S
C797   C799    1.399   .     A
C797   H808    1.079   .     S
C798   C800    1.399   .     A
C798   H807    1.079   .     S
C799   C803    1.423   .     A
C799   C801    1.417   .     A
C800   C802    1.417   .     A
C800   C804    1.423   .     A
C801   C317    1.410   1_556 S
C803   C336    1.420   1_556 S
Cu805  O822    1.922   .     S
Cu805  O818    1.961   .     S
Cu805  N814    2.031   .     S
Cu805  Cu806   2.704   .     S
Cu805  O819    1.939   .     S
Cu805  O815    1.964   .     S
Cu806  O817    1.961   .     S
Cu806  N813    2.031   .     S
Cu806  O820    1.939   .     S
Cu806  O816    1.964   .     S
Cu806  O821    1.922   .     S
H811   C845    1.082   .     S
H812   C898    1.082   1_455 S
N813   N866    1.285   .     S
N813   Cl883   1.726   .     S
N814   N917    1.285   1_455 S
N814   Cl936   1.726   1_455 S
O823   H824    0.989   .     S
O823   C837    1.383   .     S
O825   H826    0.989   .     S
O825   C890    1.383   1_455 S
Cl830  C476    1.779   1_565 S
Cl831  N917    1.726   1_455 S
Cl832  N866    1.726   .     S
C833   O869    1.298   .     A
C833   O867    1.289   .     A
C833   C839    1.428   .     S
C834   O870    1.298   .     A
C834   O868    1.289   .     A
C834   C840    1.428   .     S
C835   C856    1.429   .     A
C835   Cl879   1.776   .     S
C835   C837    1.400   .     A
C836   C838    1.400   .     A
C836   Cl880   1.776   .     S
C836   C855    1.429   .     A
C838   C386    1.410   1_556 S
C838   O929    1.383   .     S
C839   C528    1.353   1_565 S
C839   Cl569   1.779   1_565 S
C841   C843    1.468   .     S
C841   O873    1.301   .     A
C841   O871    1.306   .     A
C842   O874    1.301   .     A
C842   C844    1.468   .     S
C842   O872    1.306   .     A
C843   C847    1.398   .     A
C843   C849    1.397   .     A
C844   C850    1.397   .     A
C844   C848    1.398   .     A
C845   C853    1.413   .     A
C845   C847    1.395   .     A
C846   C854    1.413   .     A
C846   C848    1.395   .     A
C846   H916    1.082   .     S
C847   H862    1.083   .     S
C848   H861    1.083   .     S
C849   C851    1.399   .     A
C849   H860    1.079   .     S
C850   C852    1.399   .     A
C850   H859    1.079   .     S
C851   C855    1.423   .     A
C851   C853    1.417   .     A
C852   C854    1.417   .     A
C852   C856    1.423   .     A
C853   C369    1.410   1_556 S
C855   C388    1.420   1_556 S
Cu857  O874    1.922   .     S
Cu857  O870    1.961   .     S
Cu857  N866    2.031   .     S
Cu857  Cu858   2.704   .     S
Cu857  O871    1.939   .     S
Cu857  O867    1.964   .     S
Cu858  O869    1.961   .     S
Cu858  N865    2.031   .     S
Cu858  O872    1.939   .     S
Cu858  O868    1.964   .     S
Cu858  O873    1.922   .     S
H863   C897    1.082   .     S
N865   N918    1.285   .     S
N865   Cl935   1.726   .     S
O875   H876    0.989   .     S
O875   C889    1.383   .     S
O877   H878    0.989   .     S
Cl882  C528    1.779   1_565 S
Cl884  N918    1.726   .     S
C885   O921    1.298   .     A
C885   O919    1.289   .     A
C885   C891    1.428   .     S
C886   O922    1.298   .     A
C886   O920    1.289   .     A
C886   C892    1.428   .     S
C887   C908    1.429   .     A
C887   Cl931   1.776   .     S
C887   C889    1.400   .     A
C888   C890    1.400   .     A
C888   Cl932   1.776   .     S
C888   C907    1.429   .     A
C890   C438    1.410   1_556 S
C890   O825    1.383   1_655 S
C891   C580    1.353   1_565 S
C891   Cl621   1.779   1_565 S
C893   C895    1.468   .     S
C893   O925    1.301   .     A
C893   O923    1.306   .     A
C894   O926    1.301   .     A
C894   C896    1.468   .     S
C894   O924    1.306   .     A
C895   C899    1.398   .     A
C895   C901    1.397   .     A
C896   C902    1.397   .     A
C896   C900    1.398   .     A
C897   C905    1.413   .     A
C897   C899    1.395   .     A
C898   C906    1.413   .     A
C898   C900    1.395   .     A
C898   H812    1.082   1_655 S
C899   H914    1.083   .     S
C900   H913    1.083   .     S
C901   C903    1.399   .     A
C901   H912    1.079   .     S
C902   C904    1.399   .     A
C902   H911    1.079   .     S
C903   C907    1.423   .     A
C903   C905    1.417   .     A
C904   C906    1.417   .     A
C904   C908    1.423   .     A
C905   C421    1.410   1_556 S
C907   C440    1.420   1_556 S
Cu909  O926    1.922   .     S
Cu909  O922    1.961   .     S
Cu909  N918    2.031   .     S
Cu909  Cu910   2.704   .     S
Cu909  O923    1.939   .     S
Cu909  O919    1.964   .     S
Cu910  O921    1.961   .     S
Cu910  N917    2.031   .     S
Cu910  O924    1.939   .     S
Cu910  O920    1.964   .     S
Cu910  O925    1.922   .     S
H915   C793    1.082   1_655 S
N917   N814    1.285   1_655 S
N917   Cl831   1.726   1_655 S
O927   H928    0.989   .     S
O927   C785    1.383   1_655 S
O929   H930    0.989   .     S
Cl934  C580    1.779   1_565 S
Cl936  N814    1.726   1_655 S
