data_str_m2_o10_o17_pcu_sym.71
_audit_creation_date              2020-01-03
_audit_creation_method            'Materials Studio'
_symmetry_space_group_name_H-M    'P1'
_symmetry_Int_Tables_number       1
_symmetry_cell_setting            triclinic
loop_
_symmetry_equiv_pos_as_xyz
  x,y,z
_cell_length_a                    29.9641
_cell_length_b                    25.9721
_cell_length_c                    22.6014
_cell_angle_alpha                 103.0706
_cell_angle_beta                  94.1414
_cell_angle_gamma                 93.6936
loop_
_atom_site_label
_atom_site_type_symbol
_atom_site_fract_x
_atom_site_fract_y
_atom_site_fract_z
_atom_site_U_iso_or_equiv
_atom_site_adp_type
_atom_site_occupancy
Br1    Br    0.02922   0.00265   0.07410   0.00000  Uiso   1.00
Br2    Br    0.47078   0.33069   0.25922   0.00000  Uiso   1.00
Br3    Br    0.19217   0.10191   0.30214   0.00000  Uiso   1.00
Br4    Br    0.30783   0.23142   0.03119   0.00000  Uiso   1.00
C5     C     0.24882   0.06668   0.15106   0.00000  Uiso   1.00
C6     C     0.08922   0.11672   0.14062   0.00000  Uiso   1.00
C7     C     0.38355   0.17002   0.16448   0.00000  Uiso   1.00
C8     C     0.11645   0.16331   0.16885   0.00000  Uiso   1.00
C9     C     0.40195   0.12431   0.13569   0.00000  Uiso   1.00
C10    C     0.09805   0.20903   0.19764   0.00000  Uiso   1.00
C11    C     0.44814   0.12276   0.13688   0.00000  Uiso   1.00
C12    C     0.05186   0.21057   0.19646   0.00000  Uiso   1.00
C13    C     0.47656   0.16813   0.16606   0.00000  Uiso   1.00
C14    C     0.02344   0.16520   0.16727   0.00000  Uiso   1.00
C15    C     0.45813   0.21615   0.19406   0.00000  Uiso   1.00
C16    C     0.25118   0.26666   0.18227   0.00000  Uiso   1.00
C17    C     0.04187   0.11719   0.13927   0.00000  Uiso   1.00
C18    C     0.46591   0.07565   0.11011   0.00000  Uiso   1.00
C19    C     0.03409   0.25768   0.22323   0.00000  Uiso   1.00
C20    C     0.37471   0.28861   0.18015   0.00000  Uiso   1.00
C21    C     0.12529   0.04472   0.15317   0.00000  Uiso   1.00
C22    C     0.01203   0.07203   0.11114   0.00000  Uiso   1.00
C23    C     0.48797   0.26130   0.22219   0.00000  Uiso   1.00
C24    C     0.24787   0.01052   0.14250   0.00000  Uiso   1.00
C25    C     0.25213   0.32281   0.19083   0.00000  Uiso   1.00
C26    C     0.16465   0.16547   0.16724   0.00000  Uiso   1.00
C27    C     0.33535   0.16786   0.16610   0.00000  Uiso   1.00
C28    C     0.41078   0.21661   0.19271   0.00000  Uiso   1.00
Cu29   Cu    0.25500   0.17246   0.22813   0.00000  Uiso   1.00
Cu30   Cu    0.24499   0.16087   0.10521   0.00000  Uiso   1.00
H31    H     0.37999   0.08915   0.11407   0.00000  Uiso   1.00
H32    H     0.15732   0.06442   0.17759   0.00000  Uiso   1.00
H33    H     0.13237   0.00457   0.12817   0.00000  Uiso   1.00
H34    H     0.10048   0.03950   0.18626   0.00000  Uiso   1.00
H35    H     0.12001   0.24418   0.21927   0.00000  Uiso   1.00
H36    H     0.44358   0.04089   0.08852   0.00000  Uiso   1.00
H37    H     0.05642   0.29244   0.24481   0.00000  Uiso   1.00
H38    H     0.24348   0.31975   0.09609   0.00000  Uiso   1.00
H39    H     0.25652   0.01358   0.23725   0.00000  Uiso   1.00
H40    H     0.36765   0.32877   0.20515   0.00000  Uiso   1.00
H41    H     0.34267   0.26892   0.15575   0.00000  Uiso   1.00
H42    H     0.39951   0.29380   0.14704   0.00000  Uiso   1.00
N43    N     0.23744   0.15214   0.01284   0.00000  Uiso   1.00
N44    N     0.26255   0.18119   0.32049   0.00000  Uiso   1.00
O45    O     0.25325   0.09538   0.20659   0.00000  Uiso   1.00
O46    O     0.10900   0.07271   0.11042   0.00000  Uiso   1.00
O47    O     0.24674   0.23796   0.12674   0.00000  Uiso   1.00
O48    O     0.24480   0.08559   0.10279   0.00000  Uiso   1.00
O49    O     0.25520   0.24774   0.23055   0.00000  Uiso   1.00
O50    O     0.18935   0.17155   0.21857   0.00000  Uiso   1.00
O51    O     0.31064   0.16179   0.11476   0.00000  Uiso   1.00
O52    O     0.18090   0.16176   0.11477   0.00000  Uiso   1.00
O53    O     0.31910   0.17157   0.21857   0.00000  Uiso   1.00
O54    O     0.39100   0.26062   0.22291   0.00000  Uiso   1.00
Br55   Br    0.52922   0.00265   0.07410   0.00000  Uiso   1.00
Br56   Br    0.97078   0.33069   0.25922   0.00000  Uiso   1.00
Br57   Br    0.69217   0.10191   0.30214   0.00000  Uiso   1.00
Br58   Br    0.80783   0.23142   0.03119   0.00000  Uiso   1.00
C59    C     0.74882   0.06668   0.15106   0.00000  Uiso   1.00
C60    C     0.58922   0.11672   0.14062   0.00000  Uiso   1.00
C61    C     0.88355   0.17002   0.16448   0.00000  Uiso   1.00
C62    C     0.61645   0.16331   0.16885   0.00000  Uiso   1.00
C63    C     0.90195   0.12431   0.13569   0.00000  Uiso   1.00
C64    C     0.59805   0.20903   0.19764   0.00000  Uiso   1.00
C65    C     0.94814   0.12276   0.13688   0.00000  Uiso   1.00
C66    C     0.55186   0.21057   0.19646   0.00000  Uiso   1.00
C67    C     0.97656   0.16813   0.16606   0.00000  Uiso   1.00
C68    C     0.52344   0.16520   0.16727   0.00000  Uiso   1.00
C69    C     0.95813   0.21615   0.19406   0.00000  Uiso   1.00
C70    C     0.75118   0.26666   0.18227   0.00000  Uiso   1.00
C71    C     0.54187   0.11719   0.13927   0.00000  Uiso   1.00
C72    C     0.96591   0.07565   0.11011   0.00000  Uiso   1.00
C73    C     0.53409   0.25768   0.22323   0.00000  Uiso   1.00
C74    C     0.87471   0.28861   0.18015   0.00000  Uiso   1.00
C75    C     0.62529   0.04472   0.15317   0.00000  Uiso   1.00
C76    C     0.51203   0.07203   0.11114   0.00000  Uiso   1.00
C77    C     0.98797   0.26130   0.22219   0.00000  Uiso   1.00
C78    C     0.74787   0.01052   0.14250   0.00000  Uiso   1.00
C79    C     0.75213   0.32281   0.19083   0.00000  Uiso   1.00
C80    C     0.66465   0.16547   0.16724   0.00000  Uiso   1.00
C81    C     0.83535   0.16786   0.16610   0.00000  Uiso   1.00
C82    C     0.91078   0.21661   0.19271   0.00000  Uiso   1.00
Cu83   Cu    0.75500   0.17246   0.22813   0.00000  Uiso   1.00
Cu84   Cu    0.74499   0.16087   0.10521   0.00000  Uiso   1.00
H85    H     0.87999   0.08915   0.11407   0.00000  Uiso   1.00
H86    H     0.65732   0.06442   0.17759   0.00000  Uiso   1.00
H87    H     0.63237   0.00457   0.12817   0.00000  Uiso   1.00
H88    H     0.60048   0.03950   0.18626   0.00000  Uiso   1.00
H89    H     0.62001   0.24418   0.21927   0.00000  Uiso   1.00
H90    H     0.94358   0.04089   0.08852   0.00000  Uiso   1.00
H91    H     0.55642   0.29244   0.24481   0.00000  Uiso   1.00
H92    H     0.74348   0.31975   0.09609   0.00000  Uiso   1.00
H93    H     0.75652   0.01358   0.23725   0.00000  Uiso   1.00
H94    H     0.86765   0.32877   0.20515   0.00000  Uiso   1.00
H95    H     0.84267   0.26892   0.15575   0.00000  Uiso   1.00
H96    H     0.89951   0.29380   0.14704   0.00000  Uiso   1.00
N97    N     0.73744   0.15214   0.01284   0.00000  Uiso   1.00
N98    N     0.76255   0.18119   0.32049   0.00000  Uiso   1.00
O99    O     0.75325   0.09538   0.20659   0.00000  Uiso   1.00
O100   O     0.60900   0.07271   0.11042   0.00000  Uiso   1.00
O101   O     0.74674   0.23796   0.12674   0.00000  Uiso   1.00
O102   O     0.74480   0.08559   0.10279   0.00000  Uiso   1.00
O103   O     0.75520   0.24774   0.23055   0.00000  Uiso   1.00
O104   O     0.68935   0.17155   0.21857   0.00000  Uiso   1.00
O105   O     0.81064   0.16179   0.11476   0.00000  Uiso   1.00
O106   O     0.68090   0.16176   0.11477   0.00000  Uiso   1.00
O107   O     0.81910   0.17157   0.21857   0.00000  Uiso   1.00
O108   O     0.89100   0.26062   0.22291   0.00000  Uiso   1.00
Br109  Br    0.02922   0.33598   0.07410   0.00000  Uiso   1.00
Br110  Br    0.47078   0.66402   0.25922   0.00000  Uiso   1.00
Br111  Br    0.19217   0.43524   0.30214   0.00000  Uiso   1.00
Br112  Br    0.30783   0.56476   0.03119   0.00000  Uiso   1.00
C113   C     0.24882   0.40001   0.15106   0.00000  Uiso   1.00
C114   C     0.08922   0.45005   0.14062   0.00000  Uiso   1.00
C115   C     0.38355   0.50336   0.16448   0.00000  Uiso   1.00
C116   C     0.11645   0.49664   0.16885   0.00000  Uiso   1.00
C117   C     0.40195   0.45764   0.13569   0.00000  Uiso   1.00
C118   C     0.09805   0.54236   0.19764   0.00000  Uiso   1.00
C119   C     0.44814   0.45609   0.13688   0.00000  Uiso   1.00
C120   C     0.05186   0.54390   0.19646   0.00000  Uiso   1.00
C121   C     0.47656   0.50146   0.16606   0.00000  Uiso   1.00
C122   C     0.02344   0.49853   0.16727   0.00000  Uiso   1.00
C123   C     0.45813   0.54948   0.19406   0.00000  Uiso   1.00
C124   C     0.25118   0.59999   0.18227   0.00000  Uiso   1.00
C125   C     0.04187   0.45052   0.13927   0.00000  Uiso   1.00
C126   C     0.46591   0.40899   0.11011   0.00000  Uiso   1.00
C127   C     0.03409   0.59101   0.22323   0.00000  Uiso   1.00
C128   C     0.37471   0.62194   0.18015   0.00000  Uiso   1.00
C129   C     0.12529   0.37805   0.15317   0.00000  Uiso   1.00
C130   C     0.01203   0.40536   0.11114   0.00000  Uiso   1.00
C131   C     0.48797   0.59464   0.22219   0.00000  Uiso   1.00
C132   C     0.24787   0.34385   0.14250   0.00000  Uiso   1.00
C133   C     0.25213   0.65615   0.19083   0.00000  Uiso   1.00
C134   C     0.16465   0.49880   0.16724   0.00000  Uiso   1.00
C135   C     0.33535   0.50119   0.16610   0.00000  Uiso   1.00
C136   C     0.41078   0.54995   0.19271   0.00000  Uiso   1.00
Cu137  Cu    0.25500   0.50579   0.22813   0.00000  Uiso   1.00
Cu138  Cu    0.24499   0.49421   0.10521   0.00000  Uiso   1.00
H139   H     0.37999   0.42249   0.11407   0.00000  Uiso   1.00
H140   H     0.15732   0.39775   0.17759   0.00000  Uiso   1.00
H141   H     0.13237   0.33790   0.12817   0.00000  Uiso   1.00
H142   H     0.10048   0.37284   0.18626   0.00000  Uiso   1.00
H143   H     0.12001   0.57751   0.21927   0.00000  Uiso   1.00
H144   H     0.44358   0.37422   0.08852   0.00000  Uiso   1.00
H145   H     0.05642   0.62578   0.24481   0.00000  Uiso   1.00
H146   H     0.24348   0.65308   0.09609   0.00000  Uiso   1.00
H147   H     0.25652   0.34692   0.23725   0.00000  Uiso   1.00
H148   H     0.36765   0.66210   0.20515   0.00000  Uiso   1.00
H149   H     0.34267   0.60225   0.15575   0.00000  Uiso   1.00
H150   H     0.39951   0.62713   0.14704   0.00000  Uiso   1.00
N151   N     0.23744   0.48547   0.01284   0.00000  Uiso   1.00
N152   N     0.26255   0.51453   0.32049   0.00000  Uiso   1.00
O153   O     0.25325   0.42871   0.20659   0.00000  Uiso   1.00
O154   O     0.10900   0.40605   0.11042   0.00000  Uiso   1.00
O155   O     0.24674   0.57129   0.12674   0.00000  Uiso   1.00
O156   O     0.24480   0.41892   0.10279   0.00000  Uiso   1.00
O157   O     0.25520   0.58108   0.23055   0.00000  Uiso   1.00
O158   O     0.18935   0.50488   0.21857   0.00000  Uiso   1.00
O159   O     0.31064   0.49512   0.11476   0.00000  Uiso   1.00
O160   O     0.18090   0.49510   0.11477   0.00000  Uiso   1.00
O161   O     0.31910   0.50490   0.21857   0.00000  Uiso   1.00
O162   O     0.39100   0.59395   0.22291   0.00000  Uiso   1.00
Br163  Br    0.52922   0.33598   0.07410   0.00000  Uiso   1.00
Br164  Br    0.97078   0.66402   0.25922   0.00000  Uiso   1.00
Br165  Br    0.69217   0.43524   0.30214   0.00000  Uiso   1.00
Br166  Br    0.80783   0.56476   0.03119   0.00000  Uiso   1.00
C167   C     0.74882   0.40001   0.15106   0.00000  Uiso   1.00
C168   C     0.58922   0.45005   0.14062   0.00000  Uiso   1.00
C169   C     0.88355   0.50336   0.16448   0.00000  Uiso   1.00
C170   C     0.61645   0.49664   0.16885   0.00000  Uiso   1.00
C171   C     0.90195   0.45764   0.13569   0.00000  Uiso   1.00
C172   C     0.59805   0.54236   0.19764   0.00000  Uiso   1.00
C173   C     0.94814   0.45609   0.13688   0.00000  Uiso   1.00
C174   C     0.55186   0.54390   0.19646   0.00000  Uiso   1.00
C175   C     0.97656   0.50146   0.16606   0.00000  Uiso   1.00
C176   C     0.52344   0.49853   0.16727   0.00000  Uiso   1.00
C177   C     0.95813   0.54948   0.19406   0.00000  Uiso   1.00
C178   C     0.75118   0.59999   0.18227   0.00000  Uiso   1.00
C179   C     0.54187   0.45052   0.13927   0.00000  Uiso   1.00
C180   C     0.96591   0.40899   0.11011   0.00000  Uiso   1.00
C181   C     0.53409   0.59101   0.22323   0.00000  Uiso   1.00
C182   C     0.87471   0.62194   0.18015   0.00000  Uiso   1.00
C183   C     0.62529   0.37805   0.15317   0.00000  Uiso   1.00
C184   C     0.51203   0.40536   0.11114   0.00000  Uiso   1.00
C185   C     0.98797   0.59464   0.22219   0.00000  Uiso   1.00
C186   C     0.74787   0.34385   0.14250   0.00000  Uiso   1.00
C187   C     0.75213   0.65615   0.19083   0.00000  Uiso   1.00
C188   C     0.66465   0.49880   0.16724   0.00000  Uiso   1.00
C189   C     0.83535   0.50119   0.16610   0.00000  Uiso   1.00
C190   C     0.91078   0.54995   0.19271   0.00000  Uiso   1.00
Cu191  Cu    0.75500   0.50579   0.22813   0.00000  Uiso   1.00
Cu192  Cu    0.74499   0.49421   0.10521   0.00000  Uiso   1.00
H193   H     0.87999   0.42249   0.11407   0.00000  Uiso   1.00
H194   H     0.65732   0.39775   0.17759   0.00000  Uiso   1.00
H195   H     0.63237   0.33790   0.12817   0.00000  Uiso   1.00
H196   H     0.60048   0.37284   0.18626   0.00000  Uiso   1.00
H197   H     0.62001   0.57751   0.21927   0.00000  Uiso   1.00
H198   H     0.94358   0.37422   0.08852   0.00000  Uiso   1.00
H199   H     0.55642   0.62578   0.24481   0.00000  Uiso   1.00
H200   H     0.74348   0.65308   0.09609   0.00000  Uiso   1.00
H201   H     0.75652   0.34692   0.23725   0.00000  Uiso   1.00
H202   H     0.86765   0.66210   0.20515   0.00000  Uiso   1.00
H203   H     0.84267   0.60225   0.15575   0.00000  Uiso   1.00
H204   H     0.89951   0.62713   0.14704   0.00000  Uiso   1.00
N205   N     0.73744   0.48547   0.01284   0.00000  Uiso   1.00
N206   N     0.76255   0.51453   0.32049   0.00000  Uiso   1.00
O207   O     0.75325   0.42871   0.20659   0.00000  Uiso   1.00
O208   O     0.60900   0.40605   0.11042   0.00000  Uiso   1.00
O209   O     0.74674   0.57129   0.12674   0.00000  Uiso   1.00
O210   O     0.74480   0.41892   0.10279   0.00000  Uiso   1.00
O211   O     0.75520   0.58108   0.23055   0.00000  Uiso   1.00
O212   O     0.68935   0.50488   0.21857   0.00000  Uiso   1.00
O213   O     0.81064   0.49512   0.11476   0.00000  Uiso   1.00
O214   O     0.68090   0.49510   0.11477   0.00000  Uiso   1.00
O215   O     0.81910   0.50490   0.21857   0.00000  Uiso   1.00
O216   O     0.89100   0.59395   0.22291   0.00000  Uiso   1.00
Br217  Br    0.02922   0.66931   0.07410   0.00000  Uiso   1.00
Br218  Br    0.47078   0.99735   0.25922   0.00000  Uiso   1.00
Br219  Br    0.19217   0.76858   0.30214   0.00000  Uiso   1.00
Br220  Br    0.30783   0.89809   0.03119   0.00000  Uiso   1.00
C221   C     0.24882   0.73334   0.15106   0.00000  Uiso   1.00
C222   C     0.08922   0.78338   0.14062   0.00000  Uiso   1.00
C223   C     0.38355   0.83669   0.16448   0.00000  Uiso   1.00
C224   C     0.11645   0.82997   0.16885   0.00000  Uiso   1.00
C225   C     0.40195   0.79097   0.13569   0.00000  Uiso   1.00
C226   C     0.09805   0.87569   0.19764   0.00000  Uiso   1.00
C227   C     0.44814   0.78943   0.13688   0.00000  Uiso   1.00
C228   C     0.05186   0.87724   0.19646   0.00000  Uiso   1.00
C229   C     0.47656   0.83480   0.16606   0.00000  Uiso   1.00
C230   C     0.02344   0.83187   0.16727   0.00000  Uiso   1.00
C231   C     0.45813   0.88281   0.19406   0.00000  Uiso   1.00
C232   C     0.25118   0.93332   0.18227   0.00000  Uiso   1.00
C233   C     0.04187   0.78385   0.13927   0.00000  Uiso   1.00
C234   C     0.46591   0.74232   0.11011   0.00000  Uiso   1.00
C235   C     0.03409   0.92434   0.22323   0.00000  Uiso   1.00
C236   C     0.37471   0.95528   0.18015   0.00000  Uiso   1.00
C237   C     0.12529   0.71139   0.15317   0.00000  Uiso   1.00
C238   C     0.01203   0.73870   0.11114   0.00000  Uiso   1.00
C239   C     0.48797   0.92797   0.22219   0.00000  Uiso   1.00
C240   C     0.24787   0.67719   0.14250   0.00000  Uiso   1.00
C241   C     0.25213   0.98948   0.19083   0.00000  Uiso   1.00
C242   C     0.16465   0.83214   0.16724   0.00000  Uiso   1.00
C243   C     0.33535   0.83453   0.16610   0.00000  Uiso   1.00
C244   C     0.41078   0.88328   0.19271   0.00000  Uiso   1.00
Cu245  Cu    0.25500   0.83913   0.22813   0.00000  Uiso   1.00
Cu246  Cu    0.24499   0.82754   0.10521   0.00000  Uiso   1.00
H247   H     0.37999   0.75582   0.11407   0.00000  Uiso   1.00
H248   H     0.15732   0.73109   0.17759   0.00000  Uiso   1.00
H249   H     0.13237   0.67124   0.12817   0.00000  Uiso   1.00
H250   H     0.10048   0.70617   0.18626   0.00000  Uiso   1.00
H251   H     0.12001   0.91084   0.21927   0.00000  Uiso   1.00
H252   H     0.44358   0.70756   0.08852   0.00000  Uiso   1.00
H253   H     0.05642   0.95911   0.24481   0.00000  Uiso   1.00
H254   H     0.24348   0.98642   0.09609   0.00000  Uiso   1.00
H255   H     0.25652   0.68025   0.23725   0.00000  Uiso   1.00
H256   H     0.36765   0.99544   0.20515   0.00000  Uiso   1.00
H257   H     0.34267   0.93559   0.15575   0.00000  Uiso   1.00
H258   H     0.39951   0.96047   0.14704   0.00000  Uiso   1.00
N259   N     0.23744   0.81881   0.01284   0.00000  Uiso   1.00
N260   N     0.26255   0.84786   0.32049   0.00000  Uiso   1.00
O261   O     0.25325   0.76204   0.20659   0.00000  Uiso   1.00
O262   O     0.10900   0.73938   0.11042   0.00000  Uiso   1.00
O263   O     0.24674   0.90462   0.12674   0.00000  Uiso   1.00
O264   O     0.24480   0.75226   0.10279   0.00000  Uiso   1.00
O265   O     0.25520   0.91441   0.23055   0.00000  Uiso   1.00
O266   O     0.18935   0.83821   0.21857   0.00000  Uiso   1.00
O267   O     0.31064   0.82845   0.11476   0.00000  Uiso   1.00
O268   O     0.18090   0.82843   0.11477   0.00000  Uiso   1.00
O269   O     0.31910   0.83824   0.21857   0.00000  Uiso   1.00
O270   O     0.39100   0.92729   0.22291   0.00000  Uiso   1.00
Br271  Br    0.52922   0.66931   0.07410   0.00000  Uiso   1.00
Br272  Br    0.97078   0.99735   0.25922   0.00000  Uiso   1.00
Br273  Br    0.69217   0.76858   0.30214   0.00000  Uiso   1.00
Br274  Br    0.80783   0.89809   0.03119   0.00000  Uiso   1.00
C275   C     0.74882   0.73334   0.15106   0.00000  Uiso   1.00
C276   C     0.58922   0.78338   0.14062   0.00000  Uiso   1.00
C277   C     0.88355   0.83669   0.16448   0.00000  Uiso   1.00
C278   C     0.61645   0.82997   0.16885   0.00000  Uiso   1.00
C279   C     0.90195   0.79097   0.13569   0.00000  Uiso   1.00
C280   C     0.59805   0.87569   0.19764   0.00000  Uiso   1.00
C281   C     0.94814   0.78943   0.13688   0.00000  Uiso   1.00
C282   C     0.55186   0.87724   0.19646   0.00000  Uiso   1.00
C283   C     0.97656   0.83480   0.16606   0.00000  Uiso   1.00
C284   C     0.52344   0.83187   0.16727   0.00000  Uiso   1.00
C285   C     0.95813   0.88281   0.19406   0.00000  Uiso   1.00
C286   C     0.75118   0.93332   0.18227   0.00000  Uiso   1.00
C287   C     0.54187   0.78385   0.13927   0.00000  Uiso   1.00
C288   C     0.96591   0.74232   0.11011   0.00000  Uiso   1.00
C289   C     0.53409   0.92434   0.22323   0.00000  Uiso   1.00
C290   C     0.87471   0.95528   0.18015   0.00000  Uiso   1.00
C291   C     0.62529   0.71139   0.15317   0.00000  Uiso   1.00
C292   C     0.51203   0.73870   0.11114   0.00000  Uiso   1.00
C293   C     0.98797   0.92797   0.22219   0.00000  Uiso   1.00
C294   C     0.74787   0.67719   0.14250   0.00000  Uiso   1.00
C295   C     0.75213   0.98948   0.19083   0.00000  Uiso   1.00
C296   C     0.66465   0.83214   0.16724   0.00000  Uiso   1.00
C297   C     0.83535   0.83453   0.16610   0.00000  Uiso   1.00
C298   C     0.91078   0.88328   0.19271   0.00000  Uiso   1.00
Cu299  Cu    0.75500   0.83913   0.22813   0.00000  Uiso   1.00
Cu300  Cu    0.74499   0.82754   0.10521   0.00000  Uiso   1.00
H301   H     0.87999   0.75582   0.11407   0.00000  Uiso   1.00
H302   H     0.65732   0.73109   0.17759   0.00000  Uiso   1.00
H303   H     0.63237   0.67124   0.12817   0.00000  Uiso   1.00
H304   H     0.60048   0.70617   0.18626   0.00000  Uiso   1.00
H305   H     0.62001   0.91084   0.21927   0.00000  Uiso   1.00
H306   H     0.94358   0.70756   0.08852   0.00000  Uiso   1.00
H307   H     0.55642   0.95911   0.24481   0.00000  Uiso   1.00
H308   H     0.74348   0.98642   0.09609   0.00000  Uiso   1.00
H309   H     0.75652   0.68025   0.23725   0.00000  Uiso   1.00
H310   H     0.86765   0.99544   0.20515   0.00000  Uiso   1.00
H311   H     0.84267   0.93559   0.15575   0.00000  Uiso   1.00
H312   H     0.89951   0.96047   0.14704   0.00000  Uiso   1.00
N313   N     0.73744   0.81881   0.01284   0.00000  Uiso   1.00
N314   N     0.76255   0.84786   0.32049   0.00000  Uiso   1.00
O315   O     0.75325   0.76204   0.20659   0.00000  Uiso   1.00
O316   O     0.60900   0.73938   0.11042   0.00000  Uiso   1.00
O317   O     0.74674   0.90462   0.12674   0.00000  Uiso   1.00
O318   O     0.74480   0.75226   0.10279   0.00000  Uiso   1.00
O319   O     0.75520   0.91441   0.23055   0.00000  Uiso   1.00
O320   O     0.68935   0.83821   0.21857   0.00000  Uiso   1.00
O321   O     0.81064   0.82845   0.11476   0.00000  Uiso   1.00
O322   O     0.68090   0.82843   0.11477   0.00000  Uiso   1.00
O323   O     0.81910   0.83824   0.21857   0.00000  Uiso   1.00
O324   O     0.89100   0.92729   0.22291   0.00000  Uiso   1.00
Br325  Br    0.02922   0.00265   0.40744   0.00000  Uiso   1.00
Br326  Br    0.47078   0.33069   0.59255   0.00000  Uiso   1.00
Br327  Br    0.19217   0.10191   0.63548   0.00000  Uiso   1.00
Br328  Br    0.30783   0.23142   0.36452   0.00000  Uiso   1.00
C329   C     0.24882   0.06668   0.48440   0.00000  Uiso   1.00
C330   C     0.08922   0.11672   0.47396   0.00000  Uiso   1.00
C331   C     0.38355   0.17002   0.49782   0.00000  Uiso   1.00
C332   C     0.11645   0.16331   0.50218   0.00000  Uiso   1.00
C333   C     0.40195   0.12431   0.46903   0.00000  Uiso   1.00
C334   C     0.09805   0.20903   0.53097   0.00000  Uiso   1.00
C335   C     0.44814   0.12276   0.47021   0.00000  Uiso   1.00
C336   C     0.05186   0.21057   0.52979   0.00000  Uiso   1.00
C337   C     0.47656   0.16813   0.49940   0.00000  Uiso   1.00
C338   C     0.02344   0.16520   0.50060   0.00000  Uiso   1.00
C339   C     0.45813   0.21615   0.52739   0.00000  Uiso   1.00
C340   C     0.25118   0.26666   0.51560   0.00000  Uiso   1.00
C341   C     0.04187   0.11719   0.47260   0.00000  Uiso   1.00
C342   C     0.46591   0.07565   0.44344   0.00000  Uiso   1.00
C343   C     0.03409   0.25768   0.55656   0.00000  Uiso   1.00
C344   C     0.37471   0.28861   0.51349   0.00000  Uiso   1.00
C345   C     0.12529   0.04472   0.48650   0.00000  Uiso   1.00
C346   C     0.01203   0.07203   0.44447   0.00000  Uiso   1.00
C347   C     0.48797   0.26130   0.55553   0.00000  Uiso   1.00
C348   C     0.24787   0.01052   0.47584   0.00000  Uiso   1.00
C349   C     0.25213   0.32281   0.52416   0.00000  Uiso   1.00
C350   C     0.16465   0.16547   0.50057   0.00000  Uiso   1.00
C351   C     0.33535   0.16786   0.49943   0.00000  Uiso   1.00
C352   C     0.41078   0.21661   0.52604   0.00000  Uiso   1.00
Cu353  Cu    0.25500   0.17246   0.56146   0.00000  Uiso   1.00
Cu354  Cu    0.24499   0.16087   0.43854   0.00000  Uiso   1.00
H355   H     0.37999   0.08915   0.44740   0.00000  Uiso   1.00
H356   H     0.15732   0.06442   0.51093   0.00000  Uiso   1.00
H357   H     0.13237   0.00457   0.46150   0.00000  Uiso   1.00
H358   H     0.10048   0.03950   0.51960   0.00000  Uiso   1.00
H359   H     0.12001   0.24418   0.55260   0.00000  Uiso   1.00
H360   H     0.44358   0.04089   0.42186   0.00000  Uiso   1.00
H361   H     0.05642   0.29244   0.57814   0.00000  Uiso   1.00
H362   H     0.24348   0.31975   0.42942   0.00000  Uiso   1.00
H363   H     0.25652   0.01358   0.57058   0.00000  Uiso   1.00
H364   H     0.36765   0.32877   0.53848   0.00000  Uiso   1.00
H365   H     0.34267   0.26892   0.48909   0.00000  Uiso   1.00
H366   H     0.39951   0.29380   0.48037   0.00000  Uiso   1.00
N367   N     0.23744   0.15214   0.34617   0.00000  Uiso   1.00
N368   N     0.26255   0.18119   0.65383   0.00000  Uiso   1.00
O369   O     0.25325   0.09538   0.53992   0.00000  Uiso   1.00
O370   O     0.10900   0.07271   0.44375   0.00000  Uiso   1.00
O371   O     0.24674   0.23796   0.46008   0.00000  Uiso   1.00
O372   O     0.24480   0.08559   0.43612   0.00000  Uiso   1.00
O373   O     0.25520   0.24774   0.56388   0.00000  Uiso   1.00
O374   O     0.18935   0.17155   0.55191   0.00000  Uiso   1.00
O375   O     0.31064   0.16179   0.44809   0.00000  Uiso   1.00
O376   O     0.18090   0.16176   0.44810   0.00000  Uiso   1.00
O377   O     0.31910   0.17157   0.55190   0.00000  Uiso   1.00
O378   O     0.39100   0.26062   0.55624   0.00000  Uiso   1.00
Br379  Br    0.52922   0.00265   0.40744   0.00000  Uiso   1.00
Br380  Br    0.97078   0.33069   0.59255   0.00000  Uiso   1.00
Br381  Br    0.69217   0.10191   0.63548   0.00000  Uiso   1.00
Br382  Br    0.80783   0.23142   0.36452   0.00000  Uiso   1.00
C383   C     0.74882   0.06668   0.48440   0.00000  Uiso   1.00
C384   C     0.58922   0.11672   0.47396   0.00000  Uiso   1.00
C385   C     0.88355   0.17002   0.49782   0.00000  Uiso   1.00
C386   C     0.61645   0.16331   0.50218   0.00000  Uiso   1.00
C387   C     0.90195   0.12431   0.46903   0.00000  Uiso   1.00
C388   C     0.59805   0.20903   0.53097   0.00000  Uiso   1.00
C389   C     0.94814   0.12276   0.47021   0.00000  Uiso   1.00
C390   C     0.55186   0.21057   0.52979   0.00000  Uiso   1.00
C391   C     0.97656   0.16813   0.49940   0.00000  Uiso   1.00
C392   C     0.52344   0.16520   0.50060   0.00000  Uiso   1.00
C393   C     0.95813   0.21615   0.52739   0.00000  Uiso   1.00
C394   C     0.75118   0.26666   0.51560   0.00000  Uiso   1.00
C395   C     0.54187   0.11719   0.47260   0.00000  Uiso   1.00
C396   C     0.96591   0.07565   0.44344   0.00000  Uiso   1.00
C397   C     0.53409   0.25768   0.55656   0.00000  Uiso   1.00
C398   C     0.87471   0.28861   0.51349   0.00000  Uiso   1.00
C399   C     0.62529   0.04472   0.48650   0.00000  Uiso   1.00
C400   C     0.51203   0.07203   0.44447   0.00000  Uiso   1.00
C401   C     0.98797   0.26130   0.55553   0.00000  Uiso   1.00
C402   C     0.74787   0.01052   0.47584   0.00000  Uiso   1.00
C403   C     0.75213   0.32281   0.52416   0.00000  Uiso   1.00
C404   C     0.66465   0.16547   0.50057   0.00000  Uiso   1.00
C405   C     0.83535   0.16786   0.49943   0.00000  Uiso   1.00
C406   C     0.91078   0.21661   0.52604   0.00000  Uiso   1.00
Cu407  Cu    0.75500   0.17246   0.56146   0.00000  Uiso   1.00
Cu408  Cu    0.74499   0.16087   0.43854   0.00000  Uiso   1.00
H409   H     0.87999   0.08915   0.44740   0.00000  Uiso   1.00
H410   H     0.65732   0.06442   0.51093   0.00000  Uiso   1.00
H411   H     0.63237   0.00457   0.46150   0.00000  Uiso   1.00
H412   H     0.60048   0.03950   0.51960   0.00000  Uiso   1.00
H413   H     0.62001   0.24418   0.55260   0.00000  Uiso   1.00
H414   H     0.94358   0.04089   0.42186   0.00000  Uiso   1.00
H415   H     0.55642   0.29244   0.57814   0.00000  Uiso   1.00
H416   H     0.74348   0.31975   0.42942   0.00000  Uiso   1.00
H417   H     0.75652   0.01358   0.57058   0.00000  Uiso   1.00
H418   H     0.86765   0.32877   0.53848   0.00000  Uiso   1.00
H419   H     0.84267   0.26892   0.48909   0.00000  Uiso   1.00
H420   H     0.89951   0.29380   0.48037   0.00000  Uiso   1.00
N421   N     0.73744   0.15214   0.34617   0.00000  Uiso   1.00
N422   N     0.76255   0.18119   0.65383   0.00000  Uiso   1.00
O423   O     0.75325   0.09538   0.53992   0.00000  Uiso   1.00
O424   O     0.60900   0.07271   0.44375   0.00000  Uiso   1.00
O425   O     0.74674   0.23796   0.46008   0.00000  Uiso   1.00
O426   O     0.74480   0.08559   0.43612   0.00000  Uiso   1.00
O427   O     0.75520   0.24774   0.56388   0.00000  Uiso   1.00
O428   O     0.68935   0.17155   0.55191   0.00000  Uiso   1.00
O429   O     0.81064   0.16179   0.44809   0.00000  Uiso   1.00
O430   O     0.68090   0.16176   0.44810   0.00000  Uiso   1.00
O431   O     0.81910   0.17157   0.55190   0.00000  Uiso   1.00
O432   O     0.89100   0.26062   0.55624   0.00000  Uiso   1.00
Br433  Br    0.02922   0.33598   0.40744   0.00000  Uiso   1.00
Br434  Br    0.47078   0.66402   0.59255   0.00000  Uiso   1.00
Br435  Br    0.19217   0.43524   0.63548   0.00000  Uiso   1.00
Br436  Br    0.30783   0.56476   0.36452   0.00000  Uiso   1.00
C437   C     0.24882   0.40001   0.48440   0.00000  Uiso   1.00
C438   C     0.08922   0.45005   0.47396   0.00000  Uiso   1.00
C439   C     0.38355   0.50336   0.49782   0.00000  Uiso   1.00
C440   C     0.11645   0.49664   0.50218   0.00000  Uiso   1.00
C441   C     0.40195   0.45764   0.46903   0.00000  Uiso   1.00
C442   C     0.09805   0.54236   0.53097   0.00000  Uiso   1.00
C443   C     0.44814   0.45609   0.47021   0.00000  Uiso   1.00
C444   C     0.05186   0.54390   0.52979   0.00000  Uiso   1.00
C445   C     0.47656   0.50146   0.49940   0.00000  Uiso   1.00
C446   C     0.02344   0.49853   0.50060   0.00000  Uiso   1.00
C447   C     0.45813   0.54948   0.52739   0.00000  Uiso   1.00
C448   C     0.25118   0.59999   0.51560   0.00000  Uiso   1.00
C449   C     0.04187   0.45052   0.47260   0.00000  Uiso   1.00
C450   C     0.46591   0.40899   0.44344   0.00000  Uiso   1.00
C451   C     0.03409   0.59101   0.55656   0.00000  Uiso   1.00
C452   C     0.37471   0.62194   0.51349   0.00000  Uiso   1.00
C453   C     0.12529   0.37805   0.48650   0.00000  Uiso   1.00
C454   C     0.01203   0.40536   0.44447   0.00000  Uiso   1.00
C455   C     0.48797   0.59464   0.55553   0.00000  Uiso   1.00
C456   C     0.24787   0.34385   0.47584   0.00000  Uiso   1.00
C457   C     0.25213   0.65615   0.52416   0.00000  Uiso   1.00
C458   C     0.16465   0.49880   0.50057   0.00000  Uiso   1.00
C459   C     0.33535   0.50119   0.49943   0.00000  Uiso   1.00
C460   C     0.41078   0.54995   0.52604   0.00000  Uiso   1.00
Cu461  Cu    0.25500   0.50579   0.56146   0.00000  Uiso   1.00
Cu462  Cu    0.24499   0.49421   0.43854   0.00000  Uiso   1.00
H463   H     0.37999   0.42249   0.44740   0.00000  Uiso   1.00
H464   H     0.15732   0.39775   0.51093   0.00000  Uiso   1.00
H465   H     0.13237   0.33790   0.46150   0.00000  Uiso   1.00
H466   H     0.10048   0.37284   0.51960   0.00000  Uiso   1.00
H467   H     0.12001   0.57751   0.55260   0.00000  Uiso   1.00
H468   H     0.44358   0.37422   0.42186   0.00000  Uiso   1.00
H469   H     0.05642   0.62578   0.57814   0.00000  Uiso   1.00
H470   H     0.24348   0.65308   0.42942   0.00000  Uiso   1.00
H471   H     0.25652   0.34692   0.57058   0.00000  Uiso   1.00
H472   H     0.36765   0.66210   0.53848   0.00000  Uiso   1.00
H473   H     0.34267   0.60225   0.48909   0.00000  Uiso   1.00
H474   H     0.39951   0.62713   0.48037   0.00000  Uiso   1.00
N475   N     0.23744   0.48547   0.34617   0.00000  Uiso   1.00
N476   N     0.26255   0.51453   0.65383   0.00000  Uiso   1.00
O477   O     0.25325   0.42871   0.53992   0.00000  Uiso   1.00
O478   O     0.10900   0.40605   0.44375   0.00000  Uiso   1.00
O479   O     0.24674   0.57129   0.46008   0.00000  Uiso   1.00
O480   O     0.24480   0.41892   0.43612   0.00000  Uiso   1.00
O481   O     0.25520   0.58108   0.56388   0.00000  Uiso   1.00
O482   O     0.18935   0.50488   0.55191   0.00000  Uiso   1.00
O483   O     0.31064   0.49512   0.44809   0.00000  Uiso   1.00
O484   O     0.18090   0.49510   0.44810   0.00000  Uiso   1.00
O485   O     0.31910   0.50490   0.55190   0.00000  Uiso   1.00
O486   O     0.39100   0.59395   0.55624   0.00000  Uiso   1.00
Br487  Br    0.52922   0.33598   0.40744   0.00000  Uiso   1.00
Br488  Br    0.97078   0.66402   0.59255   0.00000  Uiso   1.00
Br489  Br    0.69217   0.43524   0.63548   0.00000  Uiso   1.00
Br490  Br    0.80783   0.56476   0.36452   0.00000  Uiso   1.00
C491   C     0.74882   0.40001   0.48440   0.00000  Uiso   1.00
C492   C     0.58922   0.45005   0.47396   0.00000  Uiso   1.00
C493   C     0.88355   0.50336   0.49782   0.00000  Uiso   1.00
C494   C     0.61645   0.49664   0.50218   0.00000  Uiso   1.00
C495   C     0.90195   0.45764   0.46903   0.00000  Uiso   1.00
C496   C     0.59805   0.54236   0.53097   0.00000  Uiso   1.00
C497   C     0.94814   0.45609   0.47021   0.00000  Uiso   1.00
C498   C     0.55186   0.54390   0.52979   0.00000  Uiso   1.00
C499   C     0.97656   0.50146   0.49940   0.00000  Uiso   1.00
C500   C     0.52344   0.49853   0.50060   0.00000  Uiso   1.00
C501   C     0.95813   0.54948   0.52739   0.00000  Uiso   1.00
C502   C     0.75118   0.59999   0.51560   0.00000  Uiso   1.00
C503   C     0.54187   0.45052   0.47260   0.00000  Uiso   1.00
C504   C     0.96591   0.40899   0.44344   0.00000  Uiso   1.00
C505   C     0.53409   0.59101   0.55656   0.00000  Uiso   1.00
C506   C     0.87471   0.62194   0.51349   0.00000  Uiso   1.00
C507   C     0.62529   0.37805   0.48650   0.00000  Uiso   1.00
C508   C     0.51203   0.40536   0.44447   0.00000  Uiso   1.00
C509   C     0.98797   0.59464   0.55553   0.00000  Uiso   1.00
C510   C     0.74787   0.34385   0.47584   0.00000  Uiso   1.00
C511   C     0.75213   0.65615   0.52416   0.00000  Uiso   1.00
C512   C     0.66465   0.49880   0.50057   0.00000  Uiso   1.00
C513   C     0.83535   0.50119   0.49943   0.00000  Uiso   1.00
C514   C     0.91078   0.54995   0.52604   0.00000  Uiso   1.00
Cu515  Cu    0.75500   0.50579   0.56146   0.00000  Uiso   1.00
Cu516  Cu    0.74499   0.49421   0.43854   0.00000  Uiso   1.00
H517   H     0.87999   0.42249   0.44740   0.00000  Uiso   1.00
H518   H     0.65732   0.39775   0.51093   0.00000  Uiso   1.00
H519   H     0.63237   0.33790   0.46150   0.00000  Uiso   1.00
H520   H     0.60048   0.37284   0.51960   0.00000  Uiso   1.00
H521   H     0.62001   0.57751   0.55260   0.00000  Uiso   1.00
H522   H     0.94358   0.37422   0.42186   0.00000  Uiso   1.00
H523   H     0.55642   0.62578   0.57814   0.00000  Uiso   1.00
H524   H     0.74348   0.65308   0.42942   0.00000  Uiso   1.00
H525   H     0.75652   0.34692   0.57058   0.00000  Uiso   1.00
H526   H     0.86765   0.66210   0.53848   0.00000  Uiso   1.00
H527   H     0.84267   0.60225   0.48909   0.00000  Uiso   1.00
H528   H     0.89951   0.62713   0.48037   0.00000  Uiso   1.00
N529   N     0.73744   0.48547   0.34617   0.00000  Uiso   1.00
N530   N     0.76255   0.51453   0.65383   0.00000  Uiso   1.00
O531   O     0.75325   0.42871   0.53992   0.00000  Uiso   1.00
O532   O     0.60900   0.40605   0.44375   0.00000  Uiso   1.00
O533   O     0.74674   0.57129   0.46008   0.00000  Uiso   1.00
O534   O     0.74480   0.41892   0.43612   0.00000  Uiso   1.00
O535   O     0.75520   0.58108   0.56388   0.00000  Uiso   1.00
O536   O     0.68935   0.50488   0.55191   0.00000  Uiso   1.00
O537   O     0.81064   0.49512   0.44809   0.00000  Uiso   1.00
O538   O     0.68090   0.49510   0.44810   0.00000  Uiso   1.00
O539   O     0.81910   0.50490   0.55190   0.00000  Uiso   1.00
O540   O     0.89100   0.59395   0.55624   0.00000  Uiso   1.00
Br541  Br    0.02922   0.66931   0.40744   0.00000  Uiso   1.00
Br542  Br    0.47078   0.99735   0.59255   0.00000  Uiso   1.00
Br543  Br    0.19217   0.76858   0.63548   0.00000  Uiso   1.00
Br544  Br    0.30783   0.89809   0.36452   0.00000  Uiso   1.00
C545   C     0.24882   0.73334   0.48440   0.00000  Uiso   1.00
C546   C     0.08922   0.78338   0.47396   0.00000  Uiso   1.00
C547   C     0.38355   0.83669   0.49782   0.00000  Uiso   1.00
C548   C     0.11645   0.82997   0.50218   0.00000  Uiso   1.00
C549   C     0.40195   0.79097   0.46903   0.00000  Uiso   1.00
C550   C     0.09805   0.87569   0.53097   0.00000  Uiso   1.00
C551   C     0.44814   0.78943   0.47021   0.00000  Uiso   1.00
C552   C     0.05186   0.87724   0.52979   0.00000  Uiso   1.00
C553   C     0.47656   0.83480   0.49940   0.00000  Uiso   1.00
C554   C     0.02344   0.83187   0.50060   0.00000  Uiso   1.00
C555   C     0.45813   0.88281   0.52739   0.00000  Uiso   1.00
C556   C     0.25118   0.93332   0.51560   0.00000  Uiso   1.00
C557   C     0.04187   0.78385   0.47260   0.00000  Uiso   1.00
C558   C     0.46591   0.74232   0.44344   0.00000  Uiso   1.00
C559   C     0.03409   0.92434   0.55656   0.00000  Uiso   1.00
C560   C     0.37471   0.95528   0.51349   0.00000  Uiso   1.00
C561   C     0.12529   0.71139   0.48650   0.00000  Uiso   1.00
C562   C     0.01203   0.73870   0.44447   0.00000  Uiso   1.00
C563   C     0.48797   0.92797   0.55553   0.00000  Uiso   1.00
C564   C     0.24787   0.67719   0.47584   0.00000  Uiso   1.00
C565   C     0.25213   0.98948   0.52416   0.00000  Uiso   1.00
C566   C     0.16465   0.83214   0.50057   0.00000  Uiso   1.00
C567   C     0.33535   0.83453   0.49943   0.00000  Uiso   1.00
C568   C     0.41078   0.88328   0.52604   0.00000  Uiso   1.00
Cu569  Cu    0.25500   0.83913   0.56146   0.00000  Uiso   1.00
Cu570  Cu    0.24499   0.82754   0.43854   0.00000  Uiso   1.00
H571   H     0.37999   0.75582   0.44740   0.00000  Uiso   1.00
H572   H     0.15732   0.73109   0.51093   0.00000  Uiso   1.00
H573   H     0.13237   0.67124   0.46150   0.00000  Uiso   1.00
H574   H     0.10048   0.70617   0.51960   0.00000  Uiso   1.00
H575   H     0.12001   0.91084   0.55260   0.00000  Uiso   1.00
H576   H     0.44358   0.70756   0.42186   0.00000  Uiso   1.00
H577   H     0.05642   0.95911   0.57814   0.00000  Uiso   1.00
H578   H     0.24348   0.98642   0.42942   0.00000  Uiso   1.00
H579   H     0.25652   0.68025   0.57058   0.00000  Uiso   1.00
H580   H     0.36765   0.99544   0.53848   0.00000  Uiso   1.00
H581   H     0.34267   0.93559   0.48909   0.00000  Uiso   1.00
H582   H     0.39951   0.96047   0.48037   0.00000  Uiso   1.00
N583   N     0.23744   0.81881   0.34617   0.00000  Uiso   1.00
N584   N     0.26255   0.84786   0.65383   0.00000  Uiso   1.00
O585   O     0.25325   0.76204   0.53992   0.00000  Uiso   1.00
O586   O     0.10900   0.73938   0.44375   0.00000  Uiso   1.00
O587   O     0.24674   0.90462   0.46008   0.00000  Uiso   1.00
O588   O     0.24480   0.75226   0.43612   0.00000  Uiso   1.00
O589   O     0.25520   0.91441   0.56388   0.00000  Uiso   1.00
O590   O     0.18935   0.83821   0.55191   0.00000  Uiso   1.00
O591   O     0.31064   0.82845   0.44809   0.00000  Uiso   1.00
O592   O     0.18090   0.82843   0.44810   0.00000  Uiso   1.00
O593   O     0.31910   0.83824   0.55190   0.00000  Uiso   1.00
O594   O     0.39100   0.92729   0.55624   0.00000  Uiso   1.00
Br595  Br    0.52922   0.66931   0.40744   0.00000  Uiso   1.00
Br596  Br    0.97078   0.99735   0.59255   0.00000  Uiso   1.00
Br597  Br    0.69217   0.76858   0.63548   0.00000  Uiso   1.00
Br598  Br    0.80783   0.89809   0.36452   0.00000  Uiso   1.00
C599   C     0.74882   0.73334   0.48440   0.00000  Uiso   1.00
C600   C     0.58922   0.78338   0.47396   0.00000  Uiso   1.00
C601   C     0.88355   0.83669   0.49782   0.00000  Uiso   1.00
C602   C     0.61645   0.82997   0.50218   0.00000  Uiso   1.00
C603   C     0.90195   0.79097   0.46903   0.00000  Uiso   1.00
C604   C     0.59805   0.87569   0.53097   0.00000  Uiso   1.00
C605   C     0.94814   0.78943   0.47021   0.00000  Uiso   1.00
C606   C     0.55186   0.87724   0.52979   0.00000  Uiso   1.00
C607   C     0.97656   0.83480   0.49940   0.00000  Uiso   1.00
C608   C     0.52344   0.83187   0.50060   0.00000  Uiso   1.00
C609   C     0.95813   0.88281   0.52739   0.00000  Uiso   1.00
C610   C     0.75118   0.93332   0.51560   0.00000  Uiso   1.00
C611   C     0.54187   0.78385   0.47260   0.00000  Uiso   1.00
C612   C     0.96591   0.74232   0.44344   0.00000  Uiso   1.00
C613   C     0.53409   0.92434   0.55656   0.00000  Uiso   1.00
C614   C     0.87471   0.95528   0.51349   0.00000  Uiso   1.00
C615   C     0.62529   0.71139   0.48650   0.00000  Uiso   1.00
C616   C     0.51203   0.73870   0.44447   0.00000  Uiso   1.00
C617   C     0.98797   0.92797   0.55553   0.00000  Uiso   1.00
C618   C     0.74787   0.67719   0.47584   0.00000  Uiso   1.00
C619   C     0.75213   0.98948   0.52416   0.00000  Uiso   1.00
C620   C     0.66465   0.83214   0.50057   0.00000  Uiso   1.00
C621   C     0.83535   0.83453   0.49943   0.00000  Uiso   1.00
C622   C     0.91078   0.88328   0.52604   0.00000  Uiso   1.00
Cu623  Cu    0.75500   0.83913   0.56146   0.00000  Uiso   1.00
Cu624  Cu    0.74499   0.82754   0.43854   0.00000  Uiso   1.00
H625   H     0.87999   0.75582   0.44740   0.00000  Uiso   1.00
H626   H     0.65732   0.73109   0.51093   0.00000  Uiso   1.00
H627   H     0.63237   0.67124   0.46150   0.00000  Uiso   1.00
H628   H     0.60048   0.70617   0.51960   0.00000  Uiso   1.00
H629   H     0.62001   0.91084   0.55260   0.00000  Uiso   1.00
H630   H     0.94358   0.70756   0.42186   0.00000  Uiso   1.00
H631   H     0.55642   0.95911   0.57814   0.00000  Uiso   1.00
H632   H     0.74348   0.98642   0.42942   0.00000  Uiso   1.00
H633   H     0.75652   0.68025   0.57058   0.00000  Uiso   1.00
H634   H     0.86765   0.99544   0.53848   0.00000  Uiso   1.00
H635   H     0.84267   0.93559   0.48909   0.00000  Uiso   1.00
H636   H     0.89951   0.96047   0.48037   0.00000  Uiso   1.00
N637   N     0.73744   0.81881   0.34617   0.00000  Uiso   1.00
N638   N     0.76255   0.84786   0.65383   0.00000  Uiso   1.00
O639   O     0.75325   0.76204   0.53992   0.00000  Uiso   1.00
O640   O     0.60900   0.73938   0.44375   0.00000  Uiso   1.00
O641   O     0.74674   0.90462   0.46008   0.00000  Uiso   1.00
O642   O     0.74480   0.75226   0.43612   0.00000  Uiso   1.00
O643   O     0.75520   0.91441   0.56388   0.00000  Uiso   1.00
O644   O     0.68935   0.83821   0.55191   0.00000  Uiso   1.00
O645   O     0.81064   0.82845   0.44809   0.00000  Uiso   1.00
O646   O     0.68090   0.82843   0.44810   0.00000  Uiso   1.00
O647   O     0.81910   0.83824   0.55190   0.00000  Uiso   1.00
O648   O     0.89100   0.92729   0.55624   0.00000  Uiso   1.00
Br649  Br    0.02922   0.00265   0.74077   0.00000  Uiso   1.00
Br650  Br    0.47078   0.33069   0.92589   0.00000  Uiso   1.00
Br651  Br    0.19217   0.10191   0.96881   0.00000  Uiso   1.00
Br652  Br    0.30783   0.23142   0.69786   0.00000  Uiso   1.00
C653   C     0.24882   0.06668   0.81773   0.00000  Uiso   1.00
C654   C     0.08922   0.11672   0.80729   0.00000  Uiso   1.00
C655   C     0.38355   0.17002   0.83115   0.00000  Uiso   1.00
C656   C     0.11645   0.16331   0.83552   0.00000  Uiso   1.00
C657   C     0.40195   0.12431   0.80236   0.00000  Uiso   1.00
C658   C     0.09805   0.20903   0.86431   0.00000  Uiso   1.00
C659   C     0.44814   0.12276   0.80354   0.00000  Uiso   1.00
C660   C     0.05186   0.21057   0.86312   0.00000  Uiso   1.00
C661   C     0.47656   0.16813   0.83273   0.00000  Uiso   1.00
C662   C     0.02344   0.16520   0.83394   0.00000  Uiso   1.00
C663   C     0.45813   0.21615   0.86073   0.00000  Uiso   1.00
C664   C     0.25118   0.26666   0.84894   0.00000  Uiso   1.00
C665   C     0.04187   0.11719   0.80594   0.00000  Uiso   1.00
C666   C     0.46591   0.07565   0.77677   0.00000  Uiso   1.00
C667   C     0.03409   0.25768   0.88989   0.00000  Uiso   1.00
C668   C     0.37471   0.28861   0.84682   0.00000  Uiso   1.00
C669   C     0.12529   0.04472   0.81984   0.00000  Uiso   1.00
C670   C     0.01203   0.07203   0.77780   0.00000  Uiso   1.00
C671   C     0.48797   0.26130   0.88886   0.00000  Uiso   1.00
C672   C     0.24787   0.01052   0.80917   0.00000  Uiso   1.00
C673   C     0.25213   0.32281   0.85750   0.00000  Uiso   1.00
C674   C     0.16465   0.16547   0.83390   0.00000  Uiso   1.00
C675   C     0.33535   0.16786   0.83276   0.00000  Uiso   1.00
C676   C     0.41078   0.21661   0.85937   0.00000  Uiso   1.00
Cu677  Cu    0.25500   0.17246   0.89479   0.00000  Uiso   1.00
Cu678  Cu    0.24499   0.16087   0.77187   0.00000  Uiso   1.00
H679   H     0.37999   0.08915   0.78073   0.00000  Uiso   1.00
H680   H     0.15732   0.06442   0.84426   0.00000  Uiso   1.00
H681   H     0.13237   0.00457   0.79483   0.00000  Uiso   1.00
H682   H     0.10048   0.03950   0.85293   0.00000  Uiso   1.00
H683   H     0.12001   0.24418   0.88593   0.00000  Uiso   1.00
H684   H     0.44358   0.04089   0.75519   0.00000  Uiso   1.00
H685   H     0.05642   0.29244   0.91147   0.00000  Uiso   1.00
H686   H     0.24348   0.31975   0.76275   0.00000  Uiso   1.00
H687   H     0.25652   0.01358   0.90391   0.00000  Uiso   1.00
H688   H     0.36765   0.32877   0.87181   0.00000  Uiso   1.00
H689   H     0.34267   0.26892   0.82242   0.00000  Uiso   1.00
H690   H     0.39951   0.29380   0.81370   0.00000  Uiso   1.00
N691   N     0.23744   0.15214   0.67951   0.00000  Uiso   1.00
N692   N     0.26255   0.18119   0.98716   0.00000  Uiso   1.00
O693   O     0.25325   0.09538   0.87326   0.00000  Uiso   1.00
O694   O     0.10900   0.07271   0.77708   0.00000  Uiso   1.00
O695   O     0.24674   0.23796   0.79341   0.00000  Uiso   1.00
O696   O     0.24480   0.08559   0.76945   0.00000  Uiso   1.00
O697   O     0.25520   0.24774   0.89721   0.00000  Uiso   1.00
O698   O     0.18935   0.17155   0.88524   0.00000  Uiso   1.00
O699   O     0.31064   0.16179   0.78143   0.00000  Uiso   1.00
O700   O     0.18090   0.16176   0.78143   0.00000  Uiso   1.00
O701   O     0.31910   0.17157   0.88523   0.00000  Uiso   1.00
O702   O     0.39100   0.26062   0.88958   0.00000  Uiso   1.00
Br703  Br    0.52922   0.00265   0.74077   0.00000  Uiso   1.00
Br704  Br    0.97078   0.33069   0.92589   0.00000  Uiso   1.00
Br705  Br    0.69217   0.10191   0.96881   0.00000  Uiso   1.00
Br706  Br    0.80783   0.23142   0.69786   0.00000  Uiso   1.00
C707   C     0.74882   0.06668   0.81773   0.00000  Uiso   1.00
C708   C     0.58922   0.11672   0.80729   0.00000  Uiso   1.00
C709   C     0.88355   0.17002   0.83115   0.00000  Uiso   1.00
C710   C     0.61645   0.16331   0.83552   0.00000  Uiso   1.00
C711   C     0.90195   0.12431   0.80236   0.00000  Uiso   1.00
C712   C     0.59805   0.20903   0.86431   0.00000  Uiso   1.00
C713   C     0.94814   0.12276   0.80354   0.00000  Uiso   1.00
C714   C     0.55186   0.21057   0.86312   0.00000  Uiso   1.00
C715   C     0.97656   0.16813   0.83273   0.00000  Uiso   1.00
C716   C     0.52344   0.16520   0.83394   0.00000  Uiso   1.00
C717   C     0.95813   0.21615   0.86073   0.00000  Uiso   1.00
C718   C     0.75118   0.26666   0.84894   0.00000  Uiso   1.00
C719   C     0.54187   0.11719   0.80594   0.00000  Uiso   1.00
C720   C     0.96591   0.07565   0.77677   0.00000  Uiso   1.00
C721   C     0.53409   0.25768   0.88989   0.00000  Uiso   1.00
C722   C     0.87471   0.28861   0.84682   0.00000  Uiso   1.00
C723   C     0.62529   0.04472   0.81984   0.00000  Uiso   1.00
C724   C     0.51203   0.07203   0.77780   0.00000  Uiso   1.00
C725   C     0.98797   0.26130   0.88886   0.00000  Uiso   1.00
C726   C     0.74787   0.01052   0.80917   0.00000  Uiso   1.00
C727   C     0.75213   0.32281   0.85750   0.00000  Uiso   1.00
C728   C     0.66465   0.16547   0.83390   0.00000  Uiso   1.00
C729   C     0.83535   0.16786   0.83276   0.00000  Uiso   1.00
C730   C     0.91078   0.21661   0.85937   0.00000  Uiso   1.00
Cu731  Cu    0.75500   0.17246   0.89479   0.00000  Uiso   1.00
Cu732  Cu    0.74499   0.16087   0.77187   0.00000  Uiso   1.00
H733   H     0.87999   0.08915   0.78073   0.00000  Uiso   1.00
H734   H     0.65732   0.06442   0.84426   0.00000  Uiso   1.00
H735   H     0.63237   0.00457   0.79483   0.00000  Uiso   1.00
H736   H     0.60048   0.03950   0.85293   0.00000  Uiso   1.00
H737   H     0.62001   0.24418   0.88593   0.00000  Uiso   1.00
H738   H     0.94358   0.04089   0.75519   0.00000  Uiso   1.00
H739   H     0.55642   0.29244   0.91147   0.00000  Uiso   1.00
H740   H     0.74348   0.31975   0.76275   0.00000  Uiso   1.00
H741   H     0.75652   0.01358   0.90391   0.00000  Uiso   1.00
H742   H     0.86765   0.32877   0.87181   0.00000  Uiso   1.00
H743   H     0.84267   0.26892   0.82242   0.00000  Uiso   1.00
H744   H     0.89951   0.29380   0.81370   0.00000  Uiso   1.00
N745   N     0.73744   0.15214   0.67951   0.00000  Uiso   1.00
N746   N     0.76255   0.18119   0.98716   0.00000  Uiso   1.00
O747   O     0.75325   0.09538   0.87326   0.00000  Uiso   1.00
O748   O     0.60900   0.07271   0.77708   0.00000  Uiso   1.00
O749   O     0.74674   0.23796   0.79341   0.00000  Uiso   1.00
O750   O     0.74480   0.08559   0.76945   0.00000  Uiso   1.00
O751   O     0.75520   0.24774   0.89721   0.00000  Uiso   1.00
O752   O     0.68935   0.17155   0.88524   0.00000  Uiso   1.00
O753   O     0.81064   0.16179   0.78143   0.00000  Uiso   1.00
O754   O     0.68090   0.16176   0.78143   0.00000  Uiso   1.00
O755   O     0.81910   0.17157   0.88523   0.00000  Uiso   1.00
O756   O     0.89100   0.26062   0.88958   0.00000  Uiso   1.00
Br757  Br    0.02922   0.33598   0.74077   0.00000  Uiso   1.00
Br758  Br    0.47078   0.66402   0.92589   0.00000  Uiso   1.00
Br759  Br    0.19217   0.43524   0.96881   0.00000  Uiso   1.00
Br760  Br    0.30783   0.56476   0.69786   0.00000  Uiso   1.00
C761   C     0.24882   0.40001   0.81773   0.00000  Uiso   1.00
C762   C     0.08922   0.45005   0.80729   0.00000  Uiso   1.00
C763   C     0.38355   0.50336   0.83115   0.00000  Uiso   1.00
C764   C     0.11645   0.49664   0.83552   0.00000  Uiso   1.00
C765   C     0.40195   0.45764   0.80236   0.00000  Uiso   1.00
C766   C     0.09805   0.54236   0.86431   0.00000  Uiso   1.00
C767   C     0.44814   0.45609   0.80354   0.00000  Uiso   1.00
C768   C     0.05186   0.54390   0.86312   0.00000  Uiso   1.00
C769   C     0.47656   0.50146   0.83273   0.00000  Uiso   1.00
C770   C     0.02344   0.49853   0.83394   0.00000  Uiso   1.00
C771   C     0.45813   0.54948   0.86073   0.00000  Uiso   1.00
C772   C     0.25118   0.59999   0.84894   0.00000  Uiso   1.00
C773   C     0.04187   0.45052   0.80594   0.00000  Uiso   1.00
C774   C     0.46591   0.40899   0.77677   0.00000  Uiso   1.00
C775   C     0.03409   0.59101   0.88989   0.00000  Uiso   1.00
C776   C     0.37471   0.62194   0.84682   0.00000  Uiso   1.00
C777   C     0.12529   0.37805   0.81984   0.00000  Uiso   1.00
C778   C     0.01203   0.40536   0.77780   0.00000  Uiso   1.00
C779   C     0.48797   0.59464   0.88886   0.00000  Uiso   1.00
C780   C     0.24787   0.34385   0.80917   0.00000  Uiso   1.00
C781   C     0.25213   0.65615   0.85750   0.00000  Uiso   1.00
C782   C     0.16465   0.49880   0.83390   0.00000  Uiso   1.00
C783   C     0.33535   0.50119   0.83276   0.00000  Uiso   1.00
C784   C     0.41078   0.54995   0.85937   0.00000  Uiso   1.00
Cu785  Cu    0.25500   0.50579   0.89479   0.00000  Uiso   1.00
Cu786  Cu    0.24499   0.49421   0.77187   0.00000  Uiso   1.00
H787   H     0.37999   0.42249   0.78073   0.00000  Uiso   1.00
H788   H     0.15732   0.39775   0.84426   0.00000  Uiso   1.00
H789   H     0.13237   0.33790   0.79483   0.00000  Uiso   1.00
H790   H     0.10048   0.37284   0.85293   0.00000  Uiso   1.00
H791   H     0.12001   0.57751   0.88593   0.00000  Uiso   1.00
H792   H     0.44358   0.37422   0.75519   0.00000  Uiso   1.00
H793   H     0.05642   0.62578   0.91147   0.00000  Uiso   1.00
H794   H     0.24348   0.65308   0.76275   0.00000  Uiso   1.00
H795   H     0.25652   0.34692   0.90391   0.00000  Uiso   1.00
H796   H     0.36765   0.66210   0.87181   0.00000  Uiso   1.00
H797   H     0.34267   0.60225   0.82242   0.00000  Uiso   1.00
H798   H     0.39951   0.62713   0.81370   0.00000  Uiso   1.00
N799   N     0.23744   0.48547   0.67951   0.00000  Uiso   1.00
N800   N     0.26255   0.51453   0.98716   0.00000  Uiso   1.00
O801   O     0.25325   0.42871   0.87326   0.00000  Uiso   1.00
O802   O     0.10900   0.40605   0.77708   0.00000  Uiso   1.00
O803   O     0.24674   0.57129   0.79341   0.00000  Uiso   1.00
O804   O     0.24480   0.41892   0.76945   0.00000  Uiso   1.00
O805   O     0.25520   0.58108   0.89721   0.00000  Uiso   1.00
O806   O     0.18935   0.50488   0.88524   0.00000  Uiso   1.00
O807   O     0.31064   0.49512   0.78143   0.00000  Uiso   1.00
O808   O     0.18090   0.49510   0.78143   0.00000  Uiso   1.00
O809   O     0.31910   0.50490   0.88523   0.00000  Uiso   1.00
O810   O     0.39100   0.59395   0.88958   0.00000  Uiso   1.00
Br811  Br    0.52922   0.33598   0.74077   0.00000  Uiso   1.00
Br812  Br    0.97078   0.66402   0.92589   0.00000  Uiso   1.00
Br813  Br    0.69217   0.43524   0.96881   0.00000  Uiso   1.00
Br814  Br    0.80783   0.56476   0.69786   0.00000  Uiso   1.00
C815   C     0.74882   0.40001   0.81773   0.00000  Uiso   1.00
C816   C     0.58922   0.45005   0.80729   0.00000  Uiso   1.00
C817   C     0.88355   0.50336   0.83115   0.00000  Uiso   1.00
C818   C     0.61645   0.49664   0.83552   0.00000  Uiso   1.00
C819   C     0.90195   0.45764   0.80236   0.00000  Uiso   1.00
C820   C     0.59805   0.54236   0.86431   0.00000  Uiso   1.00
C821   C     0.94814   0.45609   0.80354   0.00000  Uiso   1.00
C822   C     0.55186   0.54390   0.86312   0.00000  Uiso   1.00
C823   C     0.97656   0.50146   0.83273   0.00000  Uiso   1.00
C824   C     0.52344   0.49853   0.83394   0.00000  Uiso   1.00
C825   C     0.95813   0.54948   0.86073   0.00000  Uiso   1.00
C826   C     0.75118   0.59999   0.84894   0.00000  Uiso   1.00
C827   C     0.54187   0.45052   0.80594   0.00000  Uiso   1.00
C828   C     0.96591   0.40899   0.77677   0.00000  Uiso   1.00
C829   C     0.53409   0.59101   0.88989   0.00000  Uiso   1.00
C830   C     0.87471   0.62194   0.84682   0.00000  Uiso   1.00
C831   C     0.62529   0.37805   0.81984   0.00000  Uiso   1.00
C832   C     0.51203   0.40536   0.77780   0.00000  Uiso   1.00
C833   C     0.98797   0.59464   0.88886   0.00000  Uiso   1.00
C834   C     0.74787   0.34385   0.80917   0.00000  Uiso   1.00
C835   C     0.75213   0.65615   0.85750   0.00000  Uiso   1.00
C836   C     0.66465   0.49880   0.83390   0.00000  Uiso   1.00
C837   C     0.83535   0.50119   0.83276   0.00000  Uiso   1.00
C838   C     0.91078   0.54995   0.85937   0.00000  Uiso   1.00
Cu839  Cu    0.75500   0.50579   0.89479   0.00000  Uiso   1.00
Cu840  Cu    0.74499   0.49421   0.77187   0.00000  Uiso   1.00
H841   H     0.87999   0.42249   0.78073   0.00000  Uiso   1.00
H842   H     0.65732   0.39775   0.84426   0.00000  Uiso   1.00
H843   H     0.63237   0.33790   0.79483   0.00000  Uiso   1.00
H844   H     0.60048   0.37284   0.85293   0.00000  Uiso   1.00
H845   H     0.62001   0.57751   0.88593   0.00000  Uiso   1.00
H846   H     0.94358   0.37422   0.75519   0.00000  Uiso   1.00
H847   H     0.55642   0.62578   0.91147   0.00000  Uiso   1.00
H848   H     0.74348   0.65308   0.76275   0.00000  Uiso   1.00
H849   H     0.75652   0.34692   0.90391   0.00000  Uiso   1.00
H850   H     0.86765   0.66210   0.87181   0.00000  Uiso   1.00
H851   H     0.84267   0.60225   0.82242   0.00000  Uiso   1.00
H852   H     0.89951   0.62713   0.81370   0.00000  Uiso   1.00
N853   N     0.73744   0.48547   0.67951   0.00000  Uiso   1.00
N854   N     0.76255   0.51453   0.98716   0.00000  Uiso   1.00
O855   O     0.75325   0.42871   0.87326   0.00000  Uiso   1.00
O856   O     0.60900   0.40605   0.77708   0.00000  Uiso   1.00
O857   O     0.74674   0.57129   0.79341   0.00000  Uiso   1.00
O858   O     0.74480   0.41892   0.76945   0.00000  Uiso   1.00
O859   O     0.75520   0.58108   0.89721   0.00000  Uiso   1.00
O860   O     0.68935   0.50488   0.88524   0.00000  Uiso   1.00
O861   O     0.81064   0.49512   0.78143   0.00000  Uiso   1.00
O862   O     0.68090   0.49510   0.78143   0.00000  Uiso   1.00
O863   O     0.81910   0.50490   0.88523   0.00000  Uiso   1.00
O864   O     0.89100   0.59395   0.88958   0.00000  Uiso   1.00
Br865  Br    0.02922   0.66931   0.74077   0.00000  Uiso   1.00
Br866  Br    0.47078   0.99735   0.92589   0.00000  Uiso   1.00
Br867  Br    0.19217   0.76858   0.96881   0.00000  Uiso   1.00
Br868  Br    0.30783   0.89809   0.69786   0.00000  Uiso   1.00
C869   C     0.24882   0.73334   0.81773   0.00000  Uiso   1.00
C870   C     0.08922   0.78338   0.80729   0.00000  Uiso   1.00
C871   C     0.38355   0.83669   0.83115   0.00000  Uiso   1.00
C872   C     0.11645   0.82997   0.83552   0.00000  Uiso   1.00
C873   C     0.40195   0.79097   0.80236   0.00000  Uiso   1.00
C874   C     0.09805   0.87569   0.86431   0.00000  Uiso   1.00
C875   C     0.44814   0.78943   0.80354   0.00000  Uiso   1.00
C876   C     0.05186   0.87724   0.86312   0.00000  Uiso   1.00
C877   C     0.47656   0.83480   0.83273   0.00000  Uiso   1.00
C878   C     0.02344   0.83187   0.83394   0.00000  Uiso   1.00
C879   C     0.45813   0.88281   0.86073   0.00000  Uiso   1.00
C880   C     0.25118   0.93332   0.84894   0.00000  Uiso   1.00
C881   C     0.04187   0.78385   0.80594   0.00000  Uiso   1.00
C882   C     0.46591   0.74232   0.77677   0.00000  Uiso   1.00
C883   C     0.03409   0.92434   0.88989   0.00000  Uiso   1.00
C884   C     0.37471   0.95528   0.84682   0.00000  Uiso   1.00
C885   C     0.12529   0.71139   0.81984   0.00000  Uiso   1.00
C886   C     0.01203   0.73870   0.77780   0.00000  Uiso   1.00
C887   C     0.48797   0.92797   0.88886   0.00000  Uiso   1.00
C888   C     0.24787   0.67719   0.80917   0.00000  Uiso   1.00
C889   C     0.25213   0.98948   0.85750   0.00000  Uiso   1.00
C890   C     0.16465   0.83214   0.83390   0.00000  Uiso   1.00
C891   C     0.33535   0.83453   0.83276   0.00000  Uiso   1.00
C892   C     0.41078   0.88328   0.85937   0.00000  Uiso   1.00
Cu893  Cu    0.25500   0.83913   0.89479   0.00000  Uiso   1.00
Cu894  Cu    0.24499   0.82754   0.77187   0.00000  Uiso   1.00
H895   H     0.37999   0.75582   0.78073   0.00000  Uiso   1.00
H896   H     0.15732   0.73109   0.84426   0.00000  Uiso   1.00
H897   H     0.13237   0.67124   0.79483   0.00000  Uiso   1.00
H898   H     0.10048   0.70617   0.85293   0.00000  Uiso   1.00
H899   H     0.12001   0.91084   0.88593   0.00000  Uiso   1.00
H900   H     0.44358   0.70756   0.75519   0.00000  Uiso   1.00
H901   H     0.05642   0.95911   0.91147   0.00000  Uiso   1.00
H902   H     0.24348   0.98642   0.76275   0.00000  Uiso   1.00
H903   H     0.25652   0.68025   0.90391   0.00000  Uiso   1.00
H904   H     0.36765   0.99544   0.87181   0.00000  Uiso   1.00
H905   H     0.34267   0.93559   0.82242   0.00000  Uiso   1.00
H906   H     0.39951   0.96047   0.81370   0.00000  Uiso   1.00
N907   N     0.23744   0.81881   0.67951   0.00000  Uiso   1.00
N908   N     0.26255   0.84786   0.98716   0.00000  Uiso   1.00
O909   O     0.25325   0.76204   0.87326   0.00000  Uiso   1.00
O910   O     0.10900   0.73938   0.77708   0.00000  Uiso   1.00
O911   O     0.24674   0.90462   0.79341   0.00000  Uiso   1.00
O912   O     0.24480   0.75226   0.76945   0.00000  Uiso   1.00
O913   O     0.25520   0.91441   0.89721   0.00000  Uiso   1.00
O914   O     0.18935   0.83821   0.88524   0.00000  Uiso   1.00
O915   O     0.31064   0.82845   0.78143   0.00000  Uiso   1.00
O916   O     0.18090   0.82843   0.78143   0.00000  Uiso   1.00
O917   O     0.31910   0.83824   0.88523   0.00000  Uiso   1.00
O918   O     0.39100   0.92729   0.88958   0.00000  Uiso   1.00
Br919  Br    0.52922   0.66931   0.74077   0.00000  Uiso   1.00
Br920  Br    0.97078   0.99735   0.92589   0.00000  Uiso   1.00
Br921  Br    0.69217   0.76858   0.96881   0.00000  Uiso   1.00
Br922  Br    0.80783   0.89809   0.69786   0.00000  Uiso   1.00
C923   C     0.74882   0.73334   0.81773   0.00000  Uiso   1.00
C924   C     0.58922   0.78338   0.80729   0.00000  Uiso   1.00
C925   C     0.88355   0.83669   0.83115   0.00000  Uiso   1.00
C926   C     0.61645   0.82997   0.83552   0.00000  Uiso   1.00
C927   C     0.90195   0.79097   0.80236   0.00000  Uiso   1.00
C928   C     0.59805   0.87569   0.86431   0.00000  Uiso   1.00
C929   C     0.94814   0.78943   0.80354   0.00000  Uiso   1.00
C930   C     0.55186   0.87724   0.86312   0.00000  Uiso   1.00
C931   C     0.97656   0.83480   0.83273   0.00000  Uiso   1.00
C932   C     0.52344   0.83187   0.83394   0.00000  Uiso   1.00
C933   C     0.95813   0.88281   0.86073   0.00000  Uiso   1.00
C934   C     0.75118   0.93332   0.84894   0.00000  Uiso   1.00
C935   C     0.54187   0.78385   0.80594   0.00000  Uiso   1.00
C936   C     0.96591   0.74232   0.77677   0.00000  Uiso   1.00
C937   C     0.53409   0.92434   0.88989   0.00000  Uiso   1.00
C938   C     0.87471   0.95528   0.84682   0.00000  Uiso   1.00
C939   C     0.62529   0.71139   0.81984   0.00000  Uiso   1.00
C940   C     0.51203   0.73870   0.77780   0.00000  Uiso   1.00
C941   C     0.98797   0.92797   0.88886   0.00000  Uiso   1.00
C942   C     0.74787   0.67719   0.80917   0.00000  Uiso   1.00
C943   C     0.75213   0.98948   0.85750   0.00000  Uiso   1.00
C944   C     0.66465   0.83214   0.83390   0.00000  Uiso   1.00
C945   C     0.83535   0.83453   0.83276   0.00000  Uiso   1.00
C946   C     0.91078   0.88328   0.85937   0.00000  Uiso   1.00
Cu947  Cu    0.75500   0.83913   0.89479   0.00000  Uiso   1.00
Cu948  Cu    0.74499   0.82754   0.77187   0.00000  Uiso   1.00
H949   H     0.87999   0.75582   0.78073   0.00000  Uiso   1.00
H950   H     0.65732   0.73109   0.84426   0.00000  Uiso   1.00
H951   H     0.63237   0.67124   0.79483   0.00000  Uiso   1.00
H952   H     0.60048   0.70617   0.85293   0.00000  Uiso   1.00
H953   H     0.62001   0.91084   0.88593   0.00000  Uiso   1.00
H954   H     0.94358   0.70756   0.75519   0.00000  Uiso   1.00
H955   H     0.55642   0.95911   0.91147   0.00000  Uiso   1.00
H956   H     0.74348   0.98642   0.76275   0.00000  Uiso   1.00
H957   H     0.75652   0.68025   0.90391   0.00000  Uiso   1.00
H958   H     0.86765   0.99544   0.87181   0.00000  Uiso   1.00
H959   H     0.84267   0.93559   0.82242   0.00000  Uiso   1.00
H960   H     0.89951   0.96047   0.81370   0.00000  Uiso   1.00
N961   N     0.73744   0.81881   0.67951   0.00000  Uiso   1.00
N962   N     0.76255   0.84786   0.98716   0.00000  Uiso   1.00
O963   O     0.75325   0.76204   0.87326   0.00000  Uiso   1.00
O964   O     0.60900   0.73938   0.77708   0.00000  Uiso   1.00
O965   O     0.74674   0.90462   0.79341   0.00000  Uiso   1.00
O966   O     0.74480   0.75226   0.76945   0.00000  Uiso   1.00
O967   O     0.75520   0.91441   0.89721   0.00000  Uiso   1.00
O968   O     0.68935   0.83821   0.88524   0.00000  Uiso   1.00
O969   O     0.81064   0.82845   0.78143   0.00000  Uiso   1.00
O970   O     0.68090   0.82843   0.78143   0.00000  Uiso   1.00
O971   O     0.81910   0.83824   0.88523   0.00000  Uiso   1.00
O972   O     0.89100   0.92729   0.88958   0.00000  Uiso   1.00
loop_
_geom_bond_atom_site_label_1
_geom_bond_atom_site_label_2
_geom_bond_distance
_geom_bond_site_symmetry_2
_ccdc_geom_bond_type
Br1    C22     1.927   .     S
Br2    C23     1.927   .     S
Br3    N367    1.877   .     S
Br4    N692    1.877   1_554 S
C5     C24     1.425   .     S
C5     O48     1.295   .     A
C5     O45     1.299   .     A
C6     O46     1.384   .     S
C6     C17     1.418   .     A
C6     C8      1.409   .     A
C7     C27     1.445   .     S
C7     C9      1.387   .     A
C7     C28     1.409   .     A
C8     C26     1.445   .     S
C8     C10     1.387   .     A
C9     C11     1.386   .     A
C9     H31     1.086   .     S
C10    H35     1.086   .     S
C10    C12     1.386   .     A
C11    C18     1.394   .     A
C11    C13     1.410   .     A
C12    C19     1.394   .     A
C12    C14     1.410   .     A
C13    C15     1.429   .     A
C13    C68     1.410   .     S
C14    C17     1.429   .     A
C14    C67     1.410   1_455 S
C15    C28     1.418   .     A
C15    C23     1.423   .     A
C16    C25     1.425   .     S
C16    O49     1.295   .     A
C16    O47     1.299   .     A
C17    C22     1.423   .     A
C18    H36     1.085   .     S
C18    C76     1.390   .     S
C19    H37     1.085   .     S
C19    C77     1.390   1_455 S
C20    H42     1.115   .     S
C20    H41     1.105   .     S
C20    H40     1.109   .     S
C20    O54     1.413   .     S
C21    H32     1.105   .     S
C21    H33     1.109   .     S
C21    O46     1.413   .     S
C21    H34     1.115   .     S
C22    C72     1.390   1_455 S
C23    C73     1.390   .     S
C24    C241    1.329   1_545 S
C24    H254    1.087   1_545 S
C25    C132    1.329   .     S
C25    H147    1.087   .     S
C26    O52     1.300   .     A
C26    O50     1.303   .     A
C27    O53     1.300   .     A
C27    O51     1.303   .     A
C28    O54     1.384   .     S
Cu29   O49     1.943   .     S
Cu29   Cu30    2.718   .     S
Cu29   O53     1.949   .     S
Cu29   O50     1.961   .     S
Cu29   N44     2.042   .     S
Cu29   O45     1.947   .     S
Cu30   O51     1.961   .     S
Cu30   N43     2.042   .     S
Cu30   O47     1.947   .     S
Cu30   O48     1.943   .     S
Cu30   O52     1.949   .     S
H38    C132    1.087   .     S
H39    C241    1.087   1_545 S
N43    Br651   1.877   1_554 S
N43    N692    1.289   1_554 S
N44    N367    1.289   .     S
N44    Br328   1.877   .     S
Br55   C76     1.927   .     S
Br56   C77     1.927   .     S
Br57   N421    1.877   .     S
Br58   N746    1.877   1_554 S
C59    C78     1.425   .     S
C59    O102    1.295   .     A
C59    O99     1.299   .     A
C60    O100    1.384   .     S
C60    C71     1.418   .     A
C60    C62     1.409   .     A
C61    C81     1.445   .     S
C61    C63     1.387   .     A
C61    C82     1.409   .     A
C62    C80     1.445   .     S
C62    C64     1.387   .     A
C63    C65     1.386   .     A
C63    H85     1.086   .     S
C64    H89     1.086   .     S
C64    C66     1.386   .     A
C65    C72     1.394   .     A
C65    C67     1.410   .     A
C66    C73     1.394   .     A
C66    C68     1.410   .     A
C67    C69     1.429   .     A
C67    C14     1.410   1_655 S
C68    C71     1.429   .     A
C69    C82     1.418   .     A
C69    C77     1.423   .     A
C70    C79     1.425   .     S
C70    O103    1.295   .     A
C70    O101    1.299   .     A
C71    C76     1.423   .     A
C72    H90     1.085   .     S
C72    C22     1.390   1_655 S
C73    H91     1.085   .     S
C74    H96     1.115   .     S
C74    H95     1.105   .     S
C74    H94     1.109   .     S
C74    O108    1.413   .     S
C75    H86     1.105   .     S
C75    H87     1.109   .     S
C75    O100    1.413   .     S
C75    H88     1.115   .     S
C77    C19     1.390   1_655 S
C78    C295    1.329   1_545 S
C78    H308    1.087   1_545 S
C79    C186    1.329   .     S
C79    H201    1.087   .     S
C80    O106    1.300   .     A
C80    O104    1.303   .     A
C81    O107    1.300   .     A
C81    O105    1.303   .     A
C82    O108    1.384   .     S
Cu83   O103    1.943   .     S
Cu83   Cu84    2.718   .     S
Cu83   O107    1.949   .     S
Cu83   O104    1.961   .     S
Cu83   N98     2.042   .     S
Cu83   O99     1.947   .     S
Cu84   O105    1.961   .     S
Cu84   N97     2.042   .     S
Cu84   O101    1.947   .     S
Cu84   O102    1.943   .     S
Cu84   O106    1.949   .     S
H92    C186    1.087   .     S
H93    C295    1.087   1_545 S
N97    Br705   1.877   1_554 S
N97    N746    1.289   1_554 S
N98    N421    1.289   .     S
N98    Br382   1.877   .     S
Br109  C130    1.927   .     S
Br110  C131    1.927   .     S
Br111  N475    1.877   .     S
Br112  N800    1.877   1_554 S
C113   C132    1.425   .     S
C113   O156    1.295   .     A
C113   O153    1.299   .     A
C114   O154    1.384   .     S
C114   C125    1.418   .     A
C114   C116    1.409   .     A
C115   C135    1.445   .     S
C115   C117    1.387   .     A
C115   C136    1.409   .     A
C116   C134    1.445   .     S
C116   C118    1.387   .     A
C117   C119    1.386   .     A
C117   H139    1.086   .     S
C118   H143    1.086   .     S
C118   C120    1.386   .     A
C119   C126    1.394   .     A
C119   C121    1.410   .     A
C120   C127    1.394   .     A
C120   C122    1.410   .     A
C121   C123    1.429   .     A
C121   C176    1.410   .     S
C122   C125    1.429   .     A
C122   C175    1.410   1_455 S
C123   C136    1.418   .     A
C123   C131    1.423   .     A
C124   C133    1.425   .     S
C124   O157    1.295   .     A
C124   O155    1.299   .     A
C125   C130    1.423   .     A
C126   H144    1.085   .     S
C126   C184    1.390   .     S
C127   H145    1.085   .     S
C127   C185    1.390   1_455 S
C128   H150    1.115   .     S
C128   H149    1.105   .     S
C128   H148    1.109   .     S
C128   O162    1.413   .     S
C129   H140    1.105   .     S
C129   H141    1.109   .     S
C129   O154    1.413   .     S
C129   H142    1.115   .     S
C130   C180    1.390   1_455 S
C131   C181    1.390   .     S
C133   C240    1.329   .     S
C133   H255    1.087   .     S
C134   O160    1.300   .     A
C134   O158    1.303   .     A
C135   O161    1.300   .     A
C135   O159    1.303   .     A
C136   O162    1.384   .     S
Cu137  O157    1.943   .     S
Cu137  Cu138   2.718   .     S
Cu137  O161    1.949   .     S
Cu137  O158    1.961   .     S
Cu137  N152    2.042   .     S
Cu137  O153    1.947   .     S
Cu138  O159    1.961   .     S
Cu138  N151    2.042   .     S
Cu138  O155    1.947   .     S
Cu138  O156    1.943   .     S
Cu138  O160    1.949   .     S
H146   C240    1.087   .     S
N151   Br759   1.877   1_554 S
N151   N800    1.289   1_554 S
N152   N475    1.289   .     S
N152   Br436   1.877   .     S
Br163  C184    1.927   .     S
Br164  C185    1.927   .     S
Br165  N529    1.877   .     S
Br166  N854    1.877   1_554 S
C167   C186    1.425   .     S
C167   O210    1.295   .     A
C167   O207    1.299   .     A
C168   O208    1.384   .     S
C168   C179    1.418   .     A
C168   C170    1.409   .     A
C169   C189    1.445   .     S
C169   C171    1.387   .     A
C169   C190    1.409   .     A
C170   C188    1.445   .     S
C170   C172    1.387   .     A
C171   C173    1.386   .     A
C171   H193    1.086   .     S
C172   H197    1.086   .     S
C172   C174    1.386   .     A
C173   C180    1.394   .     A
C173   C175    1.410   .     A
C174   C181    1.394   .     A
C174   C176    1.410   .     A
C175   C177    1.429   .     A
C175   C122    1.410   1_655 S
C176   C179    1.429   .     A
C177   C190    1.418   .     A
C177   C185    1.423   .     A
C178   C187    1.425   .     S
C178   O211    1.295   .     A
C178   O209    1.299   .     A
C179   C184    1.423   .     A
C180   H198    1.085   .     S
C180   C130    1.390   1_655 S
C181   H199    1.085   .     S
C182   H204    1.115   .     S
C182   H203    1.105   .     S
C182   H202    1.109   .     S
C182   O216    1.413   .     S
C183   H194    1.105   .     S
C183   H195    1.109   .     S
C183   O208    1.413   .     S
C183   H196    1.115   .     S
C185   C127    1.390   1_655 S
C187   C294    1.329   .     S
C187   H309    1.087   .     S
C188   O214    1.300   .     A
C188   O212    1.303   .     A
C189   O215    1.300   .     A
C189   O213    1.303   .     A
C190   O216    1.384   .     S
Cu191  O211    1.943   .     S
Cu191  Cu192   2.718   .     S
Cu191  O215    1.949   .     S
Cu191  O212    1.961   .     S
Cu191  N206    2.042   .     S
Cu191  O207    1.947   .     S
Cu192  O213    1.961   .     S
Cu192  N205    2.042   .     S
Cu192  O209    1.947   .     S
Cu192  O210    1.943   .     S
Cu192  O214    1.949   .     S
H200   C294    1.087   .     S
N205   Br813   1.877   1_554 S
N205   N854    1.289   1_554 S
N206   N529    1.289   .     S
N206   Br490   1.877   .     S
Br217  C238    1.927   .     S
Br218  C239    1.927   .     S
Br219  N583    1.877   .     S
Br220  N908    1.877   1_554 S
C221   C240    1.425   .     S
C221   O264    1.295   .     A
C221   O261    1.299   .     A
C222   O262    1.384   .     S
C222   C233    1.418   .     A
C222   C224    1.409   .     A
C223   C243    1.445   .     S
C223   C225    1.387   .     A
C223   C244    1.409   .     A
C224   C242    1.445   .     S
C224   C226    1.387   .     A
C225   C227    1.386   .     A
C225   H247    1.086   .     S
C226   H251    1.086   .     S
C226   C228    1.386   .     A
C227   C234    1.394   .     A
C227   C229    1.410   .     A
C228   C235    1.394   .     A
C228   C230    1.410   .     A
C229   C231    1.429   .     A
C229   C284    1.410   .     S
C230   C233    1.429   .     A
C230   C283    1.410   1_455 S
C231   C244    1.418   .     A
C231   C239    1.423   .     A
C232   C241    1.425   .     S
C232   O265    1.295   .     A
C232   O263    1.299   .     A
C233   C238    1.423   .     A
C234   H252    1.085   .     S
C234   C292    1.390   .     S
C235   H253    1.085   .     S
C235   C293    1.390   1_455 S
C236   H258    1.115   .     S
C236   H257    1.105   .     S
C236   H256    1.109   .     S
C236   O270    1.413   .     S
C237   H248    1.105   .     S
C237   H249    1.109   .     S
C237   O262    1.413   .     S
C237   H250    1.115   .     S
C238   C288    1.390   1_455 S
C239   C289    1.390   .     S
C241   C24     1.329   1_565 S
C241   H39     1.087   1_565 S
C242   O268    1.300   .     A
C242   O266    1.303   .     A
C243   O269    1.300   .     A
C243   O267    1.303   .     A
C244   O270    1.384   .     S
Cu245  O265    1.943   .     S
Cu245  Cu246   2.718   .     S
Cu245  O269    1.949   .     S
Cu245  O266    1.961   .     S
Cu245  N260    2.042   .     S
Cu245  O261    1.947   .     S
Cu246  O267    1.961   .     S
Cu246  N259    2.042   .     S
Cu246  O263    1.947   .     S
Cu246  O264    1.943   .     S
Cu246  O268    1.949   .     S
H254   C24     1.087   1_565 S
N259   Br867   1.877   1_554 S
N259   N908    1.289   1_554 S
N260   N583    1.289   .     S
N260   Br544   1.877   .     S
Br271  C292    1.927   .     S
Br272  C293    1.927   .     S
Br273  N637    1.877   .     S
Br274  N962    1.877   1_554 S
C275   C294    1.425   .     S
C275   O318    1.295   .     A
C275   O315    1.299   .     A
C276   O316    1.384   .     S
C276   C287    1.418   .     A
C276   C278    1.409   .     A
C277   C297    1.445   .     S
C277   C279    1.387   .     A
C277   C298    1.409   .     A
C278   C296    1.445   .     S
C278   C280    1.387   .     A
C279   C281    1.386   .     A
C279   H301    1.086   .     S
C280   H305    1.086   .     S
C280   C282    1.386   .     A
C281   C288    1.394   .     A
C281   C283    1.410   .     A
C282   C289    1.394   .     A
C282   C284    1.410   .     A
C283   C285    1.429   .     A
C283   C230    1.410   1_655 S
C284   C287    1.429   .     A
C285   C298    1.418   .     A
C285   C293    1.423   .     A
C286   C295    1.425   .     S
C286   O319    1.295   .     A
C286   O317    1.299   .     A
C287   C292    1.423   .     A
C288   H306    1.085   .     S
C288   C238    1.390   1_655 S
C289   H307    1.085   .     S
C290   H312    1.115   .     S
C290   H311    1.105   .     S
C290   H310    1.109   .     S
C290   O324    1.413   .     S
C291   H302    1.105   .     S
C291   H303    1.109   .     S
C291   O316    1.413   .     S
C291   H304    1.115   .     S
C293   C235    1.390   1_655 S
C295   C78     1.329   1_565 S
C295   H93     1.087   1_565 S
C296   O322    1.300   .     A
C296   O320    1.303   .     A
C297   O323    1.300   .     A
C297   O321    1.303   .     A
C298   O324    1.384   .     S
Cu299  O319    1.943   .     S
Cu299  Cu300   2.718   .     S
Cu299  O323    1.949   .     S
Cu299  O320    1.961   .     S
Cu299  N314    2.042   .     S
Cu299  O315    1.947   .     S
Cu300  O321    1.961   .     S
Cu300  N313    2.042   .     S
Cu300  O317    1.947   .     S
Cu300  O318    1.943   .     S
Cu300  O322    1.949   .     S
H308   C78     1.087   1_565 S
N313   Br921   1.877   1_554 S
N313   N962    1.289   1_554 S
N314   N637    1.289   .     S
N314   Br598   1.877   .     S
Br325  C346    1.927   .     S
Br326  C347    1.927   .     S
Br327  N691    1.877   .     S
C329   C348    1.425   .     S
C329   O372    1.295   .     A
C329   O369    1.299   .     A
C330   O370    1.384   .     S
C330   C341    1.418   .     A
C330   C332    1.409   .     A
C331   C351    1.445   .     S
C331   C333    1.387   .     A
C331   C352    1.409   .     A
C332   C350    1.445   .     S
C332   C334    1.387   .     A
C333   C335    1.386   .     A
C333   H355    1.086   .     S
C334   H359    1.086   .     S
C334   C336    1.386   .     A
C335   C342    1.394   .     A
C335   C337    1.410   .     A
C336   C343    1.394   .     A
C336   C338    1.410   .     A
C337   C339    1.429   .     A
C337   C392    1.410   .     S
C338   C341    1.429   .     A
C338   C391    1.410   1_455 S
C339   C352    1.418   .     A
C339   C347    1.423   .     A
C340   C349    1.425   .     S
C340   O373    1.295   .     A
C340   O371    1.299   .     A
C341   C346    1.423   .     A
C342   H360    1.085   .     S
C342   C400    1.390   .     S
C343   H361    1.085   .     S
C343   C401    1.390   1_455 S
C344   H366    1.115   .     S
C344   H365    1.105   .     S
C344   H364    1.109   .     S
C344   O378    1.413   .     S
C345   H356    1.105   .     S
C345   H357    1.109   .     S
C345   O370    1.413   .     S
C345   H358    1.115   .     S
C346   C396    1.390   1_455 S
C347   C397    1.390   .     S
C348   C565    1.329   1_545 S
C348   H578    1.087   1_545 S
C349   C456    1.329   .     S
C349   H471    1.087   .     S
C350   O376    1.300   .     A
C350   O374    1.303   .     A
C351   O377    1.300   .     A
C351   O375    1.303   .     A
C352   O378    1.384   .     S
Cu353  O373    1.943   .     S
Cu353  Cu354   2.718   .     S
Cu353  O377    1.949   .     S
Cu353  O374    1.961   .     S
Cu353  N368    2.042   .     S
Cu353  O369    1.947   .     S
Cu354  O375    1.961   .     S
Cu354  N367    2.042   .     S
Cu354  O371    1.947   .     S
Cu354  O372    1.943   .     S
Cu354  O376    1.949   .     S
H362   C456    1.087   .     S
H363   C565    1.087   1_545 S
N368   N691    1.289   .     S
N368   Br652   1.877   .     S
Br379  C400    1.927   .     S
Br380  C401    1.927   .     S
Br381  N745    1.877   .     S
C383   C402    1.425   .     S
C383   O426    1.295   .     A
C383   O423    1.299   .     A
C384   O424    1.384   .     S
C384   C395    1.418   .     A
C384   C386    1.409   .     A
C385   C405    1.445   .     S
C385   C387    1.387   .     A
C385   C406    1.409   .     A
C386   C404    1.445   .     S
C386   C388    1.387   .     A
C387   C389    1.386   .     A
C387   H409    1.086   .     S
C388   H413    1.086   .     S
C388   C390    1.386   .     A
C389   C396    1.394   .     A
C389   C391    1.410   .     A
C390   C397    1.394   .     A
C390   C392    1.410   .     A
C391   C393    1.429   .     A
C391   C338    1.410   1_655 S
C392   C395    1.429   .     A
C393   C406    1.418   .     A
C393   C401    1.423   .     A
C394   C403    1.425   .     S
C394   O427    1.295   .     A
C394   O425    1.299   .     A
C395   C400    1.423   .     A
C396   H414    1.085   .     S
C396   C346    1.390   1_655 S
C397   H415    1.085   .     S
C398   H420    1.115   .     S
C398   H419    1.105   .     S
C398   H418    1.109   .     S
C398   O432    1.413   .     S
C399   H410    1.105   .     S
C399   H411    1.109   .     S
C399   O424    1.413   .     S
C399   H412    1.115   .     S
C401   C343    1.390   1_655 S
C402   C619    1.329   1_545 S
C402   H632    1.087   1_545 S
C403   C510    1.329   .     S
C403   H525    1.087   .     S
C404   O430    1.300   .     A
C404   O428    1.303   .     A
C405   O431    1.300   .     A
C405   O429    1.303   .     A
C406   O432    1.384   .     S
Cu407  O427    1.943   .     S
Cu407  Cu408   2.718   .     S
Cu407  O431    1.949   .     S
Cu407  O428    1.961   .     S
Cu407  N422    2.042   .     S
Cu407  O423    1.947   .     S
Cu408  O429    1.961   .     S
Cu408  N421    2.042   .     S
Cu408  O425    1.947   .     S
Cu408  O426    1.943   .     S
Cu408  O430    1.949   .     S
H416   C510    1.087   .     S
H417   C619    1.087   1_545 S
N422   N745    1.289   .     S
N422   Br706   1.877   .     S
Br433  C454    1.927   .     S
Br434  C455    1.927   .     S
Br435  N799    1.877   .     S
C437   C456    1.425   .     S
C437   O480    1.295   .     A
C437   O477    1.299   .     A
C438   O478    1.384   .     S
C438   C449    1.418   .     A
C438   C440    1.409   .     A
C439   C459    1.445   .     S
C439   C441    1.387   .     A
C439   C460    1.409   .     A
C440   C458    1.445   .     S
C440   C442    1.387   .     A
C441   C443    1.386   .     A
C441   H463    1.086   .     S
C442   H467    1.086   .     S
C442   C444    1.386   .     A
C443   C450    1.394   .     A
C443   C445    1.410   .     A
C444   C451    1.394   .     A
C444   C446    1.410   .     A
C445   C447    1.429   .     A
C445   C500    1.410   .     S
C446   C449    1.429   .     A
C446   C499    1.410   1_455 S
C447   C460    1.418   .     A
C447   C455    1.423   .     A
C448   C457    1.425   .     S
C448   O481    1.295   .     A
C448   O479    1.299   .     A
C449   C454    1.423   .     A
C450   H468    1.085   .     S
C450   C508    1.390   .     S
C451   H469    1.085   .     S
C451   C509    1.390   1_455 S
C452   H474    1.115   .     S
C452   H473    1.105   .     S
C452   H472    1.109   .     S
C452   O486    1.413   .     S
C453   H464    1.105   .     S
C453   H465    1.109   .     S
C453   O478    1.413   .     S
C453   H466    1.115   .     S
C454   C504    1.390   1_455 S
C455   C505    1.390   .     S
C457   C564    1.329   .     S
C457   H579    1.087   .     S
C458   O484    1.300   .     A
C458   O482    1.303   .     A
C459   O485    1.300   .     A
C459   O483    1.303   .     A
C460   O486    1.384   .     S
Cu461  O481    1.943   .     S
Cu461  Cu462   2.718   .     S
Cu461  O485    1.949   .     S
Cu461  O482    1.961   .     S
Cu461  N476    2.042   .     S
Cu461  O477    1.947   .     S
Cu462  O483    1.961   .     S
Cu462  N475    2.042   .     S
Cu462  O479    1.947   .     S
Cu462  O480    1.943   .     S
Cu462  O484    1.949   .     S
H470   C564    1.087   .     S
N476   N799    1.289   .     S
N476   Br760   1.877   .     S
Br487  C508    1.927   .     S
Br488  C509    1.927   .     S
Br489  N853    1.877   .     S
C491   C510    1.425   .     S
C491   O534    1.295   .     A
C491   O531    1.299   .     A
C492   O532    1.384   .     S
C492   C503    1.418   .     A
C492   C494    1.409   .     A
C493   C513    1.445   .     S
C493   C495    1.387   .     A
C493   C514    1.409   .     A
C494   C512    1.445   .     S
C494   C496    1.387   .     A
C495   C497    1.386   .     A
C495   H517    1.086   .     S
C496   H521    1.086   .     S
C496   C498    1.386   .     A
C497   C504    1.394   .     A
C497   C499    1.410   .     A
C498   C505    1.394   .     A
C498   C500    1.410   .     A
C499   C501    1.429   .     A
C499   C446    1.410   1_655 S
C500   C503    1.429   .     A
C501   C514    1.418   .     A
C501   C509    1.423   .     A
C502   C511    1.425   .     S
C502   O535    1.295   .     A
C502   O533    1.299   .     A
C503   C508    1.423   .     A
C504   H522    1.085   .     S
C504   C454    1.390   1_655 S
C505   H523    1.085   .     S
C506   H528    1.115   .     S
C506   H527    1.105   .     S
C506   H526    1.109   .     S
C506   O540    1.413   .     S
C507   H518    1.105   .     S
C507   H519    1.109   .     S
C507   O532    1.413   .     S
C507   H520    1.115   .     S
C509   C451    1.390   1_655 S
C511   C618    1.329   .     S
C511   H633    1.087   .     S
C512   O538    1.300   .     A
C512   O536    1.303   .     A
C513   O539    1.300   .     A
C513   O537    1.303   .     A
C514   O540    1.384   .     S
Cu515  O535    1.943   .     S
Cu515  Cu516   2.718   .     S
Cu515  O539    1.949   .     S
Cu515  O536    1.961   .     S
Cu515  N530    2.042   .     S
Cu515  O531    1.947   .     S
Cu516  O537    1.961   .     S
Cu516  N529    2.042   .     S
Cu516  O533    1.947   .     S
Cu516  O534    1.943   .     S
Cu516  O538    1.949   .     S
H524   C618    1.087   .     S
N530   N853    1.289   .     S
N530   Br814   1.877   .     S
Br541  C562    1.927   .     S
Br542  C563    1.927   .     S
Br543  N907    1.877   .     S
C545   C564    1.425   .     S
C545   O588    1.295   .     A
C545   O585    1.299   .     A
C546   O586    1.384   .     S
C546   C557    1.418   .     A
C546   C548    1.409   .     A
C547   C567    1.445   .     S
C547   C549    1.387   .     A
C547   C568    1.409   .     A
C548   C566    1.445   .     S
C548   C550    1.387   .     A
C549   C551    1.386   .     A
C549   H571    1.086   .     S
C550   H575    1.086   .     S
C550   C552    1.386   .     A
C551   C558    1.394   .     A
C551   C553    1.410   .     A
C552   C559    1.394   .     A
C552   C554    1.410   .     A
C553   C555    1.429   .     A
C553   C608    1.410   .     S
C554   C557    1.429   .     A
C554   C607    1.410   1_455 S
C555   C568    1.418   .     A
C555   C563    1.423   .     A
C556   C565    1.425   .     S
C556   O589    1.295   .     A
C556   O587    1.299   .     A
C557   C562    1.423   .     A
C558   H576    1.085   .     S
C558   C616    1.390   .     S
C559   H577    1.085   .     S
C559   C617    1.390   1_455 S
C560   H582    1.115   .     S
C560   H581    1.105   .     S
C560   H580    1.109   .     S
C560   O594    1.413   .     S
C561   H572    1.105   .     S
C561   H573    1.109   .     S
C561   O586    1.413   .     S
C561   H574    1.115   .     S
C562   C612    1.390   1_455 S
C563   C613    1.390   .     S
C565   C348    1.329   1_565 S
C565   H363    1.087   1_565 S
C566   O592    1.300   .     A
C566   O590    1.303   .     A
C567   O593    1.300   .     A
C567   O591    1.303   .     A
C568   O594    1.384   .     S
Cu569  O589    1.943   .     S
Cu569  Cu570   2.718   .     S
Cu569  O593    1.949   .     S
Cu569  O590    1.961   .     S
Cu569  N584    2.042   .     S
Cu569  O585    1.947   .     S
Cu570  O591    1.961   .     S
Cu570  N583    2.042   .     S
Cu570  O587    1.947   .     S
Cu570  O588    1.943   .     S
Cu570  O592    1.949   .     S
H578   C348    1.087   1_565 S
N584   N907    1.289   .     S
N584   Br868   1.877   .     S
Br595  C616    1.927   .     S
Br596  C617    1.927   .     S
Br597  N961    1.877   .     S
C599   C618    1.425   .     S
C599   O642    1.295   .     A
C599   O639    1.299   .     A
C600   O640    1.384   .     S
C600   C611    1.418   .     A
C600   C602    1.409   .     A
C601   C621    1.445   .     S
C601   C603    1.387   .     A
C601   C622    1.409   .     A
C602   C620    1.445   .     S
C602   C604    1.387   .     A
C603   C605    1.386   .     A
C603   H625    1.086   .     S
C604   H629    1.086   .     S
C604   C606    1.386   .     A
C605   C612    1.394   .     A
C605   C607    1.410   .     A
C606   C613    1.394   .     A
C606   C608    1.410   .     A
C607   C609    1.429   .     A
C607   C554    1.410   1_655 S
C608   C611    1.429   .     A
C609   C622    1.418   .     A
C609   C617    1.423   .     A
C610   C619    1.425   .     S
C610   O643    1.295   .     A
C610   O641    1.299   .     A
C611   C616    1.423   .     A
C612   H630    1.085   .     S
C612   C562    1.390   1_655 S
C613   H631    1.085   .     S
C614   H636    1.115   .     S
C614   H635    1.105   .     S
C614   H634    1.109   .     S
C614   O648    1.413   .     S
C615   H626    1.105   .     S
C615   H627    1.109   .     S
C615   O640    1.413   .     S
C615   H628    1.115   .     S
C617   C559    1.390   1_655 S
C619   C402    1.329   1_565 S
C619   H417    1.087   1_565 S
C620   O646    1.300   .     A
C620   O644    1.303   .     A
C621   O647    1.300   .     A
C621   O645    1.303   .     A
C622   O648    1.384   .     S
Cu623  O643    1.943   .     S
Cu623  Cu624   2.718   .     S
Cu623  O647    1.949   .     S
Cu623  O644    1.961   .     S
Cu623  N638    2.042   .     S
Cu623  O639    1.947   .     S
Cu624  O645    1.961   .     S
Cu624  N637    2.042   .     S
Cu624  O641    1.947   .     S
Cu624  O642    1.943   .     S
Cu624  O646    1.949   .     S
H632   C402    1.087   1_565 S
N638   N961    1.289   .     S
N638   Br922   1.877   .     S
Br649  C670    1.927   .     S
Br650  C671    1.927   .     S
Br651  N43     1.877   1_556 S
C653   C672    1.425   .     S
C653   O696    1.295   .     A
C653   O693    1.299   .     A
C654   O694    1.384   .     S
C654   C665    1.418   .     A
C654   C656    1.409   .     A
C655   C675    1.445   .     S
C655   C657    1.387   .     A
C655   C676    1.409   .     A
C656   C674    1.445   .     S
C656   C658    1.387   .     A
C657   C659    1.386   .     A
C657   H679    1.086   .     S
C658   H683    1.086   .     S
C658   C660    1.386   .     A
C659   C666    1.394   .     A
C659   C661    1.410   .     A
C660   C667    1.394   .     A
C660   C662    1.410   .     A
C661   C663    1.429   .     A
C661   C716    1.410   .     S
C662   C665    1.429   .     A
C662   C715    1.410   1_455 S
C663   C676    1.418   .     A
C663   C671    1.423   .     A
C664   C673    1.425   .     S
C664   O697    1.295   .     A
C664   O695    1.299   .     A
C665   C670    1.423   .     A
C666   H684    1.085   .     S
C666   C724    1.390   .     S
C667   H685    1.085   .     S
C667   C725    1.390   1_455 S
C668   H690    1.115   .     S
C668   H689    1.105   .     S
C668   H688    1.109   .     S
C668   O702    1.413   .     S
C669   H680    1.105   .     S
C669   H681    1.109   .     S
C669   O694    1.413   .     S
C669   H682    1.115   .     S
C670   C720    1.390   1_455 S
C671   C721    1.390   .     S
C672   C889    1.329   1_545 S
C672   H902    1.087   1_545 S
C673   C780    1.329   .     S
C673   H795    1.087   .     S
C674   O700    1.300   .     A
C674   O698    1.303   .     A
C675   O701    1.300   .     A
C675   O699    1.303   .     A
C676   O702    1.384   .     S
Cu677  O697    1.943   .     S
Cu677  Cu678   2.718   .     S
Cu677  O701    1.949   .     S
Cu677  O698    1.961   .     S
Cu677  N692    2.042   .     S
Cu677  O693    1.947   .     S
Cu678  O699    1.961   .     S
Cu678  N691    2.042   .     S
Cu678  O695    1.947   .     S
Cu678  O696    1.943   .     S
Cu678  O700    1.949   .     S
H686   C780    1.087   .     S
H687   C889    1.087   1_545 S
N692   N43     1.289   1_556 S
N692   Br4     1.877   1_556 S
Br703  C724    1.927   .     S
Br704  C725    1.927   .     S
Br705  N97     1.877   1_556 S
C707   C726    1.425   .     S
C707   O750    1.295   .     A
C707   O747    1.299   .     A
C708   O748    1.384   .     S
C708   C719    1.418   .     A
C708   C710    1.409   .     A
C709   C729    1.445   .     S
C709   C711    1.387   .     A
C709   C730    1.409   .     A
C710   C728    1.445   .     S
C710   C712    1.387   .     A
C711   C713    1.386   .     A
C711   H733    1.086   .     S
C712   H737    1.086   .     S
C712   C714    1.386   .     A
C713   C720    1.394   .     A
C713   C715    1.410   .     A
C714   C721    1.394   .     A
C714   C716    1.410   .     A
C715   C717    1.429   .     A
C715   C662    1.410   1_655 S
C716   C719    1.429   .     A
C717   C730    1.418   .     A
C717   C725    1.423   .     A
C718   C727    1.425   .     S
C718   O751    1.295   .     A
C718   O749    1.299   .     A
C719   C724    1.423   .     A
C720   H738    1.085   .     S
C720   C670    1.390   1_655 S
C721   H739    1.085   .     S
C722   H744    1.115   .     S
C722   H743    1.105   .     S
C722   H742    1.109   .     S
C722   O756    1.413   .     S
C723   H734    1.105   .     S
C723   H735    1.109   .     S
C723   O748    1.413   .     S
C723   H736    1.115   .     S
C725   C667    1.390   1_655 S
C726   C943    1.329   1_545 S
C726   H956    1.087   1_545 S
C727   C834    1.329   .     S
C727   H849    1.087   .     S
C728   O754    1.300   .     A
C728   O752    1.303   .     A
C729   O755    1.300   .     A
C729   O753    1.303   .     A
C730   O756    1.384   .     S
Cu731  O751    1.943   .     S
Cu731  Cu732   2.718   .     S
Cu731  O755    1.949   .     S
Cu731  O752    1.961   .     S
Cu731  N746    2.042   .     S
Cu731  O747    1.947   .     S
Cu732  O753    1.961   .     S
Cu732  N745    2.042   .     S
Cu732  O749    1.947   .     S
Cu732  O750    1.943   .     S
Cu732  O754    1.949   .     S
H740   C834    1.087   .     S
H741   C943    1.087   1_545 S
N746   N97     1.289   1_556 S
N746   Br58    1.877   1_556 S
Br757  C778    1.927   .     S
Br758  C779    1.927   .     S
Br759  N151    1.877   1_556 S
C761   C780    1.425   .     S
C761   O804    1.295   .     A
C761   O801    1.299   .     A
C762   O802    1.384   .     S
C762   C773    1.418   .     A
C762   C764    1.409   .     A
C763   C783    1.445   .     S
C763   C765    1.387   .     A
C763   C784    1.409   .     A
C764   C782    1.445   .     S
C764   C766    1.387   .     A
C765   C767    1.386   .     A
C765   H787    1.086   .     S
C766   H791    1.086   .     S
C766   C768    1.386   .     A
C767   C774    1.394   .     A
C767   C769    1.410   .     A
C768   C775    1.394   .     A
C768   C770    1.410   .     A
C769   C771    1.429   .     A
C769   C824    1.410   .     S
C770   C773    1.429   .     A
C770   C823    1.410   1_455 S
C771   C784    1.418   .     A
C771   C779    1.423   .     A
C772   C781    1.425   .     S
C772   O805    1.295   .     A
C772   O803    1.299   .     A
C773   C778    1.423   .     A
C774   H792    1.085   .     S
C774   C832    1.390   .     S
C775   H793    1.085   .     S
C775   C833    1.390   1_455 S
C776   H798    1.115   .     S
C776   H797    1.105   .     S
C776   H796    1.109   .     S
C776   O810    1.413   .     S
C777   H788    1.105   .     S
C777   H789    1.109   .     S
C777   O802    1.413   .     S
C777   H790    1.115   .     S
C778   C828    1.390   1_455 S
C779   C829    1.390   .     S
C781   C888    1.329   .     S
C781   H903    1.087   .     S
C782   O808    1.300   .     A
C782   O806    1.303   .     A
C783   O809    1.300   .     A
C783   O807    1.303   .     A
C784   O810    1.384   .     S
Cu785  O805    1.943   .     S
Cu785  Cu786   2.718   .     S
Cu785  O809    1.949   .     S
Cu785  O806    1.961   .     S
Cu785  N800    2.042   .     S
Cu785  O801    1.947   .     S
Cu786  O807    1.961   .     S
Cu786  N799    2.042   .     S
Cu786  O803    1.947   .     S
Cu786  O804    1.943   .     S
Cu786  O808    1.949   .     S
H794   C888    1.087   .     S
N800   N151    1.289   1_556 S
N800   Br112   1.877   1_556 S
Br811  C832    1.927   .     S
Br812  C833    1.927   .     S
Br813  N205    1.877   1_556 S
C815   C834    1.425   .     S
C815   O858    1.295   .     A
C815   O855    1.299   .     A
C816   O856    1.384   .     S
C816   C827    1.418   .     A
C816   C818    1.409   .     A
C817   C837    1.445   .     S
C817   C819    1.387   .     A
C817   C838    1.409   .     A
C818   C836    1.445   .     S
C818   C820    1.387   .     A
C819   C821    1.386   .     A
C819   H841    1.086   .     S
C820   H845    1.086   .     S
C820   C822    1.386   .     A
C821   C828    1.394   .     A
C821   C823    1.410   .     A
C822   C829    1.394   .     A
C822   C824    1.410   .     A
C823   C825    1.429   .     A
C823   C770    1.410   1_655 S
C824   C827    1.429   .     A
C825   C838    1.418   .     A
C825   C833    1.423   .     A
C826   C835    1.425   .     S
C826   O859    1.295   .     A
C826   O857    1.299   .     A
C827   C832    1.423   .     A
C828   H846    1.085   .     S
C828   C778    1.390   1_655 S
C829   H847    1.085   .     S
C830   H852    1.115   .     S
C830   H851    1.105   .     S
C830   H850    1.109   .     S
C830   O864    1.413   .     S
C831   H842    1.105   .     S
C831   H843    1.109   .     S
C831   O856    1.413   .     S
C831   H844    1.115   .     S
C833   C775    1.390   1_655 S
C835   C942    1.329   .     S
C835   H957    1.087   .     S
C836   O862    1.300   .     A
C836   O860    1.303   .     A
C837   O863    1.300   .     A
C837   O861    1.303   .     A
C838   O864    1.384   .     S
Cu839  O859    1.943   .     S
Cu839  Cu840   2.718   .     S
Cu839  O863    1.949   .     S
Cu839  O860    1.961   .     S
Cu839  N854    2.042   .     S
Cu839  O855    1.947   .     S
Cu840  O861    1.961   .     S
Cu840  N853    2.042   .     S
Cu840  O857    1.947   .     S
Cu840  O858    1.943   .     S
Cu840  O862    1.949   .     S
H848   C942    1.087   .     S
N854   N205    1.289   1_556 S
N854   Br166   1.877   1_556 S
Br865  C886    1.927   .     S
Br866  C887    1.927   .     S
Br867  N259    1.877   1_556 S
C869   C888    1.425   .     S
C869   O912    1.295   .     A
C869   O909    1.299   .     A
C870   O910    1.384   .     S
C870   C881    1.418   .     A
C870   C872    1.409   .     A
C871   C891    1.445   .     S
C871   C873    1.387   .     A
C871   C892    1.409   .     A
C872   C890    1.445   .     S
C872   C874    1.387   .     A
C873   C875    1.386   .     A
C873   H895    1.086   .     S
C874   H899    1.086   .     S
C874   C876    1.386   .     A
C875   C882    1.394   .     A
C875   C877    1.410   .     A
C876   C883    1.394   .     A
C876   C878    1.410   .     A
C877   C879    1.429   .     A
C877   C932    1.410   .     S
C878   C881    1.429   .     A
C878   C931    1.410   1_455 S
C879   C892    1.418   .     A
C879   C887    1.423   .     A
C880   C889    1.425   .     S
C880   O913    1.295   .     A
C880   O911    1.299   .     A
C881   C886    1.423   .     A
C882   H900    1.085   .     S
C882   C940    1.390   .     S
C883   H901    1.085   .     S
C883   C941    1.390   1_455 S
C884   H906    1.115   .     S
C884   H905    1.105   .     S
C884   H904    1.109   .     S
C884   O918    1.413   .     S
C885   H896    1.105   .     S
C885   H897    1.109   .     S
C885   O910    1.413   .     S
C885   H898    1.115   .     S
C886   C936    1.390   1_455 S
C887   C937    1.390   .     S
C889   C672    1.329   1_565 S
C889   H687    1.087   1_565 S
C890   O916    1.300   .     A
C890   O914    1.303   .     A
C891   O917    1.300   .     A
C891   O915    1.303   .     A
C892   O918    1.384   .     S
Cu893  O913    1.943   .     S
Cu893  Cu894   2.718   .     S
Cu893  O917    1.949   .     S
Cu893  O914    1.961   .     S
Cu893  N908    2.042   .     S
Cu893  O909    1.947   .     S
Cu894  O915    1.961   .     S
Cu894  N907    2.042   .     S
Cu894  O911    1.947   .     S
Cu894  O912    1.943   .     S
Cu894  O916    1.949   .     S
H902   C672    1.087   1_565 S
N908   N259    1.289   1_556 S
N908   Br220   1.877   1_556 S
Br919  C940    1.927   .     S
Br920  C941    1.927   .     S
Br921  N313    1.877   1_556 S
C923   C942    1.425   .     S
C923   O966    1.295   .     A
C923   O963    1.299   .     A
C924   O964    1.384   .     S
C924   C935    1.418   .     A
C924   C926    1.409   .     A
C925   C945    1.445   .     S
C925   C927    1.387   .     A
C925   C946    1.409   .     A
C926   C944    1.445   .     S
C926   C928    1.387   .     A
C927   C929    1.386   .     A
C927   H949    1.086   .     S
C928   H953    1.086   .     S
C928   C930    1.386   .     A
C929   C936    1.394   .     A
C929   C931    1.410   .     A
C930   C937    1.394   .     A
C930   C932    1.410   .     A
C931   C933    1.429   .     A
C931   C878    1.410   1_655 S
C932   C935    1.429   .     A
C933   C946    1.418   .     A
C933   C941    1.423   .     A
C934   C943    1.425   .     S
C934   O967    1.295   .     A
C934   O965    1.299   .     A
C935   C940    1.423   .     A
C936   H954    1.085   .     S
C936   C886    1.390   1_655 S
C937   H955    1.085   .     S
C938   H960    1.115   .     S
C938   H959    1.105   .     S
C938   H958    1.109   .     S
C938   O972    1.413   .     S
C939   H950    1.105   .     S
C939   H951    1.109   .     S
C939   O964    1.413   .     S
C939   H952    1.115   .     S
C941   C883    1.390   1_655 S
C943   C726    1.329   1_565 S
C943   H741    1.087   1_565 S
C944   O970    1.300   .     A
C944   O968    1.303   .     A
C945   O971    1.300   .     A
C945   O969    1.303   .     A
C946   O972    1.384   .     S
Cu947  O967    1.943   .     S
Cu947  Cu948   2.718   .     S
Cu947  O971    1.949   .     S
Cu947  O968    1.961   .     S
Cu947  N962    2.042   .     S
Cu947  O963    1.947   .     S
Cu948  O969    1.961   .     S
Cu948  N961    2.042   .     S
Cu948  O965    1.947   .     S
Cu948  O966    1.943   .     S
Cu948  O970    1.949   .     S
H956   C726    1.087   1_565 S
N962   N313    1.289   1_556 S
N962   Br274   1.877   1_556 S
