data_str_m2_o1_o18_pcu_sym.3
_audit_creation_date              2020-01-03
_audit_creation_method            'Materials Studio'
_symmetry_space_group_name_H-M    'P1'
_symmetry_Int_Tables_number       1
_symmetry_cell_setting            triclinic
loop_
_symmetry_equiv_pos_as_xyz
  x,y,z
_cell_length_a                    28.5620
_cell_length_b                    32.5021
_cell_length_c                    30.9921
_cell_angle_alpha                 89.8657
_cell_angle_beta                  74.5249
_cell_angle_gamma                 90.0032
loop_
_atom_site_label
_atom_site_type_symbol
_atom_site_fract_x
_atom_site_fract_y
_atom_site_fract_z
_atom_site_U_iso_or_equiv
_atom_site_adp_type
_atom_site_occupancy
C1     C     0.33331   0.08736   0.25003   0.00000  Uiso   1.00
C2     C     0.04258   0.02129   0.24988   0.00000  Uiso   1.00
C3     C     0.00001   0.29059   0.24998   0.00000  Uiso   1.00
C4     C     0.33332   0.04274   0.25004   0.00000  Uiso   1.00
C5     C     0.18288   0.14273   0.27953   0.00000  Uiso   1.00
C6     C     0.15045   0.19061   0.22047   0.00000  Uiso   1.00
C7     C     0.13328   0.14277   0.27954   0.00000  Uiso   1.00
C8     C     0.20006   0.19057   0.22046   0.00000  Uiso   1.00
C9     C     0.30610   0.16715   0.33605   0.00000  Uiso   1.00
C10    C     0.02723   0.16658   0.16392   0.00000  Uiso   1.00
C11    C     0.29098   0.17122   0.38491   0.00000  Uiso   1.00
C12    C     0.00002   0.24597   0.24998   0.00000  Uiso   1.00
C13    C     0.04218   0.16578   0.11481   0.00000  Uiso   1.00
C14    C     0.30609   0.19372   0.45418   0.00000  Uiso   1.00
C15    C     0.02500   0.15328   0.04378   0.00000  Uiso   1.00
C16    C     0.32306   0.18552   0.40860   0.00000  Uiso   1.00
C17    C     0.00900   0.15678   0.09013   0.00000  Uiso   1.00
C18    C     0.24227   0.16418   0.40733   0.00000  Uiso   1.00
C19    C     0.09105   0.17261   0.09263   0.00000  Uiso   1.00
C20    C     0.22372   0.17375   0.45291   0.00000  Uiso   1.00
C21    C     0.10799   0.17030   0.04575   0.00000  Uiso   1.00
C22    C     0.25684   0.18801   0.47644   0.00000  Uiso   1.00
C23    C     0.19207   0.19146   0.04458   0.00000  Uiso   1.00
C24    C     0.07413   0.15956   0.02150   0.00000  Uiso   1.00
C25    C     0.17343   0.16971   0.47558   0.00000  Uiso   1.00
C26    C     0.15772   0.17705   0.02255   0.00000  Uiso   1.00
C27    C     0.13818   0.15952   0.45272   0.00000  Uiso   1.00
C28    C     0.24052   0.19694   0.02183   0.00000  Uiso   1.00
C29    C     0.08959   0.15476   0.47532   0.00000  Uiso   1.00
C30    C     0.29073   0.02128   0.25019   0.00000  Uiso   1.00
C31    C     0.04260   0.31206   0.24984   0.00000  Uiso   1.00
C32    C     0.29075   0.31204   0.25015   0.00000  Uiso   1.00
Cu33   Cu    0.04689   0.16667   0.25000   0.00000  Uiso   1.00
Cu34   Cu    0.28645   0.16666   0.25000   0.00000  Uiso   1.00
H35    H     0.26545   0.20829   0.04002   0.00000  Uiso   1.00
H36    H     0.14649   0.15583   0.41698   0.00000  Uiso   1.00
H37    H     0.25742   0.03728   0.25033   0.00000  Uiso   1.00
H38    H     0.07591   0.29605   0.24969   0.00000  Uiso   1.00
H39    H     0.25745   0.29603   0.25025   0.00000  Uiso   1.00
H40    H     0.07588   0.03730   0.24977   0.00000  Uiso   1.00
H41    H     0.19468   0.12348   0.30314   0.00000  Uiso   1.00
H42    H     0.13865   0.20986   0.19687   0.00000  Uiso   1.00
H43    H     0.10772   0.12359   0.30316   0.00000  Uiso   1.00
H44    H     0.22562   0.20975   0.19684   0.00000  Uiso   1.00
H45    H     0.06398   0.14675   0.45643   0.00000  Uiso   1.00
H46    H     0.11543   0.17848   0.11299   0.00000  Uiso   1.00
H47    H     0.21965   0.15115   0.38814   0.00000  Uiso   1.00
H48    H     0.30438   0.15129   0.10669   0.00000  Uiso   1.00
H49    H     0.02753   0.19138   0.39175   0.00000  Uiso   1.00
H50    H     0.33130   0.20535   0.47187   0.00000  Uiso   1.00
H51    H     0.33237   0.14500   0.02538   0.00000  Uiso   1.00
H52    H     0.18267   0.20004   0.07935   0.00000  Uiso   1.00
N53    N     0.11736   0.16668   0.24999   0.00000  Uiso   1.00
N54    N     0.21597   0.16666   0.25001   0.00000  Uiso   1.00
O55    O     0.03958   0.10655   0.25000   0.00000  Uiso   1.00
O56    O     0.29375   0.22678   0.25000   0.00000  Uiso   1.00
O57    O     0.29372   0.10654   0.25001   0.00000  Uiso   1.00
O58    O     0.03961   0.22679   0.25000   0.00000  Uiso   1.00
O59    O     0.01852   0.16668   0.31492   0.00000  Uiso   1.00
O60    O     0.31481   0.16666   0.18509   0.00000  Uiso   1.00
O61    O     0.27267   0.16667   0.31492   0.00000  Uiso   1.00
O62    O     0.06067   0.16667   0.18508   0.00000  Uiso   1.00
C63    C     0.66665   0.08736   0.25003   0.00000  Uiso   1.00
C64    C     0.37591   0.02129   0.24988   0.00000  Uiso   1.00
C65    C     0.33335   0.29059   0.24998   0.00000  Uiso   1.00
C66    C     0.66665   0.04274   0.25004   0.00000  Uiso   1.00
C67    C     0.51621   0.14273   0.27953   0.00000  Uiso   1.00
C68    C     0.48378   0.19061   0.22047   0.00000  Uiso   1.00
C69    C     0.46661   0.14277   0.27954   0.00000  Uiso   1.00
C70    C     0.53339   0.19057   0.22046   0.00000  Uiso   1.00
C71    C     0.63944   0.16715   0.33605   0.00000  Uiso   1.00
C72    C     0.36057   0.16658   0.16392   0.00000  Uiso   1.00
C73    C     0.62431   0.17122   0.38491   0.00000  Uiso   1.00
C74    C     0.33335   0.24597   0.24998   0.00000  Uiso   1.00
C75    C     0.37551   0.16578   0.11481   0.00000  Uiso   1.00
C76    C     0.63942   0.19372   0.45418   0.00000  Uiso   1.00
C77    C     0.35833   0.15328   0.04378   0.00000  Uiso   1.00
C78    C     0.65639   0.18552   0.40860   0.00000  Uiso   1.00
C79    C     0.34233   0.15678   0.09013   0.00000  Uiso   1.00
C80    C     0.57560   0.16418   0.40733   0.00000  Uiso   1.00
C81    C     0.42438   0.17261   0.09263   0.00000  Uiso   1.00
C82    C     0.55706   0.17375   0.45291   0.00000  Uiso   1.00
C83    C     0.44133   0.17030   0.04575   0.00000  Uiso   1.00
C84    C     0.59017   0.18801   0.47644   0.00000  Uiso   1.00
C85    C     0.52541   0.19146   0.04458   0.00000  Uiso   1.00
C86    C     0.40746   0.15956   0.02150   0.00000  Uiso   1.00
C87    C     0.50676   0.16971   0.47558   0.00000  Uiso   1.00
C88    C     0.49105   0.17705   0.02255   0.00000  Uiso   1.00
C89    C     0.47151   0.15952   0.45272   0.00000  Uiso   1.00
C90    C     0.57385   0.19694   0.02183   0.00000  Uiso   1.00
C91    C     0.42292   0.15476   0.47532   0.00000  Uiso   1.00
C92    C     0.62406   0.02128   0.25019   0.00000  Uiso   1.00
C93    C     0.37593   0.31206   0.24984   0.00000  Uiso   1.00
C94    C     0.62408   0.31204   0.25015   0.00000  Uiso   1.00
Cu95   Cu    0.38022   0.16667   0.25000   0.00000  Uiso   1.00
Cu96   Cu    0.61978   0.16666   0.25000   0.00000  Uiso   1.00
H97    H     0.59879   0.20829   0.04002   0.00000  Uiso   1.00
H98    H     0.47983   0.15583   0.41698   0.00000  Uiso   1.00
H99    H     0.59075   0.03728   0.25033   0.00000  Uiso   1.00
H100   H     0.40924   0.29605   0.24969   0.00000  Uiso   1.00
H101   H     0.59078   0.29603   0.25025   0.00000  Uiso   1.00
H102   H     0.40921   0.03730   0.24977   0.00000  Uiso   1.00
H103   H     0.52802   0.12348   0.30314   0.00000  Uiso   1.00
H104   H     0.47198   0.20986   0.19687   0.00000  Uiso   1.00
H105   H     0.44105   0.12359   0.30316   0.00000  Uiso   1.00
H106   H     0.55895   0.20975   0.19684   0.00000  Uiso   1.00
H107   H     0.39731   0.14675   0.45643   0.00000  Uiso   1.00
H108   H     0.44877   0.17848   0.11299   0.00000  Uiso   1.00
H109   H     0.55298   0.15115   0.38814   0.00000  Uiso   1.00
H110   H     0.63771   0.15129   0.10669   0.00000  Uiso   1.00
H111   H     0.36086   0.19138   0.39175   0.00000  Uiso   1.00
H112   H     0.66463   0.20535   0.47187   0.00000  Uiso   1.00
H113   H     0.66570   0.14500   0.02538   0.00000  Uiso   1.00
H114   H     0.51601   0.20004   0.07935   0.00000  Uiso   1.00
N115   N     0.45069   0.16668   0.24999   0.00000  Uiso   1.00
N116   N     0.54931   0.16666   0.25001   0.00000  Uiso   1.00
O117   O     0.37291   0.10655   0.25000   0.00000  Uiso   1.00
O118   O     0.62709   0.22678   0.25000   0.00000  Uiso   1.00
O119   O     0.62706   0.10654   0.25001   0.00000  Uiso   1.00
O120   O     0.37294   0.22679   0.25000   0.00000  Uiso   1.00
O121   O     0.35186   0.16668   0.31492   0.00000  Uiso   1.00
O122   O     0.64814   0.16666   0.18509   0.00000  Uiso   1.00
O123   O     0.60600   0.16667   0.31492   0.00000  Uiso   1.00
O124   O     0.39400   0.16667   0.18508   0.00000  Uiso   1.00
C125   C     0.99998   0.08736   0.25003   0.00000  Uiso   1.00
C126   C     0.70925   0.02129   0.24988   0.00000  Uiso   1.00
C127   C     0.66668   0.29059   0.24998   0.00000  Uiso   1.00
C128   C     0.99998   0.04274   0.25004   0.00000  Uiso   1.00
C129   C     0.84955   0.14273   0.27953   0.00000  Uiso   1.00
C130   C     0.81712   0.19061   0.22047   0.00000  Uiso   1.00
C131   C     0.79994   0.14277   0.27954   0.00000  Uiso   1.00
C132   C     0.86672   0.19057   0.22046   0.00000  Uiso   1.00
C133   C     0.97277   0.16715   0.33605   0.00000  Uiso   1.00
C134   C     0.69390   0.16658   0.16392   0.00000  Uiso   1.00
C135   C     0.95764   0.17122   0.38491   0.00000  Uiso   1.00
C136   C     0.66669   0.24597   0.24998   0.00000  Uiso   1.00
C137   C     0.70885   0.16578   0.11481   0.00000  Uiso   1.00
C138   C     0.97275   0.19372   0.45418   0.00000  Uiso   1.00
C139   C     0.69166   0.15328   0.04378   0.00000  Uiso   1.00
C140   C     0.98973   0.18552   0.40860   0.00000  Uiso   1.00
C141   C     0.67567   0.15678   0.09013   0.00000  Uiso   1.00
C142   C     0.90893   0.16418   0.40733   0.00000  Uiso   1.00
C143   C     0.75772   0.17261   0.09263   0.00000  Uiso   1.00
C144   C     0.89039   0.17375   0.45291   0.00000  Uiso   1.00
C145   C     0.77466   0.17030   0.04575   0.00000  Uiso   1.00
C146   C     0.92351   0.18801   0.47644   0.00000  Uiso   1.00
C147   C     0.85874   0.19146   0.04458   0.00000  Uiso   1.00
C148   C     0.74080   0.15956   0.02150   0.00000  Uiso   1.00
C149   C     0.84009   0.16971   0.47558   0.00000  Uiso   1.00
C150   C     0.82438   0.17705   0.02255   0.00000  Uiso   1.00
C151   C     0.80484   0.15952   0.45272   0.00000  Uiso   1.00
C152   C     0.90718   0.19694   0.02183   0.00000  Uiso   1.00
C153   C     0.75626   0.15476   0.47532   0.00000  Uiso   1.00
C154   C     0.95740   0.02128   0.25019   0.00000  Uiso   1.00
C155   C     0.70927   0.31206   0.24984   0.00000  Uiso   1.00
C156   C     0.95741   0.31204   0.25015   0.00000  Uiso   1.00
Cu157  Cu    0.71355   0.16667   0.25000   0.00000  Uiso   1.00
Cu158  Cu    0.95311   0.16666   0.25000   0.00000  Uiso   1.00
H159   H     0.93212   0.20829   0.04002   0.00000  Uiso   1.00
H160   H     0.81316   0.15583   0.41698   0.00000  Uiso   1.00
H161   H     0.92408   0.03728   0.25033   0.00000  Uiso   1.00
H162   H     0.74258   0.29605   0.24969   0.00000  Uiso   1.00
H163   H     0.92412   0.29603   0.25025   0.00000  Uiso   1.00
H164   H     0.74254   0.03730   0.24977   0.00000  Uiso   1.00
H165   H     0.86135   0.12348   0.30314   0.00000  Uiso   1.00
H166   H     0.80531   0.20986   0.19687   0.00000  Uiso   1.00
H167   H     0.77438   0.12359   0.30316   0.00000  Uiso   1.00
H168   H     0.89229   0.20975   0.19684   0.00000  Uiso   1.00
H169   H     0.73064   0.14675   0.45643   0.00000  Uiso   1.00
H170   H     0.78210   0.17848   0.11299   0.00000  Uiso   1.00
H171   H     0.88632   0.15115   0.38814   0.00000  Uiso   1.00
H172   H     0.97104   0.15129   0.10669   0.00000  Uiso   1.00
H173   H     0.69419   0.19138   0.39175   0.00000  Uiso   1.00
H174   H     0.99796   0.20535   0.47187   0.00000  Uiso   1.00
H175   H     0.99904   0.14500   0.02538   0.00000  Uiso   1.00
H176   H     0.84934   0.20004   0.07935   0.00000  Uiso   1.00
N177   N     0.78403   0.16668   0.24999   0.00000  Uiso   1.00
N178   N     0.88264   0.16666   0.25001   0.00000  Uiso   1.00
O179   O     0.70625   0.10655   0.25000   0.00000  Uiso   1.00
O180   O     0.96042   0.22678   0.25000   0.00000  Uiso   1.00
O181   O     0.96039   0.10654   0.25001   0.00000  Uiso   1.00
O182   O     0.70628   0.22679   0.25000   0.00000  Uiso   1.00
O183   O     0.68519   0.16668   0.31492   0.00000  Uiso   1.00
O184   O     0.98148   0.16666   0.18509   0.00000  Uiso   1.00
O185   O     0.93933   0.16667   0.31492   0.00000  Uiso   1.00
O186   O     0.72733   0.16667   0.18508   0.00000  Uiso   1.00
C187   C     0.33331   0.42069   0.25003   0.00000  Uiso   1.00
C188   C     0.04258   0.35462   0.24988   0.00000  Uiso   1.00
C189   C     0.00001   0.62393   0.24998   0.00000  Uiso   1.00
C190   C     0.33332   0.37607   0.25004   0.00000  Uiso   1.00
C191   C     0.18288   0.47606   0.27953   0.00000  Uiso   1.00
C192   C     0.15045   0.52394   0.22047   0.00000  Uiso   1.00
C193   C     0.13328   0.47610   0.27954   0.00000  Uiso   1.00
C194   C     0.20006   0.52390   0.22046   0.00000  Uiso   1.00
C195   C     0.30610   0.50049   0.33605   0.00000  Uiso   1.00
C196   C     0.02723   0.49991   0.16392   0.00000  Uiso   1.00
C197   C     0.29098   0.50455   0.38491   0.00000  Uiso   1.00
C198   C     0.00002   0.57931   0.24998   0.00000  Uiso   1.00
C199   C     0.04218   0.49911   0.11481   0.00000  Uiso   1.00
C200   C     0.30609   0.52705   0.45418   0.00000  Uiso   1.00
C201   C     0.02500   0.48662   0.04378   0.00000  Uiso   1.00
C202   C     0.32306   0.51885   0.40860   0.00000  Uiso   1.00
C203   C     0.00900   0.49011   0.09013   0.00000  Uiso   1.00
C204   C     0.24227   0.49751   0.40733   0.00000  Uiso   1.00
C205   C     0.09105   0.50595   0.09263   0.00000  Uiso   1.00
C206   C     0.22372   0.50708   0.45291   0.00000  Uiso   1.00
C207   C     0.10799   0.50364   0.04575   0.00000  Uiso   1.00
C208   C     0.25684   0.52134   0.47644   0.00000  Uiso   1.00
C209   C     0.19207   0.52479   0.04458   0.00000  Uiso   1.00
C210   C     0.07413   0.49289   0.02150   0.00000  Uiso   1.00
C211   C     0.17343   0.50305   0.47558   0.00000  Uiso   1.00
C212   C     0.15772   0.51039   0.02255   0.00000  Uiso   1.00
C213   C     0.13818   0.49285   0.45272   0.00000  Uiso   1.00
C214   C     0.24052   0.53027   0.02183   0.00000  Uiso   1.00
C215   C     0.08959   0.48810   0.47532   0.00000  Uiso   1.00
C216   C     0.29073   0.35461   0.25019   0.00000  Uiso   1.00
C217   C     0.04260   0.64539   0.24984   0.00000  Uiso   1.00
C218   C     0.29075   0.64537   0.25015   0.00000  Uiso   1.00
Cu219  Cu    0.04689   0.50001   0.25000   0.00000  Uiso   1.00
Cu220  Cu    0.28645   0.49999   0.25000   0.00000  Uiso   1.00
H221   H     0.26545   0.54162   0.04002   0.00000  Uiso   1.00
H222   H     0.14649   0.48916   0.41698   0.00000  Uiso   1.00
H223   H     0.25742   0.37061   0.25033   0.00000  Uiso   1.00
H224   H     0.07591   0.62939   0.24969   0.00000  Uiso   1.00
H225   H     0.25745   0.62936   0.25025   0.00000  Uiso   1.00
H226   H     0.07588   0.37064   0.24977   0.00000  Uiso   1.00
H227   H     0.19468   0.45681   0.30314   0.00000  Uiso   1.00
H228   H     0.13865   0.54320   0.19687   0.00000  Uiso   1.00
H229   H     0.10772   0.45692   0.30316   0.00000  Uiso   1.00
H230   H     0.22562   0.54308   0.19684   0.00000  Uiso   1.00
H231   H     0.06398   0.48008   0.45643   0.00000  Uiso   1.00
H232   H     0.11543   0.51182   0.11299   0.00000  Uiso   1.00
H233   H     0.21965   0.48448   0.38814   0.00000  Uiso   1.00
H234   H     0.30438   0.48462   0.10669   0.00000  Uiso   1.00
H235   H     0.02753   0.52471   0.39175   0.00000  Uiso   1.00
H236   H     0.33130   0.53869   0.47187   0.00000  Uiso   1.00
H237   H     0.33237   0.47833   0.02538   0.00000  Uiso   1.00
H238   H     0.18267   0.53337   0.07935   0.00000  Uiso   1.00
N239   N     0.11736   0.50001   0.24999   0.00000  Uiso   1.00
N240   N     0.21597   0.49999   0.25001   0.00000  Uiso   1.00
O241   O     0.03958   0.43989   0.25000   0.00000  Uiso   1.00
O242   O     0.29375   0.56011   0.25000   0.00000  Uiso   1.00
O243   O     0.29372   0.43988   0.25001   0.00000  Uiso   1.00
O244   O     0.03961   0.56012   0.25000   0.00000  Uiso   1.00
O245   O     0.01852   0.50001   0.31492   0.00000  Uiso   1.00
O246   O     0.31481   0.49999   0.18509   0.00000  Uiso   1.00
O247   O     0.27267   0.50000   0.31492   0.00000  Uiso   1.00
O248   O     0.06067   0.50000   0.18508   0.00000  Uiso   1.00
C249   C     0.66665   0.42069   0.25003   0.00000  Uiso   1.00
C250   C     0.37591   0.35462   0.24988   0.00000  Uiso   1.00
C251   C     0.33335   0.62393   0.24998   0.00000  Uiso   1.00
C252   C     0.66665   0.37607   0.25004   0.00000  Uiso   1.00
C253   C     0.51621   0.47606   0.27953   0.00000  Uiso   1.00
C254   C     0.48378   0.52394   0.22047   0.00000  Uiso   1.00
C255   C     0.46661   0.47610   0.27954   0.00000  Uiso   1.00
C256   C     0.53339   0.52390   0.22046   0.00000  Uiso   1.00
C257   C     0.63944   0.50049   0.33605   0.00000  Uiso   1.00
C258   C     0.36057   0.49991   0.16392   0.00000  Uiso   1.00
C259   C     0.62431   0.50455   0.38491   0.00000  Uiso   1.00
C260   C     0.33335   0.57931   0.24998   0.00000  Uiso   1.00
C261   C     0.37551   0.49911   0.11481   0.00000  Uiso   1.00
C262   C     0.63942   0.52705   0.45418   0.00000  Uiso   1.00
C263   C     0.35833   0.48662   0.04378   0.00000  Uiso   1.00
C264   C     0.65639   0.51885   0.40860   0.00000  Uiso   1.00
C265   C     0.34233   0.49011   0.09013   0.00000  Uiso   1.00
C266   C     0.57560   0.49751   0.40733   0.00000  Uiso   1.00
C267   C     0.42438   0.50595   0.09263   0.00000  Uiso   1.00
C268   C     0.55706   0.50708   0.45291   0.00000  Uiso   1.00
C269   C     0.44133   0.50364   0.04575   0.00000  Uiso   1.00
C270   C     0.59017   0.52134   0.47644   0.00000  Uiso   1.00
C271   C     0.52541   0.52479   0.04458   0.00000  Uiso   1.00
C272   C     0.40746   0.49289   0.02150   0.00000  Uiso   1.00
C273   C     0.50676   0.50305   0.47558   0.00000  Uiso   1.00
C274   C     0.49105   0.51039   0.02255   0.00000  Uiso   1.00
C275   C     0.47151   0.49285   0.45272   0.00000  Uiso   1.00
C276   C     0.57385   0.53027   0.02183   0.00000  Uiso   1.00
C277   C     0.42292   0.48810   0.47532   0.00000  Uiso   1.00
C278   C     0.62406   0.35461   0.25019   0.00000  Uiso   1.00
C279   C     0.37593   0.64539   0.24984   0.00000  Uiso   1.00
C280   C     0.62408   0.64537   0.25015   0.00000  Uiso   1.00
Cu281  Cu    0.38022   0.50001   0.25000   0.00000  Uiso   1.00
Cu282  Cu    0.61978   0.49999   0.25000   0.00000  Uiso   1.00
H283   H     0.59879   0.54162   0.04002   0.00000  Uiso   1.00
H284   H     0.47983   0.48916   0.41698   0.00000  Uiso   1.00
H285   H     0.59075   0.37061   0.25033   0.00000  Uiso   1.00
H286   H     0.40924   0.62939   0.24969   0.00000  Uiso   1.00
H287   H     0.59078   0.62936   0.25025   0.00000  Uiso   1.00
H288   H     0.40921   0.37064   0.24977   0.00000  Uiso   1.00
H289   H     0.52802   0.45681   0.30314   0.00000  Uiso   1.00
H290   H     0.47198   0.54320   0.19687   0.00000  Uiso   1.00
H291   H     0.44105   0.45692   0.30316   0.00000  Uiso   1.00
H292   H     0.55895   0.54308   0.19684   0.00000  Uiso   1.00
H293   H     0.39731   0.48008   0.45643   0.00000  Uiso   1.00
H294   H     0.44877   0.51182   0.11299   0.00000  Uiso   1.00
H295   H     0.55298   0.48448   0.38814   0.00000  Uiso   1.00
H296   H     0.63771   0.48462   0.10669   0.00000  Uiso   1.00
H297   H     0.36086   0.52471   0.39175   0.00000  Uiso   1.00
H298   H     0.66463   0.53869   0.47187   0.00000  Uiso   1.00
H299   H     0.66570   0.47833   0.02538   0.00000  Uiso   1.00
H300   H     0.51601   0.53337   0.07935   0.00000  Uiso   1.00
N301   N     0.45069   0.50001   0.24999   0.00000  Uiso   1.00
N302   N     0.54931   0.49999   0.25001   0.00000  Uiso   1.00
O303   O     0.37291   0.43989   0.25000   0.00000  Uiso   1.00
O304   O     0.62709   0.56011   0.25000   0.00000  Uiso   1.00
O305   O     0.62706   0.43988   0.25001   0.00000  Uiso   1.00
O306   O     0.37294   0.56012   0.25000   0.00000  Uiso   1.00
O307   O     0.35186   0.50001   0.31492   0.00000  Uiso   1.00
O308   O     0.64814   0.49999   0.18509   0.00000  Uiso   1.00
O309   O     0.60600   0.50000   0.31492   0.00000  Uiso   1.00
O310   O     0.39400   0.50000   0.18508   0.00000  Uiso   1.00
C311   C     0.99998   0.42069   0.25003   0.00000  Uiso   1.00
C312   C     0.70925   0.35462   0.24988   0.00000  Uiso   1.00
C313   C     0.66668   0.62393   0.24998   0.00000  Uiso   1.00
C314   C     0.99998   0.37607   0.25004   0.00000  Uiso   1.00
C315   C     0.84955   0.47606   0.27953   0.00000  Uiso   1.00
C316   C     0.81712   0.52394   0.22047   0.00000  Uiso   1.00
C317   C     0.79994   0.47610   0.27954   0.00000  Uiso   1.00
C318   C     0.86672   0.52390   0.22046   0.00000  Uiso   1.00
C319   C     0.97277   0.50049   0.33605   0.00000  Uiso   1.00
C320   C     0.69390   0.49991   0.16392   0.00000  Uiso   1.00
C321   C     0.95764   0.50455   0.38491   0.00000  Uiso   1.00
C322   C     0.66669   0.57931   0.24998   0.00000  Uiso   1.00
C323   C     0.70885   0.49911   0.11481   0.00000  Uiso   1.00
C324   C     0.97275   0.52705   0.45418   0.00000  Uiso   1.00
C325   C     0.69166   0.48662   0.04378   0.00000  Uiso   1.00
C326   C     0.98973   0.51885   0.40860   0.00000  Uiso   1.00
C327   C     0.67567   0.49011   0.09013   0.00000  Uiso   1.00
C328   C     0.90893   0.49751   0.40733   0.00000  Uiso   1.00
C329   C     0.75772   0.50595   0.09263   0.00000  Uiso   1.00
C330   C     0.89039   0.50708   0.45291   0.00000  Uiso   1.00
C331   C     0.77466   0.50364   0.04575   0.00000  Uiso   1.00
C332   C     0.92351   0.52134   0.47644   0.00000  Uiso   1.00
C333   C     0.85874   0.52479   0.04458   0.00000  Uiso   1.00
C334   C     0.74080   0.49289   0.02150   0.00000  Uiso   1.00
C335   C     0.84009   0.50305   0.47558   0.00000  Uiso   1.00
C336   C     0.82438   0.51039   0.02255   0.00000  Uiso   1.00
C337   C     0.80484   0.49285   0.45272   0.00000  Uiso   1.00
C338   C     0.90718   0.53027   0.02183   0.00000  Uiso   1.00
C339   C     0.75626   0.48810   0.47532   0.00000  Uiso   1.00
C340   C     0.95740   0.35461   0.25019   0.00000  Uiso   1.00
C341   C     0.70927   0.64539   0.24984   0.00000  Uiso   1.00
C342   C     0.95741   0.64537   0.25015   0.00000  Uiso   1.00
Cu343  Cu    0.71355   0.50001   0.25000   0.00000  Uiso   1.00
Cu344  Cu    0.95311   0.49999   0.25000   0.00000  Uiso   1.00
H345   H     0.93212   0.54162   0.04002   0.00000  Uiso   1.00
H346   H     0.81316   0.48916   0.41698   0.00000  Uiso   1.00
H347   H     0.92408   0.37061   0.25033   0.00000  Uiso   1.00
H348   H     0.74258   0.62939   0.24969   0.00000  Uiso   1.00
H349   H     0.92412   0.62936   0.25025   0.00000  Uiso   1.00
H350   H     0.74254   0.37064   0.24977   0.00000  Uiso   1.00
H351   H     0.86135   0.45681   0.30314   0.00000  Uiso   1.00
H352   H     0.80531   0.54320   0.19687   0.00000  Uiso   1.00
H353   H     0.77438   0.45692   0.30316   0.00000  Uiso   1.00
H354   H     0.89229   0.54308   0.19684   0.00000  Uiso   1.00
H355   H     0.73064   0.48008   0.45643   0.00000  Uiso   1.00
H356   H     0.78210   0.51182   0.11299   0.00000  Uiso   1.00
H357   H     0.88632   0.48448   0.38814   0.00000  Uiso   1.00
H358   H     0.97104   0.48462   0.10669   0.00000  Uiso   1.00
H359   H     0.69419   0.52471   0.39175   0.00000  Uiso   1.00
H360   H     0.99796   0.53869   0.47187   0.00000  Uiso   1.00
H361   H     0.99904   0.47833   0.02538   0.00000  Uiso   1.00
H362   H     0.84934   0.53337   0.07935   0.00000  Uiso   1.00
N363   N     0.78403   0.50001   0.24999   0.00000  Uiso   1.00
N364   N     0.88264   0.49999   0.25001   0.00000  Uiso   1.00
O365   O     0.70625   0.43989   0.25000   0.00000  Uiso   1.00
O366   O     0.96042   0.56011   0.25000   0.00000  Uiso   1.00
O367   O     0.96039   0.43988   0.25001   0.00000  Uiso   1.00
O368   O     0.70628   0.56012   0.25000   0.00000  Uiso   1.00
O369   O     0.68519   0.50001   0.31492   0.00000  Uiso   1.00
O370   O     0.98148   0.49999   0.18509   0.00000  Uiso   1.00
O371   O     0.93933   0.50000   0.31492   0.00000  Uiso   1.00
O372   O     0.72733   0.50000   0.18508   0.00000  Uiso   1.00
C373   C     0.33331   0.75402   0.25003   0.00000  Uiso   1.00
C374   C     0.04258   0.68796   0.24988   0.00000  Uiso   1.00
C375   C     0.00001   0.95726   0.24998   0.00000  Uiso   1.00
C376   C     0.33332   0.70941   0.25004   0.00000  Uiso   1.00
C377   C     0.18288   0.80940   0.27953   0.00000  Uiso   1.00
C378   C     0.15045   0.85727   0.22047   0.00000  Uiso   1.00
C379   C     0.13328   0.80943   0.27954   0.00000  Uiso   1.00
C380   C     0.20006   0.85724   0.22046   0.00000  Uiso   1.00
C381   C     0.30610   0.83382   0.33605   0.00000  Uiso   1.00
C382   C     0.02723   0.83324   0.16392   0.00000  Uiso   1.00
C383   C     0.29098   0.83789   0.38491   0.00000  Uiso   1.00
C384   C     0.00002   0.91264   0.24998   0.00000  Uiso   1.00
C385   C     0.04218   0.83245   0.11481   0.00000  Uiso   1.00
C386   C     0.30609   0.86038   0.45418   0.00000  Uiso   1.00
C387   C     0.02500   0.81995   0.04378   0.00000  Uiso   1.00
C388   C     0.32306   0.85219   0.40860   0.00000  Uiso   1.00
C389   C     0.00900   0.82345   0.09013   0.00000  Uiso   1.00
C390   C     0.24227   0.83085   0.40733   0.00000  Uiso   1.00
C391   C     0.09105   0.83928   0.09263   0.00000  Uiso   1.00
C392   C     0.22372   0.84042   0.45291   0.00000  Uiso   1.00
C393   C     0.10799   0.83697   0.04575   0.00000  Uiso   1.00
C394   C     0.25684   0.85468   0.47644   0.00000  Uiso   1.00
C395   C     0.19207   0.85813   0.04458   0.00000  Uiso   1.00
C396   C     0.07413   0.82622   0.02150   0.00000  Uiso   1.00
C397   C     0.17343   0.83638   0.47558   0.00000  Uiso   1.00
C398   C     0.15772   0.84372   0.02255   0.00000  Uiso   1.00
C399   C     0.13818   0.82618   0.45272   0.00000  Uiso   1.00
C400   C     0.24052   0.86360   0.02183   0.00000  Uiso   1.00
C401   C     0.08959   0.82143   0.47532   0.00000  Uiso   1.00
C402   C     0.29073   0.68794   0.25019   0.00000  Uiso   1.00
C403   C     0.04260   0.97872   0.24984   0.00000  Uiso   1.00
C404   C     0.29075   0.97871   0.25015   0.00000  Uiso   1.00
Cu405  Cu    0.04689   0.83334   0.25000   0.00000  Uiso   1.00
Cu406  Cu    0.28645   0.83333   0.25000   0.00000  Uiso   1.00
H407   H     0.26545   0.87495   0.04002   0.00000  Uiso   1.00
H408   H     0.14649   0.82249   0.41698   0.00000  Uiso   1.00
H409   H     0.25742   0.70394   0.25033   0.00000  Uiso   1.00
H410   H     0.07591   0.96272   0.24969   0.00000  Uiso   1.00
H411   H     0.25745   0.96270   0.25025   0.00000  Uiso   1.00
H412   H     0.07588   0.70397   0.24977   0.00000  Uiso   1.00
H413   H     0.19468   0.79015   0.30314   0.00000  Uiso   1.00
H414   H     0.13865   0.87653   0.19687   0.00000  Uiso   1.00
H415   H     0.10772   0.79026   0.30316   0.00000  Uiso   1.00
H416   H     0.22562   0.87641   0.19684   0.00000  Uiso   1.00
H417   H     0.06398   0.81341   0.45643   0.00000  Uiso   1.00
H418   H     0.11543   0.84515   0.11299   0.00000  Uiso   1.00
H419   H     0.21965   0.81781   0.38814   0.00000  Uiso   1.00
H420   H     0.30438   0.81795   0.10669   0.00000  Uiso   1.00
H421   H     0.02753   0.85804   0.39175   0.00000  Uiso   1.00
H422   H     0.33130   0.87202   0.47187   0.00000  Uiso   1.00
H423   H     0.33237   0.81166   0.02538   0.00000  Uiso   1.00
H424   H     0.18267   0.86671   0.07935   0.00000  Uiso   1.00
N425   N     0.11736   0.83334   0.24999   0.00000  Uiso   1.00
N426   N     0.21597   0.83332   0.25001   0.00000  Uiso   1.00
O427   O     0.03958   0.77322   0.25000   0.00000  Uiso   1.00
O428   O     0.29375   0.89345   0.25000   0.00000  Uiso   1.00
O429   O     0.29372   0.77321   0.25001   0.00000  Uiso   1.00
O430   O     0.03961   0.89346   0.25000   0.00000  Uiso   1.00
O431   O     0.01852   0.83334   0.31492   0.00000  Uiso   1.00
O432   O     0.31481   0.83332   0.18509   0.00000  Uiso   1.00
O433   O     0.27267   0.83333   0.31492   0.00000  Uiso   1.00
O434   O     0.06067   0.83333   0.18508   0.00000  Uiso   1.00
C435   C     0.66665   0.75402   0.25003   0.00000  Uiso   1.00
C436   C     0.37591   0.68796   0.24988   0.00000  Uiso   1.00
C437   C     0.33335   0.95726   0.24998   0.00000  Uiso   1.00
C438   C     0.66665   0.70941   0.25004   0.00000  Uiso   1.00
C439   C     0.51621   0.80940   0.27953   0.00000  Uiso   1.00
C440   C     0.48378   0.85727   0.22047   0.00000  Uiso   1.00
C441   C     0.46661   0.80943   0.27954   0.00000  Uiso   1.00
C442   C     0.53339   0.85724   0.22046   0.00000  Uiso   1.00
C443   C     0.63944   0.83382   0.33605   0.00000  Uiso   1.00
C444   C     0.36057   0.83324   0.16392   0.00000  Uiso   1.00
C445   C     0.62431   0.83789   0.38491   0.00000  Uiso   1.00
C446   C     0.33335   0.91264   0.24998   0.00000  Uiso   1.00
C447   C     0.37551   0.83245   0.11481   0.00000  Uiso   1.00
C448   C     0.63942   0.86038   0.45418   0.00000  Uiso   1.00
C449   C     0.35833   0.81995   0.04378   0.00000  Uiso   1.00
C450   C     0.65639   0.85219   0.40860   0.00000  Uiso   1.00
C451   C     0.34233   0.82345   0.09013   0.00000  Uiso   1.00
C452   C     0.57560   0.83085   0.40733   0.00000  Uiso   1.00
C453   C     0.42438   0.83928   0.09263   0.00000  Uiso   1.00
C454   C     0.55706   0.84042   0.45291   0.00000  Uiso   1.00
C455   C     0.44133   0.83697   0.04575   0.00000  Uiso   1.00
C456   C     0.59017   0.85468   0.47644   0.00000  Uiso   1.00
C457   C     0.52541   0.85813   0.04458   0.00000  Uiso   1.00
C458   C     0.40746   0.82622   0.02150   0.00000  Uiso   1.00
C459   C     0.50676   0.83638   0.47558   0.00000  Uiso   1.00
C460   C     0.49105   0.84372   0.02255   0.00000  Uiso   1.00
C461   C     0.47151   0.82618   0.45272   0.00000  Uiso   1.00
C462   C     0.57385   0.86360   0.02183   0.00000  Uiso   1.00
C463   C     0.42292   0.82143   0.47532   0.00000  Uiso   1.00
C464   C     0.62406   0.68794   0.25019   0.00000  Uiso   1.00
C465   C     0.37593   0.97872   0.24984   0.00000  Uiso   1.00
C466   C     0.62408   0.97871   0.25015   0.00000  Uiso   1.00
Cu467  Cu    0.38022   0.83334   0.25000   0.00000  Uiso   1.00
Cu468  Cu    0.61978   0.83333   0.25000   0.00000  Uiso   1.00
H469   H     0.59879   0.87495   0.04002   0.00000  Uiso   1.00
H470   H     0.47983   0.82249   0.41698   0.00000  Uiso   1.00
H471   H     0.59075   0.70394   0.25033   0.00000  Uiso   1.00
H472   H     0.40924   0.96272   0.24969   0.00000  Uiso   1.00
H473   H     0.59078   0.96270   0.25025   0.00000  Uiso   1.00
H474   H     0.40921   0.70397   0.24977   0.00000  Uiso   1.00
H475   H     0.52802   0.79015   0.30314   0.00000  Uiso   1.00
H476   H     0.47198   0.87653   0.19687   0.00000  Uiso   1.00
H477   H     0.44105   0.79026   0.30316   0.00000  Uiso   1.00
H478   H     0.55895   0.87641   0.19684   0.00000  Uiso   1.00
H479   H     0.39731   0.81341   0.45643   0.00000  Uiso   1.00
H480   H     0.44877   0.84515   0.11299   0.00000  Uiso   1.00
H481   H     0.55298   0.81781   0.38814   0.00000  Uiso   1.00
H482   H     0.63771   0.81795   0.10669   0.00000  Uiso   1.00
H483   H     0.36086   0.85804   0.39175   0.00000  Uiso   1.00
H484   H     0.66463   0.87202   0.47187   0.00000  Uiso   1.00
H485   H     0.66570   0.81166   0.02538   0.00000  Uiso   1.00
H486   H     0.51601   0.86671   0.07935   0.00000  Uiso   1.00
N487   N     0.45069   0.83334   0.24999   0.00000  Uiso   1.00
N488   N     0.54931   0.83332   0.25001   0.00000  Uiso   1.00
O489   O     0.37291   0.77322   0.25000   0.00000  Uiso   1.00
O490   O     0.62709   0.89345   0.25000   0.00000  Uiso   1.00
O491   O     0.62706   0.77321   0.25001   0.00000  Uiso   1.00
O492   O     0.37294   0.89346   0.25000   0.00000  Uiso   1.00
O493   O     0.35186   0.83334   0.31492   0.00000  Uiso   1.00
O494   O     0.64814   0.83332   0.18509   0.00000  Uiso   1.00
O495   O     0.60600   0.83333   0.31492   0.00000  Uiso   1.00
O496   O     0.39400   0.83333   0.18508   0.00000  Uiso   1.00
C497   C     0.99998   0.75402   0.25003   0.00000  Uiso   1.00
C498   C     0.70925   0.68796   0.24988   0.00000  Uiso   1.00
C499   C     0.66668   0.95726   0.24998   0.00000  Uiso   1.00
C500   C     0.99998   0.70941   0.25004   0.00000  Uiso   1.00
C501   C     0.84955   0.80940   0.27953   0.00000  Uiso   1.00
C502   C     0.81712   0.85727   0.22047   0.00000  Uiso   1.00
C503   C     0.79994   0.80943   0.27954   0.00000  Uiso   1.00
C504   C     0.86672   0.85724   0.22046   0.00000  Uiso   1.00
C505   C     0.97277   0.83382   0.33605   0.00000  Uiso   1.00
C506   C     0.69390   0.83324   0.16392   0.00000  Uiso   1.00
C507   C     0.95764   0.83789   0.38491   0.00000  Uiso   1.00
C508   C     0.66669   0.91264   0.24998   0.00000  Uiso   1.00
C509   C     0.70885   0.83245   0.11481   0.00000  Uiso   1.00
C510   C     0.97275   0.86038   0.45418   0.00000  Uiso   1.00
C511   C     0.69166   0.81995   0.04378   0.00000  Uiso   1.00
C512   C     0.98973   0.85219   0.40860   0.00000  Uiso   1.00
C513   C     0.67567   0.82345   0.09013   0.00000  Uiso   1.00
C514   C     0.90893   0.83085   0.40733   0.00000  Uiso   1.00
C515   C     0.75772   0.83928   0.09263   0.00000  Uiso   1.00
C516   C     0.89039   0.84042   0.45291   0.00000  Uiso   1.00
C517   C     0.77466   0.83697   0.04575   0.00000  Uiso   1.00
C518   C     0.92351   0.85468   0.47644   0.00000  Uiso   1.00
C519   C     0.85874   0.85813   0.04458   0.00000  Uiso   1.00
C520   C     0.74080   0.82622   0.02150   0.00000  Uiso   1.00
C521   C     0.84009   0.83638   0.47558   0.00000  Uiso   1.00
C522   C     0.82438   0.84372   0.02255   0.00000  Uiso   1.00
C523   C     0.80484   0.82618   0.45272   0.00000  Uiso   1.00
C524   C     0.90718   0.86360   0.02183   0.00000  Uiso   1.00
C525   C     0.75626   0.82143   0.47532   0.00000  Uiso   1.00
C526   C     0.95740   0.68794   0.25019   0.00000  Uiso   1.00
C527   C     0.70927   0.97872   0.24984   0.00000  Uiso   1.00
C528   C     0.95741   0.97871   0.25015   0.00000  Uiso   1.00
Cu529  Cu    0.71355   0.83334   0.25000   0.00000  Uiso   1.00
Cu530  Cu    0.95311   0.83333   0.25000   0.00000  Uiso   1.00
H531   H     0.93212   0.87495   0.04002   0.00000  Uiso   1.00
H532   H     0.81316   0.82249   0.41698   0.00000  Uiso   1.00
H533   H     0.92408   0.70394   0.25033   0.00000  Uiso   1.00
H534   H     0.74258   0.96272   0.24969   0.00000  Uiso   1.00
H535   H     0.92412   0.96270   0.25025   0.00000  Uiso   1.00
H536   H     0.74254   0.70397   0.24977   0.00000  Uiso   1.00
H537   H     0.86135   0.79015   0.30314   0.00000  Uiso   1.00
H538   H     0.80531   0.87653   0.19687   0.00000  Uiso   1.00
H539   H     0.77438   0.79026   0.30316   0.00000  Uiso   1.00
H540   H     0.89229   0.87641   0.19684   0.00000  Uiso   1.00
H541   H     0.73064   0.81341   0.45643   0.00000  Uiso   1.00
H542   H     0.78210   0.84515   0.11299   0.00000  Uiso   1.00
H543   H     0.88632   0.81781   0.38814   0.00000  Uiso   1.00
H544   H     0.97104   0.81795   0.10669   0.00000  Uiso   1.00
H545   H     0.69419   0.85804   0.39175   0.00000  Uiso   1.00
H546   H     0.99796   0.87202   0.47187   0.00000  Uiso   1.00
H547   H     0.99904   0.81166   0.02538   0.00000  Uiso   1.00
H548   H     0.84934   0.86671   0.07935   0.00000  Uiso   1.00
N549   N     0.78403   0.83334   0.24999   0.00000  Uiso   1.00
N550   N     0.88264   0.83332   0.25001   0.00000  Uiso   1.00
O551   O     0.70625   0.77322   0.25000   0.00000  Uiso   1.00
O552   O     0.96042   0.89345   0.25000   0.00000  Uiso   1.00
O553   O     0.96039   0.77321   0.25001   0.00000  Uiso   1.00
O554   O     0.70628   0.89346   0.25000   0.00000  Uiso   1.00
O555   O     0.68519   0.83334   0.31492   0.00000  Uiso   1.00
O556   O     0.98148   0.83332   0.18509   0.00000  Uiso   1.00
O557   O     0.93933   0.83333   0.31492   0.00000  Uiso   1.00
O558   O     0.72733   0.83333   0.18508   0.00000  Uiso   1.00
C559   C     0.33331   0.08736   0.75003   0.00000  Uiso   1.00
C560   C     0.04258   0.02129   0.74988   0.00000  Uiso   1.00
C561   C     0.00001   0.29059   0.74998   0.00000  Uiso   1.00
C562   C     0.33332   0.04274   0.75004   0.00000  Uiso   1.00
C563   C     0.18288   0.14273   0.77953   0.00000  Uiso   1.00
C564   C     0.15045   0.19061   0.72047   0.00000  Uiso   1.00
C565   C     0.13328   0.14277   0.77954   0.00000  Uiso   1.00
C566   C     0.20006   0.19057   0.72046   0.00000  Uiso   1.00
C567   C     0.30610   0.16715   0.83605   0.00000  Uiso   1.00
C568   C     0.02723   0.16658   0.66392   0.00000  Uiso   1.00
C569   C     0.29098   0.17122   0.88491   0.00000  Uiso   1.00
C570   C     0.00002   0.24597   0.74998   0.00000  Uiso   1.00
C571   C     0.04218   0.16578   0.61481   0.00000  Uiso   1.00
C572   C     0.30609   0.19372   0.95418   0.00000  Uiso   1.00
C573   C     0.02500   0.15328   0.54378   0.00000  Uiso   1.00
C574   C     0.32306   0.18552   0.90860   0.00000  Uiso   1.00
C575   C     0.00900   0.15678   0.59013   0.00000  Uiso   1.00
C576   C     0.24227   0.16418   0.90733   0.00000  Uiso   1.00
C577   C     0.09105   0.17261   0.59263   0.00000  Uiso   1.00
C578   C     0.22372   0.17375   0.95291   0.00000  Uiso   1.00
C579   C     0.10799   0.17030   0.54575   0.00000  Uiso   1.00
C580   C     0.25684   0.18801   0.97644   0.00000  Uiso   1.00
C581   C     0.19207   0.19146   0.54458   0.00000  Uiso   1.00
C582   C     0.07413   0.15956   0.52150   0.00000  Uiso   1.00
C583   C     0.17343   0.16971   0.97558   0.00000  Uiso   1.00
C584   C     0.15772   0.17705   0.52255   0.00000  Uiso   1.00
C585   C     0.13818   0.15952   0.95272   0.00000  Uiso   1.00
C586   C     0.24052   0.19694   0.52183   0.00000  Uiso   1.00
C587   C     0.08959   0.15476   0.97532   0.00000  Uiso   1.00
C588   C     0.29073   0.02128   0.75019   0.00000  Uiso   1.00
C589   C     0.04260   0.31206   0.74984   0.00000  Uiso   1.00
C590   C     0.29075   0.31204   0.75015   0.00000  Uiso   1.00
Cu591  Cu    0.04689   0.16667   0.75000   0.00000  Uiso   1.00
Cu592  Cu    0.28645   0.16666   0.75000   0.00000  Uiso   1.00
H593   H     0.26545   0.20829   0.54002   0.00000  Uiso   1.00
H594   H     0.14649   0.15583   0.91698   0.00000  Uiso   1.00
H595   H     0.25742   0.03728   0.75033   0.00000  Uiso   1.00
H596   H     0.07591   0.29605   0.74969   0.00000  Uiso   1.00
H597   H     0.25745   0.29603   0.75025   0.00000  Uiso   1.00
H598   H     0.07588   0.03730   0.74977   0.00000  Uiso   1.00
H599   H     0.19468   0.12348   0.80314   0.00000  Uiso   1.00
H600   H     0.13865   0.20986   0.69687   0.00000  Uiso   1.00
H601   H     0.10772   0.12359   0.80316   0.00000  Uiso   1.00
H602   H     0.22562   0.20975   0.69684   0.00000  Uiso   1.00
H603   H     0.06398   0.14675   0.95643   0.00000  Uiso   1.00
H604   H     0.11543   0.17848   0.61299   0.00000  Uiso   1.00
H605   H     0.21965   0.15115   0.88814   0.00000  Uiso   1.00
H606   H     0.30438   0.15129   0.60669   0.00000  Uiso   1.00
H607   H     0.02753   0.19138   0.89175   0.00000  Uiso   1.00
H608   H     0.33130   0.20535   0.97187   0.00000  Uiso   1.00
H609   H     0.33237   0.14500   0.52538   0.00000  Uiso   1.00
H610   H     0.18267   0.20004   0.57935   0.00000  Uiso   1.00
N611   N     0.11736   0.16668   0.74999   0.00000  Uiso   1.00
N612   N     0.21597   0.16666   0.75001   0.00000  Uiso   1.00
O613   O     0.03958   0.10655   0.75000   0.00000  Uiso   1.00
O614   O     0.29375   0.22678   0.75000   0.00000  Uiso   1.00
O615   O     0.29372   0.10654   0.75001   0.00000  Uiso   1.00
O616   O     0.03961   0.22679   0.75000   0.00000  Uiso   1.00
O617   O     0.01852   0.16668   0.81492   0.00000  Uiso   1.00
O618   O     0.31481   0.16666   0.68509   0.00000  Uiso   1.00
O619   O     0.27267   0.16667   0.81492   0.00000  Uiso   1.00
O620   O     0.06067   0.16667   0.68508   0.00000  Uiso   1.00
C621   C     0.66665   0.08736   0.75003   0.00000  Uiso   1.00
C622   C     0.37591   0.02129   0.74988   0.00000  Uiso   1.00
C623   C     0.33335   0.29059   0.74998   0.00000  Uiso   1.00
C624   C     0.66665   0.04274   0.75004   0.00000  Uiso   1.00
C625   C     0.51621   0.14273   0.77953   0.00000  Uiso   1.00
C626   C     0.48378   0.19061   0.72047   0.00000  Uiso   1.00
C627   C     0.46661   0.14277   0.77954   0.00000  Uiso   1.00
C628   C     0.53339   0.19057   0.72046   0.00000  Uiso   1.00
C629   C     0.63944   0.16715   0.83605   0.00000  Uiso   1.00
C630   C     0.36057   0.16658   0.66392   0.00000  Uiso   1.00
C631   C     0.62431   0.17122   0.88491   0.00000  Uiso   1.00
C632   C     0.33335   0.24597   0.74998   0.00000  Uiso   1.00
C633   C     0.37551   0.16578   0.61481   0.00000  Uiso   1.00
C634   C     0.63942   0.19372   0.95418   0.00000  Uiso   1.00
C635   C     0.35833   0.15328   0.54378   0.00000  Uiso   1.00
C636   C     0.65639   0.18552   0.90860   0.00000  Uiso   1.00
C637   C     0.34233   0.15678   0.59013   0.00000  Uiso   1.00
C638   C     0.57560   0.16418   0.90733   0.00000  Uiso   1.00
C639   C     0.42438   0.17261   0.59263   0.00000  Uiso   1.00
C640   C     0.55706   0.17375   0.95291   0.00000  Uiso   1.00
C641   C     0.44133   0.17030   0.54575   0.00000  Uiso   1.00
C642   C     0.59017   0.18801   0.97644   0.00000  Uiso   1.00
C643   C     0.52541   0.19146   0.54458   0.00000  Uiso   1.00
C644   C     0.40746   0.15956   0.52150   0.00000  Uiso   1.00
C645   C     0.50676   0.16971   0.97558   0.00000  Uiso   1.00
C646   C     0.49105   0.17705   0.52255   0.00000  Uiso   1.00
C647   C     0.47151   0.15952   0.95272   0.00000  Uiso   1.00
C648   C     0.57385   0.19694   0.52183   0.00000  Uiso   1.00
C649   C     0.42292   0.15476   0.97532   0.00000  Uiso   1.00
C650   C     0.62406   0.02128   0.75019   0.00000  Uiso   1.00
C651   C     0.37593   0.31206   0.74984   0.00000  Uiso   1.00
C652   C     0.62408   0.31204   0.75015   0.00000  Uiso   1.00
Cu653  Cu    0.38022   0.16667   0.75000   0.00000  Uiso   1.00
Cu654  Cu    0.61978   0.16666   0.75000   0.00000  Uiso   1.00
H655   H     0.59879   0.20829   0.54002   0.00000  Uiso   1.00
H656   H     0.47983   0.15583   0.91698   0.00000  Uiso   1.00
H657   H     0.59075   0.03728   0.75033   0.00000  Uiso   1.00
H658   H     0.40924   0.29605   0.74969   0.00000  Uiso   1.00
H659   H     0.59078   0.29603   0.75025   0.00000  Uiso   1.00
H660   H     0.40921   0.03730   0.74977   0.00000  Uiso   1.00
H661   H     0.52802   0.12348   0.80314   0.00000  Uiso   1.00
H662   H     0.47198   0.20986   0.69687   0.00000  Uiso   1.00
H663   H     0.44105   0.12359   0.80316   0.00000  Uiso   1.00
H664   H     0.55895   0.20975   0.69684   0.00000  Uiso   1.00
H665   H     0.39731   0.14675   0.95643   0.00000  Uiso   1.00
H666   H     0.44877   0.17848   0.61299   0.00000  Uiso   1.00
H667   H     0.55298   0.15115   0.88814   0.00000  Uiso   1.00
H668   H     0.63771   0.15129   0.60669   0.00000  Uiso   1.00
H669   H     0.36086   0.19138   0.89175   0.00000  Uiso   1.00
H670   H     0.66463   0.20535   0.97187   0.00000  Uiso   1.00
H671   H     0.66570   0.14500   0.52538   0.00000  Uiso   1.00
H672   H     0.51601   0.20004   0.57935   0.00000  Uiso   1.00
N673   N     0.45069   0.16668   0.74999   0.00000  Uiso   1.00
N674   N     0.54931   0.16666   0.75001   0.00000  Uiso   1.00
O675   O     0.37291   0.10655   0.75000   0.00000  Uiso   1.00
O676   O     0.62709   0.22678   0.75000   0.00000  Uiso   1.00
O677   O     0.62706   0.10654   0.75001   0.00000  Uiso   1.00
O678   O     0.37294   0.22679   0.75000   0.00000  Uiso   1.00
O679   O     0.35186   0.16668   0.81492   0.00000  Uiso   1.00
O680   O     0.64814   0.16666   0.68509   0.00000  Uiso   1.00
O681   O     0.60600   0.16667   0.81492   0.00000  Uiso   1.00
O682   O     0.39400   0.16667   0.68508   0.00000  Uiso   1.00
C683   C     0.99998   0.08736   0.75003   0.00000  Uiso   1.00
C684   C     0.70925   0.02129   0.74988   0.00000  Uiso   1.00
C685   C     0.66668   0.29059   0.74998   0.00000  Uiso   1.00
C686   C     0.99998   0.04274   0.75004   0.00000  Uiso   1.00
C687   C     0.84955   0.14273   0.77953   0.00000  Uiso   1.00
C688   C     0.81712   0.19061   0.72047   0.00000  Uiso   1.00
C689   C     0.79994   0.14277   0.77954   0.00000  Uiso   1.00
C690   C     0.86672   0.19057   0.72046   0.00000  Uiso   1.00
C691   C     0.97277   0.16715   0.83605   0.00000  Uiso   1.00
C692   C     0.69390   0.16658   0.66392   0.00000  Uiso   1.00
C693   C     0.95764   0.17122   0.88491   0.00000  Uiso   1.00
C694   C     0.66669   0.24597   0.74998   0.00000  Uiso   1.00
C695   C     0.70885   0.16578   0.61481   0.00000  Uiso   1.00
C696   C     0.97275   0.19372   0.95418   0.00000  Uiso   1.00
C697   C     0.69166   0.15328   0.54378   0.00000  Uiso   1.00
C698   C     0.98973   0.18552   0.90860   0.00000  Uiso   1.00
C699   C     0.67567   0.15678   0.59013   0.00000  Uiso   1.00
C700   C     0.90893   0.16418   0.90733   0.00000  Uiso   1.00
C701   C     0.75772   0.17261   0.59263   0.00000  Uiso   1.00
C702   C     0.89039   0.17375   0.95291   0.00000  Uiso   1.00
C703   C     0.77466   0.17030   0.54575   0.00000  Uiso   1.00
C704   C     0.92351   0.18801   0.97644   0.00000  Uiso   1.00
C705   C     0.85874   0.19146   0.54458   0.00000  Uiso   1.00
C706   C     0.74080   0.15956   0.52150   0.00000  Uiso   1.00
C707   C     0.84009   0.16971   0.97558   0.00000  Uiso   1.00
C708   C     0.82438   0.17705   0.52255   0.00000  Uiso   1.00
C709   C     0.80484   0.15952   0.95272   0.00000  Uiso   1.00
C710   C     0.90718   0.19694   0.52183   0.00000  Uiso   1.00
C711   C     0.75626   0.15476   0.97532   0.00000  Uiso   1.00
C712   C     0.95740   0.02128   0.75019   0.00000  Uiso   1.00
C713   C     0.70927   0.31206   0.74984   0.00000  Uiso   1.00
C714   C     0.95741   0.31204   0.75015   0.00000  Uiso   1.00
Cu715  Cu    0.71355   0.16667   0.75000   0.00000  Uiso   1.00
Cu716  Cu    0.95311   0.16666   0.75000   0.00000  Uiso   1.00
H717   H     0.93212   0.20829   0.54002   0.00000  Uiso   1.00
H718   H     0.81316   0.15583   0.91698   0.00000  Uiso   1.00
H719   H     0.92408   0.03728   0.75033   0.00000  Uiso   1.00
H720   H     0.74258   0.29605   0.74969   0.00000  Uiso   1.00
H721   H     0.92412   0.29603   0.75025   0.00000  Uiso   1.00
H722   H     0.74254   0.03730   0.74977   0.00000  Uiso   1.00
H723   H     0.86135   0.12348   0.80314   0.00000  Uiso   1.00
H724   H     0.80531   0.20986   0.69687   0.00000  Uiso   1.00
H725   H     0.77438   0.12359   0.80316   0.00000  Uiso   1.00
H726   H     0.89229   0.20975   0.69684   0.00000  Uiso   1.00
H727   H     0.73064   0.14675   0.95643   0.00000  Uiso   1.00
H728   H     0.78210   0.17848   0.61299   0.00000  Uiso   1.00
H729   H     0.88632   0.15115   0.88814   0.00000  Uiso   1.00
H730   H     0.97104   0.15129   0.60669   0.00000  Uiso   1.00
H731   H     0.69419   0.19138   0.89175   0.00000  Uiso   1.00
H732   H     0.99796   0.20535   0.97187   0.00000  Uiso   1.00
H733   H     0.99904   0.14500   0.52538   0.00000  Uiso   1.00
H734   H     0.84934   0.20004   0.57935   0.00000  Uiso   1.00
N735   N     0.78403   0.16668   0.74999   0.00000  Uiso   1.00
N736   N     0.88264   0.16666   0.75001   0.00000  Uiso   1.00
O737   O     0.70625   0.10655   0.75000   0.00000  Uiso   1.00
O738   O     0.96042   0.22678   0.75000   0.00000  Uiso   1.00
O739   O     0.96039   0.10654   0.75001   0.00000  Uiso   1.00
O740   O     0.70628   0.22679   0.75000   0.00000  Uiso   1.00
O741   O     0.68519   0.16668   0.81492   0.00000  Uiso   1.00
O742   O     0.98148   0.16666   0.68509   0.00000  Uiso   1.00
O743   O     0.93933   0.16667   0.81492   0.00000  Uiso   1.00
O744   O     0.72733   0.16667   0.68508   0.00000  Uiso   1.00
C745   C     0.33331   0.42069   0.75003   0.00000  Uiso   1.00
C746   C     0.04258   0.35462   0.74988   0.00000  Uiso   1.00
C747   C     0.00001   0.62393   0.74998   0.00000  Uiso   1.00
C748   C     0.33332   0.37607   0.75004   0.00000  Uiso   1.00
C749   C     0.18288   0.47606   0.77953   0.00000  Uiso   1.00
C750   C     0.15045   0.52394   0.72047   0.00000  Uiso   1.00
C751   C     0.13328   0.47610   0.77954   0.00000  Uiso   1.00
C752   C     0.20006   0.52390   0.72046   0.00000  Uiso   1.00
C753   C     0.30610   0.50049   0.83605   0.00000  Uiso   1.00
C754   C     0.02723   0.49991   0.66392   0.00000  Uiso   1.00
C755   C     0.29098   0.50455   0.88491   0.00000  Uiso   1.00
C756   C     0.00002   0.57931   0.74998   0.00000  Uiso   1.00
C757   C     0.04218   0.49911   0.61481   0.00000  Uiso   1.00
C758   C     0.30609   0.52705   0.95418   0.00000  Uiso   1.00
C759   C     0.02500   0.48662   0.54378   0.00000  Uiso   1.00
C760   C     0.32306   0.51885   0.90860   0.00000  Uiso   1.00
C761   C     0.00900   0.49011   0.59013   0.00000  Uiso   1.00
C762   C     0.24227   0.49751   0.90733   0.00000  Uiso   1.00
C763   C     0.09105   0.50595   0.59263   0.00000  Uiso   1.00
C764   C     0.22372   0.50708   0.95291   0.00000  Uiso   1.00
C765   C     0.10799   0.50364   0.54575   0.00000  Uiso   1.00
C766   C     0.25684   0.52134   0.97644   0.00000  Uiso   1.00
C767   C     0.19207   0.52479   0.54458   0.00000  Uiso   1.00
C768   C     0.07413   0.49289   0.52150   0.00000  Uiso   1.00
C769   C     0.17343   0.50305   0.97558   0.00000  Uiso   1.00
C770   C     0.15772   0.51039   0.52255   0.00000  Uiso   1.00
C771   C     0.13818   0.49285   0.95272   0.00000  Uiso   1.00
C772   C     0.24052   0.53027   0.52183   0.00000  Uiso   1.00
C773   C     0.08959   0.48810   0.97532   0.00000  Uiso   1.00
C774   C     0.29073   0.35461   0.75019   0.00000  Uiso   1.00
C775   C     0.04260   0.64539   0.74984   0.00000  Uiso   1.00
C776   C     0.29075   0.64537   0.75015   0.00000  Uiso   1.00
Cu777  Cu    0.04689   0.50001   0.75000   0.00000  Uiso   1.00
Cu778  Cu    0.28645   0.49999   0.75000   0.00000  Uiso   1.00
H779   H     0.26545   0.54162   0.54002   0.00000  Uiso   1.00
H780   H     0.14649   0.48916   0.91698   0.00000  Uiso   1.00
H781   H     0.25742   0.37061   0.75033   0.00000  Uiso   1.00
H782   H     0.07591   0.62939   0.74969   0.00000  Uiso   1.00
H783   H     0.25745   0.62936   0.75025   0.00000  Uiso   1.00
H784   H     0.07588   0.37064   0.74977   0.00000  Uiso   1.00
H785   H     0.19468   0.45681   0.80314   0.00000  Uiso   1.00
H786   H     0.13865   0.54320   0.69687   0.00000  Uiso   1.00
H787   H     0.10772   0.45692   0.80316   0.00000  Uiso   1.00
H788   H     0.22562   0.54308   0.69684   0.00000  Uiso   1.00
H789   H     0.06398   0.48008   0.95643   0.00000  Uiso   1.00
H790   H     0.11543   0.51182   0.61299   0.00000  Uiso   1.00
H791   H     0.21965   0.48448   0.88814   0.00000  Uiso   1.00
H792   H     0.30438   0.48462   0.60669   0.00000  Uiso   1.00
H793   H     0.02753   0.52471   0.89175   0.00000  Uiso   1.00
H794   H     0.33130   0.53869   0.97187   0.00000  Uiso   1.00
H795   H     0.33237   0.47833   0.52538   0.00000  Uiso   1.00
H796   H     0.18267   0.53337   0.57935   0.00000  Uiso   1.00
N797   N     0.11736   0.50001   0.74999   0.00000  Uiso   1.00
N798   N     0.21597   0.49999   0.75001   0.00000  Uiso   1.00
O799   O     0.03958   0.43989   0.75000   0.00000  Uiso   1.00
O800   O     0.29375   0.56011   0.75000   0.00000  Uiso   1.00
O801   O     0.29372   0.43988   0.75001   0.00000  Uiso   1.00
O802   O     0.03961   0.56012   0.75000   0.00000  Uiso   1.00
O803   O     0.01852   0.50001   0.81492   0.00000  Uiso   1.00
O804   O     0.31481   0.49999   0.68509   0.00000  Uiso   1.00
O805   O     0.27267   0.50000   0.81492   0.00000  Uiso   1.00
O806   O     0.06067   0.50000   0.68508   0.00000  Uiso   1.00
C807   C     0.66665   0.42069   0.75003   0.00000  Uiso   1.00
C808   C     0.37591   0.35462   0.74988   0.00000  Uiso   1.00
C809   C     0.33335   0.62393   0.74998   0.00000  Uiso   1.00
C810   C     0.66665   0.37607   0.75004   0.00000  Uiso   1.00
C811   C     0.51621   0.47606   0.77953   0.00000  Uiso   1.00
C812   C     0.48378   0.52394   0.72047   0.00000  Uiso   1.00
C813   C     0.46661   0.47610   0.77954   0.00000  Uiso   1.00
C814   C     0.53339   0.52390   0.72046   0.00000  Uiso   1.00
C815   C     0.63944   0.50049   0.83605   0.00000  Uiso   1.00
C816   C     0.36057   0.49991   0.66392   0.00000  Uiso   1.00
C817   C     0.62431   0.50455   0.88491   0.00000  Uiso   1.00
C818   C     0.33335   0.57931   0.74998   0.00000  Uiso   1.00
C819   C     0.37551   0.49911   0.61481   0.00000  Uiso   1.00
C820   C     0.63942   0.52705   0.95418   0.00000  Uiso   1.00
C821   C     0.35833   0.48662   0.54378   0.00000  Uiso   1.00
C822   C     0.65639   0.51885   0.90860   0.00000  Uiso   1.00
C823   C     0.34233   0.49011   0.59013   0.00000  Uiso   1.00
C824   C     0.57560   0.49751   0.90733   0.00000  Uiso   1.00
C825   C     0.42438   0.50595   0.59263   0.00000  Uiso   1.00
C826   C     0.55706   0.50708   0.95291   0.00000  Uiso   1.00
C827   C     0.44133   0.50364   0.54575   0.00000  Uiso   1.00
C828   C     0.59017   0.52134   0.97644   0.00000  Uiso   1.00
C829   C     0.52541   0.52479   0.54458   0.00000  Uiso   1.00
C830   C     0.40746   0.49289   0.52150   0.00000  Uiso   1.00
C831   C     0.50676   0.50305   0.97558   0.00000  Uiso   1.00
C832   C     0.49105   0.51039   0.52255   0.00000  Uiso   1.00
C833   C     0.47151   0.49285   0.95272   0.00000  Uiso   1.00
C834   C     0.57385   0.53027   0.52183   0.00000  Uiso   1.00
C835   C     0.42292   0.48810   0.97532   0.00000  Uiso   1.00
C836   C     0.62406   0.35461   0.75019   0.00000  Uiso   1.00
C837   C     0.37593   0.64539   0.74984   0.00000  Uiso   1.00
C838   C     0.62408   0.64537   0.75015   0.00000  Uiso   1.00
Cu839  Cu    0.38022   0.50001   0.75000   0.00000  Uiso   1.00
Cu840  Cu    0.61978   0.49999   0.75000   0.00000  Uiso   1.00
H841   H     0.59879   0.54162   0.54002   0.00000  Uiso   1.00
H842   H     0.47983   0.48916   0.91698   0.00000  Uiso   1.00
H843   H     0.59075   0.37061   0.75033   0.00000  Uiso   1.00
H844   H     0.40924   0.62939   0.74969   0.00000  Uiso   1.00
H845   H     0.59078   0.62936   0.75025   0.00000  Uiso   1.00
H846   H     0.40921   0.37064   0.74977   0.00000  Uiso   1.00
H847   H     0.52802   0.45681   0.80314   0.00000  Uiso   1.00
H848   H     0.47198   0.54320   0.69687   0.00000  Uiso   1.00
H849   H     0.44105   0.45692   0.80316   0.00000  Uiso   1.00
H850   H     0.55895   0.54308   0.69684   0.00000  Uiso   1.00
H851   H     0.39731   0.48008   0.95643   0.00000  Uiso   1.00
H852   H     0.44877   0.51182   0.61299   0.00000  Uiso   1.00
H853   H     0.55298   0.48448   0.88814   0.00000  Uiso   1.00
H854   H     0.63771   0.48462   0.60669   0.00000  Uiso   1.00
H855   H     0.36086   0.52471   0.89175   0.00000  Uiso   1.00
H856   H     0.66463   0.53869   0.97187   0.00000  Uiso   1.00
H857   H     0.66570   0.47833   0.52538   0.00000  Uiso   1.00
H858   H     0.51601   0.53337   0.57935   0.00000  Uiso   1.00
N859   N     0.45069   0.50001   0.74999   0.00000  Uiso   1.00
N860   N     0.54931   0.49999   0.75001   0.00000  Uiso   1.00
O861   O     0.37291   0.43989   0.75000   0.00000  Uiso   1.00
O862   O     0.62709   0.56011   0.75000   0.00000  Uiso   1.00
O863   O     0.62706   0.43988   0.75001   0.00000  Uiso   1.00
O864   O     0.37294   0.56012   0.75000   0.00000  Uiso   1.00
O865   O     0.35186   0.50001   0.81492   0.00000  Uiso   1.00
O866   O     0.64814   0.49999   0.68509   0.00000  Uiso   1.00
O867   O     0.60600   0.50000   0.81492   0.00000  Uiso   1.00
O868   O     0.39400   0.50000   0.68508   0.00000  Uiso   1.00
C869   C     0.99998   0.42069   0.75003   0.00000  Uiso   1.00
C870   C     0.70925   0.35462   0.74988   0.00000  Uiso   1.00
C871   C     0.66668   0.62393   0.74998   0.00000  Uiso   1.00
C872   C     0.99998   0.37607   0.75004   0.00000  Uiso   1.00
C873   C     0.84955   0.47606   0.77953   0.00000  Uiso   1.00
C874   C     0.81712   0.52394   0.72047   0.00000  Uiso   1.00
C875   C     0.79994   0.47610   0.77954   0.00000  Uiso   1.00
C876   C     0.86672   0.52390   0.72046   0.00000  Uiso   1.00
C877   C     0.97277   0.50049   0.83605   0.00000  Uiso   1.00
C878   C     0.69390   0.49991   0.66392   0.00000  Uiso   1.00
C879   C     0.95764   0.50455   0.88491   0.00000  Uiso   1.00
C880   C     0.66669   0.57931   0.74998   0.00000  Uiso   1.00
C881   C     0.70885   0.49911   0.61481   0.00000  Uiso   1.00
C882   C     0.97275   0.52705   0.95418   0.00000  Uiso   1.00
C883   C     0.69166   0.48662   0.54378   0.00000  Uiso   1.00
C884   C     0.98973   0.51885   0.90860   0.00000  Uiso   1.00
C885   C     0.67567   0.49011   0.59013   0.00000  Uiso   1.00
C886   C     0.90893   0.49751   0.90733   0.00000  Uiso   1.00
C887   C     0.75772   0.50595   0.59263   0.00000  Uiso   1.00
C888   C     0.89039   0.50708   0.95291   0.00000  Uiso   1.00
C889   C     0.77466   0.50364   0.54575   0.00000  Uiso   1.00
C890   C     0.92351   0.52134   0.97644   0.00000  Uiso   1.00
C891   C     0.85874   0.52479   0.54458   0.00000  Uiso   1.00
C892   C     0.74080   0.49289   0.52150   0.00000  Uiso   1.00
C893   C     0.84009   0.50305   0.97558   0.00000  Uiso   1.00
C894   C     0.82438   0.51039   0.52255   0.00000  Uiso   1.00
C895   C     0.80484   0.49285   0.95272   0.00000  Uiso   1.00
C896   C     0.90718   0.53027   0.52183   0.00000  Uiso   1.00
C897   C     0.75626   0.48810   0.97532   0.00000  Uiso   1.00
C898   C     0.95740   0.35461   0.75019   0.00000  Uiso   1.00
C899   C     0.70927   0.64539   0.74984   0.00000  Uiso   1.00
C900   C     0.95741   0.64537   0.75015   0.00000  Uiso   1.00
Cu901  Cu    0.71355   0.50001   0.75000   0.00000  Uiso   1.00
Cu902  Cu    0.95311   0.49999   0.75000   0.00000  Uiso   1.00
H903   H     0.93212   0.54162   0.54002   0.00000  Uiso   1.00
H904   H     0.81316   0.48916   0.91698   0.00000  Uiso   1.00
H905   H     0.92408   0.37061   0.75033   0.00000  Uiso   1.00
H906   H     0.74258   0.62939   0.74969   0.00000  Uiso   1.00
H907   H     0.92412   0.62936   0.75025   0.00000  Uiso   1.00
H908   H     0.74254   0.37064   0.74977   0.00000  Uiso   1.00
H909   H     0.86135   0.45681   0.80314   0.00000  Uiso   1.00
H910   H     0.80531   0.54320   0.69687   0.00000  Uiso   1.00
H911   H     0.77438   0.45692   0.80316   0.00000  Uiso   1.00
H912   H     0.89229   0.54308   0.69684   0.00000  Uiso   1.00
H913   H     0.73064   0.48008   0.95643   0.00000  Uiso   1.00
H914   H     0.78210   0.51182   0.61299   0.00000  Uiso   1.00
H915   H     0.88632   0.48448   0.88814   0.00000  Uiso   1.00
H916   H     0.97104   0.48462   0.60669   0.00000  Uiso   1.00
H917   H     0.69419   0.52471   0.89175   0.00000  Uiso   1.00
H918   H     0.99796   0.53869   0.97187   0.00000  Uiso   1.00
H919   H     0.99904   0.47833   0.52538   0.00000  Uiso   1.00
H920   H     0.84934   0.53337   0.57935   0.00000  Uiso   1.00
N921   N     0.78403   0.50001   0.74999   0.00000  Uiso   1.00
N922   N     0.88264   0.49999   0.75001   0.00000  Uiso   1.00
O923   O     0.70625   0.43989   0.75000   0.00000  Uiso   1.00
O924   O     0.96042   0.56011   0.75000   0.00000  Uiso   1.00
O925   O     0.96039   0.43988   0.75001   0.00000  Uiso   1.00
O926   O     0.70628   0.56012   0.75000   0.00000  Uiso   1.00
O927   O     0.68519   0.50001   0.81492   0.00000  Uiso   1.00
O928   O     0.98148   0.49999   0.68509   0.00000  Uiso   1.00
O929   O     0.93933   0.50000   0.81492   0.00000  Uiso   1.00
O930   O     0.72733   0.50000   0.68508   0.00000  Uiso   1.00
C931   C     0.33331   0.75402   0.75003   0.00000  Uiso   1.00
C932   C     0.04258   0.68796   0.74988   0.00000  Uiso   1.00
C933   C     0.00001   0.95726   0.74998   0.00000  Uiso   1.00
C934   C     0.33332   0.70941   0.75004   0.00000  Uiso   1.00
C935   C     0.18288   0.80940   0.77953   0.00000  Uiso   1.00
C936   C     0.15045   0.85727   0.72047   0.00000  Uiso   1.00
C937   C     0.13328   0.80943   0.77954   0.00000  Uiso   1.00
C938   C     0.20006   0.85724   0.72046   0.00000  Uiso   1.00
C939   C     0.30610   0.83382   0.83605   0.00000  Uiso   1.00
C940   C     0.02723   0.83324   0.66392   0.00000  Uiso   1.00
C941   C     0.29098   0.83789   0.88491   0.00000  Uiso   1.00
C942   C     0.00002   0.91264   0.74998   0.00000  Uiso   1.00
C943   C     0.04218   0.83245   0.61481   0.00000  Uiso   1.00
C944   C     0.30609   0.86038   0.95418   0.00000  Uiso   1.00
C945   C     0.02500   0.81995   0.54378   0.00000  Uiso   1.00
C946   C     0.32306   0.85219   0.90860   0.00000  Uiso   1.00
C947   C     0.00900   0.82345   0.59013   0.00000  Uiso   1.00
C948   C     0.24227   0.83085   0.90733   0.00000  Uiso   1.00
C949   C     0.09105   0.83928   0.59263   0.00000  Uiso   1.00
C950   C     0.22372   0.84042   0.95291   0.00000  Uiso   1.00
C951   C     0.10799   0.83697   0.54575   0.00000  Uiso   1.00
C952   C     0.25684   0.85468   0.97644   0.00000  Uiso   1.00
C953   C     0.19207   0.85813   0.54458   0.00000  Uiso   1.00
C954   C     0.07413   0.82622   0.52150   0.00000  Uiso   1.00
C955   C     0.17343   0.83638   0.97558   0.00000  Uiso   1.00
C956   C     0.15772   0.84372   0.52255   0.00000  Uiso   1.00
C957   C     0.13818   0.82618   0.95272   0.00000  Uiso   1.00
C958   C     0.24052   0.86360   0.52183   0.00000  Uiso   1.00
C959   C     0.08959   0.82143   0.97532   0.00000  Uiso   1.00
C960   C     0.29073   0.68794   0.75019   0.00000  Uiso   1.00
C961   C     0.04260   0.97872   0.74984   0.00000  Uiso   1.00
C962   C     0.29075   0.97871   0.75015   0.00000  Uiso   1.00
Cu963  Cu    0.04689   0.83334   0.75000   0.00000  Uiso   1.00
Cu964  Cu    0.28645   0.83333   0.75000   0.00000  Uiso   1.00
H965   H     0.26545   0.87495   0.54002   0.00000  Uiso   1.00
H966   H     0.14649   0.82249   0.91698   0.00000  Uiso   1.00
H967   H     0.25742   0.70394   0.75033   0.00000  Uiso   1.00
H968   H     0.07591   0.96272   0.74969   0.00000  Uiso   1.00
H969   H     0.25745   0.96270   0.75025   0.00000  Uiso   1.00
H970   H     0.07588   0.70397   0.74977   0.00000  Uiso   1.00
H971   H     0.19468   0.79015   0.80314   0.00000  Uiso   1.00
H972   H     0.13865   0.87653   0.69687   0.00000  Uiso   1.00
H973   H     0.10772   0.79026   0.80316   0.00000  Uiso   1.00
H974   H     0.22562   0.87641   0.69684   0.00000  Uiso   1.00
H975   H     0.06398   0.81341   0.95643   0.00000  Uiso   1.00
H976   H     0.11543   0.84515   0.61299   0.00000  Uiso   1.00
H977   H     0.21965   0.81781   0.88814   0.00000  Uiso   1.00
H978   H     0.30438   0.81795   0.60669   0.00000  Uiso   1.00
H979   H     0.02753   0.85804   0.89175   0.00000  Uiso   1.00
H980   H     0.33130   0.87202   0.97187   0.00000  Uiso   1.00
H981   H     0.33237   0.81166   0.52538   0.00000  Uiso   1.00
H982   H     0.18267   0.86671   0.57935   0.00000  Uiso   1.00
N983   N     0.11736   0.83334   0.74999   0.00000  Uiso   1.00
N984   N     0.21597   0.83332   0.75001   0.00000  Uiso   1.00
O985   O     0.03958   0.77322   0.75000   0.00000  Uiso   1.00
O986   O     0.29375   0.89345   0.75000   0.00000  Uiso   1.00
O987   O     0.29372   0.77321   0.75001   0.00000  Uiso   1.00
O988   O     0.03961   0.89346   0.75000   0.00000  Uiso   1.00
O989   O     0.01852   0.83334   0.81492   0.00000  Uiso   1.00
O990   O     0.31481   0.83332   0.68509   0.00000  Uiso   1.00
O991   O     0.27267   0.83333   0.81492   0.00000  Uiso   1.00
O992   O     0.06067   0.83333   0.68508   0.00000  Uiso   1.00
C993   C     0.66665   0.75402   0.75003   0.00000  Uiso   1.00
C994   C     0.37591   0.68796   0.74988   0.00000  Uiso   1.00
C995   C     0.33335   0.95726   0.74998   0.00000  Uiso   1.00
C996   C     0.66665   0.70941   0.75004   0.00000  Uiso   1.00
C997   C     0.51621   0.80940   0.77953   0.00000  Uiso   1.00
C998   C     0.48378   0.85727   0.72047   0.00000  Uiso   1.00
C999   C     0.46661   0.80943   0.77954   0.00000  Uiso   1.00
C1000  C     0.53339   0.85724   0.72046   0.00000  Uiso   1.00
C1001  C     0.63944   0.83382   0.83605   0.00000  Uiso   1.00
C1002  C     0.36057   0.83324   0.66392   0.00000  Uiso   1.00
C1003  C     0.62431   0.83789   0.88491   0.00000  Uiso   1.00
C1004  C     0.33335   0.91264   0.74998   0.00000  Uiso   1.00
C1005  C     0.37551   0.83245   0.61481   0.00000  Uiso   1.00
C1006  C     0.63942   0.86038   0.95418   0.00000  Uiso   1.00
C1007  C     0.35833   0.81995   0.54378   0.00000  Uiso   1.00
C1008  C     0.65639   0.85219   0.90860   0.00000  Uiso   1.00
C1009  C     0.34233   0.82345   0.59013   0.00000  Uiso   1.00
C1010  C     0.57560   0.83085   0.90733   0.00000  Uiso   1.00
C1011  C     0.42438   0.83928   0.59263   0.00000  Uiso   1.00
C1012  C     0.55706   0.84042   0.95291   0.00000  Uiso   1.00
C1013  C     0.44133   0.83697   0.54575   0.00000  Uiso   1.00
C1014  C     0.59017   0.85468   0.97644   0.00000  Uiso   1.00
C1015  C     0.52541   0.85813   0.54458   0.00000  Uiso   1.00
C1016  C     0.40746   0.82622   0.52150   0.00000  Uiso   1.00
C1017  C     0.50676   0.83638   0.97558   0.00000  Uiso   1.00
C1018  C     0.49105   0.84372   0.52255   0.00000  Uiso   1.00
C1019  C     0.47151   0.82618   0.95272   0.00000  Uiso   1.00
C1020  C     0.57385   0.86360   0.52183   0.00000  Uiso   1.00
C1021  C     0.42292   0.82143   0.97532   0.00000  Uiso   1.00
C1022  C     0.62406   0.68794   0.75019   0.00000  Uiso   1.00
C1023  C     0.37593   0.97872   0.74984   0.00000  Uiso   1.00
C1024  C     0.62408   0.97871   0.75015   0.00000  Uiso   1.00
Cu1025 Cu    0.38022   0.83334   0.75000   0.00000  Uiso   1.00
Cu1026 Cu    0.61978   0.83333   0.75000   0.00000  Uiso   1.00
H1027  H     0.59879   0.87495   0.54002   0.00000  Uiso   1.00
H1028  H     0.47983   0.82249   0.91698   0.00000  Uiso   1.00
H1029  H     0.59075   0.70394   0.75033   0.00000  Uiso   1.00
H1030  H     0.40924   0.96272   0.74969   0.00000  Uiso   1.00
H1031  H     0.59078   0.96270   0.75025   0.00000  Uiso   1.00
H1032  H     0.40921   0.70397   0.74977   0.00000  Uiso   1.00
H1033  H     0.52802   0.79015   0.80314   0.00000  Uiso   1.00
H1034  H     0.47198   0.87653   0.69687   0.00000  Uiso   1.00
H1035  H     0.44105   0.79026   0.80316   0.00000  Uiso   1.00
H1036  H     0.55895   0.87641   0.69684   0.00000  Uiso   1.00
H1037  H     0.39731   0.81341   0.95643   0.00000  Uiso   1.00
H1038  H     0.44877   0.84515   0.61299   0.00000  Uiso   1.00
H1039  H     0.55298   0.81781   0.88814   0.00000  Uiso   1.00
H1040  H     0.63771   0.81795   0.60669   0.00000  Uiso   1.00
H1041  H     0.36086   0.85804   0.89175   0.00000  Uiso   1.00
H1042  H     0.66463   0.87202   0.97187   0.00000  Uiso   1.00
H1043  H     0.66570   0.81166   0.52538   0.00000  Uiso   1.00
H1044  H     0.51601   0.86671   0.57935   0.00000  Uiso   1.00
N1045  N     0.45069   0.83334   0.74999   0.00000  Uiso   1.00
N1046  N     0.54931   0.83332   0.75001   0.00000  Uiso   1.00
O1047  O     0.37291   0.77322   0.75000   0.00000  Uiso   1.00
O1048  O     0.62709   0.89345   0.75000   0.00000  Uiso   1.00
O1049  O     0.62706   0.77321   0.75001   0.00000  Uiso   1.00
O1050  O     0.37294   0.89346   0.75000   0.00000  Uiso   1.00
O1051  O     0.35186   0.83334   0.81492   0.00000  Uiso   1.00
O1052  O     0.64814   0.83332   0.68509   0.00000  Uiso   1.00
O1053  O     0.60600   0.83333   0.81492   0.00000  Uiso   1.00
O1054  O     0.39400   0.83333   0.68508   0.00000  Uiso   1.00
C1055  C     0.99998   0.75402   0.75003   0.00000  Uiso   1.00
C1056  C     0.70925   0.68796   0.74988   0.00000  Uiso   1.00
C1057  C     0.66668   0.95726   0.74998   0.00000  Uiso   1.00
C1058  C     0.99998   0.70941   0.75004   0.00000  Uiso   1.00
C1059  C     0.84955   0.80940   0.77953   0.00000  Uiso   1.00
C1060  C     0.81712   0.85727   0.72047   0.00000  Uiso   1.00
C1061  C     0.79994   0.80943   0.77954   0.00000  Uiso   1.00
C1062  C     0.86672   0.85724   0.72046   0.00000  Uiso   1.00
C1063  C     0.97277   0.83382   0.83605   0.00000  Uiso   1.00
C1064  C     0.69390   0.83324   0.66392   0.00000  Uiso   1.00
C1065  C     0.95764   0.83789   0.88491   0.00000  Uiso   1.00
C1066  C     0.66669   0.91264   0.74998   0.00000  Uiso   1.00
C1067  C     0.70885   0.83245   0.61481   0.00000  Uiso   1.00
C1068  C     0.97275   0.86038   0.95418   0.00000  Uiso   1.00
C1069  C     0.69166   0.81995   0.54378   0.00000  Uiso   1.00
C1070  C     0.98973   0.85219   0.90860   0.00000  Uiso   1.00
C1071  C     0.67567   0.82345   0.59013   0.00000  Uiso   1.00
C1072  C     0.90893   0.83085   0.90733   0.00000  Uiso   1.00
C1073  C     0.75772   0.83928   0.59263   0.00000  Uiso   1.00
C1074  C     0.89039   0.84042   0.95291   0.00000  Uiso   1.00
C1075  C     0.77466   0.83697   0.54575   0.00000  Uiso   1.00
C1076  C     0.92351   0.85468   0.97644   0.00000  Uiso   1.00
C1077  C     0.85874   0.85813   0.54458   0.00000  Uiso   1.00
C1078  C     0.74080   0.82622   0.52150   0.00000  Uiso   1.00
C1079  C     0.84009   0.83638   0.97558   0.00000  Uiso   1.00
C1080  C     0.82438   0.84372   0.52255   0.00000  Uiso   1.00
C1081  C     0.80484   0.82618   0.95272   0.00000  Uiso   1.00
C1082  C     0.90718   0.86360   0.52183   0.00000  Uiso   1.00
C1083  C     0.75626   0.82143   0.97532   0.00000  Uiso   1.00
C1084  C     0.95740   0.68794   0.75019   0.00000  Uiso   1.00
C1085  C     0.70927   0.97872   0.74984   0.00000  Uiso   1.00
C1086  C     0.95741   0.97871   0.75015   0.00000  Uiso   1.00
Cu1087 Cu    0.71355   0.83334   0.75000   0.00000  Uiso   1.00
Cu1088 Cu    0.95311   0.83333   0.75000   0.00000  Uiso   1.00
H1089  H     0.93212   0.87495   0.54002   0.00000  Uiso   1.00
H1090  H     0.81316   0.82249   0.91698   0.00000  Uiso   1.00
H1091  H     0.92408   0.70394   0.75033   0.00000  Uiso   1.00
H1092  H     0.74258   0.96272   0.74969   0.00000  Uiso   1.00
H1093  H     0.92412   0.96270   0.75025   0.00000  Uiso   1.00
H1094  H     0.74254   0.70397   0.74977   0.00000  Uiso   1.00
H1095  H     0.86135   0.79015   0.80314   0.00000  Uiso   1.00
H1096  H     0.80531   0.87653   0.69687   0.00000  Uiso   1.00
H1097  H     0.77438   0.79026   0.80316   0.00000  Uiso   1.00
H1098  H     0.89229   0.87641   0.69684   0.00000  Uiso   1.00
H1099  H     0.73064   0.81341   0.95643   0.00000  Uiso   1.00
H1100  H     0.78210   0.84515   0.61299   0.00000  Uiso   1.00
H1101  H     0.88632   0.81781   0.88814   0.00000  Uiso   1.00
H1102  H     0.97104   0.81795   0.60669   0.00000  Uiso   1.00
H1103  H     0.69419   0.85804   0.89175   0.00000  Uiso   1.00
H1104  H     0.99796   0.87202   0.97187   0.00000  Uiso   1.00
H1105  H     0.99904   0.81166   0.52538   0.00000  Uiso   1.00
H1106  H     0.84934   0.86671   0.57935   0.00000  Uiso   1.00
N1107  N     0.78403   0.83334   0.74999   0.00000  Uiso   1.00
N1108  N     0.88264   0.83332   0.75001   0.00000  Uiso   1.00
O1109  O     0.70625   0.77322   0.75000   0.00000  Uiso   1.00
O1110  O     0.96042   0.89345   0.75000   0.00000  Uiso   1.00
O1111  O     0.96039   0.77321   0.75001   0.00000  Uiso   1.00
O1112  O     0.70628   0.89346   0.75000   0.00000  Uiso   1.00
O1113  O     0.68519   0.83334   0.81492   0.00000  Uiso   1.00
O1114  O     0.98148   0.83332   0.68509   0.00000  Uiso   1.00
O1115  O     0.93933   0.83333   0.81492   0.00000  Uiso   1.00
O1116  O     0.72733   0.83333   0.68508   0.00000  Uiso   1.00
loop_
_geom_bond_atom_site_label_1
_geom_bond_atom_site_label_2
_geom_bond_distance
_geom_bond_site_symmetry_2
_ccdc_geom_bond_type
C1     C4      1.450   .     S
C1     O57     1.291   .     A
C1     O117    1.291   .     S
C2     H40     1.083   .     S
C2     C128    1.401   1_455 S
C2     C403    1.384   1_545 S
C3     C31     1.401   .     A
C3     C12     1.450   .     S
C3     C156    1.401   1_455 S
C4     C30     1.401   .     A
C4     C64     1.401   .     S
C5     N54     1.368   .     A
C5     C7      1.417   .     A
C5     H41     1.082   .     S
C6     C8      1.417   .     A
C6     N53     1.368   .     A
C6     H42     1.082   .     S
C7     H43     1.082   .     S
C7     N53     1.367   .     A
C8     N54     1.367   .     A
C8     H44     1.082   .     S
C9     C11     1.466   .     S
C9     O61     1.294   .     A
C9     O121    1.296   .     S
C10    O62     1.295   .     A
C10    C13     1.467   .     S
C10    O184    1.296   1_455 S
C11    C18     1.398   .     A
C11    C16     1.399   .     A
C12    O58     1.291   .     A
C12    O180    1.291   1_455 S
C13    C17     1.399   .     A
C13    C19     1.399   .     A
C14    C22     1.404   .     A
C14    C16     1.392   .     A
C14    H50     1.084   .     S
C15    C24     1.404   .     A
C15    C17     1.391   .     A
C15    H175    1.083   1_455 S
C16    H111    1.083   .     S
C17    H172    1.083   1_455 S
C18    H47     1.075   .     S
C18    C20     1.406   .     A
C19    H46     1.075   .     S
C19    C21     1.406   .     A
C20    C22     1.418   .     A
C20    C25     1.427   .     A
C21    C26     1.427   .     A
C21    C24     1.418   .     A
C22    C586    1.390   .     S
C23    C28     1.386   .     A
C23    H52     1.076   .     S
C23    C26     1.417   .     A
C24    C587    1.390   1_554 S
C25    C27     1.417   .     A
C25    C584    1.425   .     S
C26    C583    1.425   1_554 S
C27    H36     1.076   .     S
C27    C29     1.386   .     A
C28    H35     1.084   .     S
C28    C580    1.390   1_554 S
C29    H45     1.084   .     S
C29    C582    1.390   .     S
C30    H37     1.083   .     S
C30    C404    1.384   1_545 S
C31    H38     1.083   .     S
C31    C188    1.384   .     S
C32    H39     1.083   .     S
C32    C65     1.401   .     S
C32    C216    1.384   .     S
Cu33   O55     1.965   .     S
Cu33   O58     1.965   .     S
Cu33   O59     1.958   .     S
Cu33   N53     2.013   .     S
Cu33   O62     1.944   .     S
Cu33   Cu158   2.678   1_455 S
Cu34   O57     1.965   .     S
Cu34   O56     1.965   .     S
Cu34   O60     1.958   .     S
Cu34   N54     2.013   .     S
Cu34   O61     1.944   .     S
Cu34   Cu95    2.678   .     S
H48    C79     1.083   .     S
H49    C140    1.083   1_455 S
H51    C77     1.083   .     S
O55    C125    1.291   1_455 S
O56    C74     1.291   .     S
O59    C133    1.296   1_455 S
O60    C72     1.296   .     S
C63    C66     1.450   .     S
C63    O119    1.291   .     A
C63    O179    1.291   .     S
C64    H102    1.083   .     S
C64    C465    1.384   1_545 S
C65    C93     1.401   .     A
C65    C74     1.450   .     S
C66    C92     1.401   .     A
C66    C126    1.401   .     S
C67    N116    1.368   .     A
C67    C69     1.417   .     A
C67    H103    1.082   .     S
C68    C70     1.417   .     A
C68    N115    1.368   .     A
C68    H104    1.082   .     S
C69    H105    1.082   .     S
C69    N115    1.367   .     A
C70    N116    1.367   .     A
C70    H106    1.082   .     S
C71    C73     1.466   .     S
C71    O123    1.294   .     A
C71    O183    1.296   .     S
C72    O124    1.295   .     A
C72    C75     1.467   .     S
C73    C80     1.398   .     A
C73    C78     1.399   .     A
C74    O120    1.291   .     A
C75    C79     1.399   .     A
C75    C81     1.399   .     A
C76    C84     1.404   .     A
C76    C78     1.392   .     A
C76    H112    1.084   .     S
C77    C86     1.404   .     A
C77    C79     1.391   .     A
C78    H173    1.083   .     S
C80    H109    1.075   .     S
C80    C82     1.406   .     A
C81    H108    1.075   .     S
C81    C83     1.406   .     A
C82    C84     1.418   .     A
C82    C87     1.427   .     A
C83    C88     1.427   .     A
C83    C86     1.418   .     A
C84    C648    1.390   .     S
C85    C90     1.386   .     A
C85    H114    1.076   .     S
C85    C88     1.417   .     A
C86    C649    1.390   1_554 S
C87    C89     1.417   .     A
C87    C646    1.425   .     S
C88    C645    1.425   1_554 S
C89    H98     1.076   .     S
C89    C91     1.386   .     A
C90    H97     1.084   .     S
C90    C642    1.390   1_554 S
C91    H107    1.084   .     S
C91    C644    1.390   .     S
C92    H99     1.083   .     S
C92    C466    1.384   1_545 S
C93    H100    1.083   .     S
C93    C250    1.384   .     S
C94    H101    1.083   .     S
C94    C127    1.401   .     S
C94    C278    1.384   .     S
Cu95   O117    1.965   .     S
Cu95   O120    1.965   .     S
Cu95   O121    1.958   .     S
Cu95   N115    2.013   .     S
Cu95   O124    1.944   .     S
Cu96   O119    1.965   .     S
Cu96   O118    1.965   .     S
Cu96   O122    1.958   .     S
Cu96   N116    2.013   .     S
Cu96   O123    1.944   .     S
Cu96   Cu157   2.678   .     S
H110   C141    1.083   .     S
H113   C139    1.083   .     S
O118   C136    1.291   .     S
O122   C134    1.296   .     S
C125   C128    1.450   .     S
C125   O181    1.291   .     A
C125   O55     1.291   1_655 S
C126   H164    1.083   .     S
C126   C527    1.384   1_545 S
C127   C155    1.401   .     A
C127   C136    1.450   .     S
C128   C154    1.401   .     A
C128   C2      1.401   1_655 S
C129   N178    1.368   .     A
C129   C131    1.417   .     A
C129   H165    1.082   .     S
C130   C132    1.417   .     A
C130   N177    1.368   .     A
C130   H166    1.082   .     S
C131   H167    1.082   .     S
C131   N177    1.367   .     A
C132   N178    1.367   .     A
C132   H168    1.082   .     S
C133   C135    1.466   .     S
C133   O185    1.294   .     A
C133   O59     1.296   1_655 S
C134   O186    1.295   .     A
C134   C137    1.467   .     S
C135   C142    1.398   .     A
C135   C140    1.399   .     A
C136   O182    1.291   .     A
C137   C141    1.399   .     A
C137   C143    1.399   .     A
C138   C146    1.404   .     A
C138   C140    1.392   .     A
C138   H174    1.084   .     S
C139   C148    1.404   .     A
C139   C141    1.391   .     A
C140   H49     1.083   1_655 S
C142   H171    1.075   .     S
C142   C144    1.406   .     A
C143   H170    1.075   .     S
C143   C145    1.406   .     A
C144   C146    1.418   .     A
C144   C149    1.427   .     A
C145   C150    1.427   .     A
C145   C148    1.418   .     A
C146   C710    1.390   .     S
C147   C152    1.386   .     A
C147   H176    1.076   .     S
C147   C150    1.417   .     A
C148   C711    1.390   1_554 S
C149   C151    1.417   .     A
C149   C708    1.425   .     S
C150   C707    1.425   1_554 S
C151   H160    1.076   .     S
C151   C153    1.386   .     A
C152   H159    1.084   .     S
C152   C704    1.390   1_554 S
C153   H169    1.084   .     S
C153   C706    1.390   .     S
C154   H161    1.083   .     S
C154   C528    1.384   1_545 S
C155   H162    1.083   .     S
C155   C312    1.384   .     S
C156   H163    1.083   .     S
C156   C3      1.401   1_655 S
C156   C340    1.384   .     S
Cu157  O179    1.965   .     S
Cu157  O182    1.965   .     S
Cu157  O183    1.958   .     S
Cu157  N177    2.013   .     S
Cu157  O186    1.944   .     S
Cu158  O181    1.965   .     S
Cu158  O180    1.965   .     S
Cu158  O184    1.958   .     S
Cu158  N178    2.013   .     S
Cu158  O185    1.944   .     S
Cu158  Cu33    2.678   1_655 S
H172   C17     1.083   1_655 S
H175   C15     1.083   1_655 S
O180   C12     1.291   1_655 S
O184   C10     1.296   1_655 S
C187   C190    1.450   .     S
C187   O243    1.291   .     A
C187   O303    1.291   .     S
C188   H226    1.083   .     S
C188   C314    1.401   1_455 S
C189   C217    1.401   .     A
C189   C198    1.450   .     S
C189   C342    1.401   1_455 S
C190   C216    1.401   .     A
C190   C250    1.401   .     S
C191   N240    1.368   .     A
C191   C193    1.417   .     A
C191   H227    1.082   .     S
C192   C194    1.417   .     A
C192   N239    1.368   .     A
C192   H228    1.082   .     S
C193   H229    1.082   .     S
C193   N239    1.367   .     A
C194   N240    1.367   .     A
C194   H230    1.082   .     S
C195   C197    1.466   .     S
C195   O247    1.294   .     A
C195   O307    1.296   .     S
C196   O248    1.295   .     A
C196   C199    1.467   .     S
C196   O370    1.296   1_455 S
C197   C204    1.398   .     A
C197   C202    1.399   .     A
C198   O244    1.291   .     A
C198   O366    1.291   1_455 S
C199   C203    1.399   .     A
C199   C205    1.399   .     A
C200   C208    1.404   .     A
C200   C202    1.392   .     A
C200   H236    1.084   .     S
C201   C210    1.404   .     A
C201   C203    1.391   .     A
C201   H361    1.083   1_455 S
C202   H297    1.083   .     S
C203   H358    1.083   1_455 S
C204   H233    1.075   .     S
C204   C206    1.406   .     A
C205   H232    1.075   .     S
C205   C207    1.406   .     A
C206   C208    1.418   .     A
C206   C211    1.427   .     A
C207   C212    1.427   .     A
C207   C210    1.418   .     A
C208   C772    1.390   .     S
C209   C214    1.386   .     A
C209   H238    1.076   .     S
C209   C212    1.417   .     A
C210   C773    1.390   1_554 S
C211   C213    1.417   .     A
C211   C770    1.425   .     S
C212   C769    1.425   1_554 S
C213   H222    1.076   .     S
C213   C215    1.386   .     A
C214   H221    1.084   .     S
C214   C766    1.390   1_554 S
C215   H231    1.084   .     S
C215   C768    1.390   .     S
C216   H223    1.083   .     S
C217   H224    1.083   .     S
C217   C374    1.384   .     S
C218   H225    1.083   .     S
C218   C251    1.401   .     S
C218   C402    1.384   .     S
Cu219  O241    1.965   .     S
Cu219  O244    1.965   .     S
Cu219  O245    1.958   .     S
Cu219  N239    2.013   .     S
Cu219  O248    1.944   .     S
Cu219  Cu344   2.678   1_455 S
Cu220  O243    1.965   .     S
Cu220  O242    1.965   .     S
Cu220  O246    1.958   .     S
Cu220  N240    2.013   .     S
Cu220  O247    1.944   .     S
Cu220  Cu281   2.678   .     S
H234   C265    1.083   .     S
H235   C326    1.083   1_455 S
H237   C263    1.083   .     S
O241   C311    1.291   1_455 S
O242   C260    1.291   .     S
O245   C319    1.296   1_455 S
O246   C258    1.296   .     S
C249   C252    1.450   .     S
C249   O305    1.291   .     A
C249   O365    1.291   .     S
C250   H288    1.083   .     S
C251   C279    1.401   .     A
C251   C260    1.450   .     S
C252   C278    1.401   .     A
C252   C312    1.401   .     S
C253   N302    1.368   .     A
C253   C255    1.417   .     A
C253   H289    1.082   .     S
C254   C256    1.417   .     A
C254   N301    1.368   .     A
C254   H290    1.082   .     S
C255   H291    1.082   .     S
C255   N301    1.367   .     A
C256   N302    1.367   .     A
C256   H292    1.082   .     S
C257   C259    1.466   .     S
C257   O309    1.294   .     A
C257   O369    1.296   .     S
C258   O310    1.295   .     A
C258   C261    1.467   .     S
C259   C266    1.398   .     A
C259   C264    1.399   .     A
C260   O306    1.291   .     A
C261   C265    1.399   .     A
C261   C267    1.399   .     A
C262   C270    1.404   .     A
C262   C264    1.392   .     A
C262   H298    1.084   .     S
C263   C272    1.404   .     A
C263   C265    1.391   .     A
C264   H359    1.083   .     S
C266   H295    1.075   .     S
C266   C268    1.406   .     A
C267   H294    1.075   .     S
C267   C269    1.406   .     A
C268   C270    1.418   .     A
C268   C273    1.427   .     A
C269   C274    1.427   .     A
C269   C272    1.418   .     A
C270   C834    1.390   .     S
C271   C276    1.386   .     A
C271   H300    1.076   .     S
C271   C274    1.417   .     A
C272   C835    1.390   1_554 S
C273   C275    1.417   .     A
C273   C832    1.425   .     S
C274   C831    1.425   1_554 S
C275   H284    1.076   .     S
C275   C277    1.386   .     A
C276   H283    1.084   .     S
C276   C828    1.390   1_554 S
C277   H293    1.084   .     S
C277   C830    1.390   .     S
C278   H285    1.083   .     S
C279   H286    1.083   .     S
C279   C436    1.384   .     S
C280   H287    1.083   .     S
C280   C313    1.401   .     S
C280   C464    1.384   .     S
Cu281  O303    1.965   .     S
Cu281  O306    1.965   .     S
Cu281  O307    1.958   .     S
Cu281  N301    2.013   .     S
Cu281  O310    1.944   .     S
Cu282  O305    1.965   .     S
Cu282  O304    1.965   .     S
Cu282  O308    1.958   .     S
Cu282  N302    2.013   .     S
Cu282  O309    1.944   .     S
Cu282  Cu343   2.678   .     S
H296   C327    1.083   .     S
H299   C325    1.083   .     S
O304   C322    1.291   .     S
O308   C320    1.296   .     S
C311   C314    1.450   .     S
C311   O367    1.291   .     A
C311   O241    1.291   1_655 S
C312   H350    1.083   .     S
C313   C341    1.401   .     A
C313   C322    1.450   .     S
C314   C340    1.401   .     A
C314   C188    1.401   1_655 S
C315   N364    1.368   .     A
C315   C317    1.417   .     A
C315   H351    1.082   .     S
C316   C318    1.417   .     A
C316   N363    1.368   .     A
C316   H352    1.082   .     S
C317   H353    1.082   .     S
C317   N363    1.367   .     A
C318   N364    1.367   .     A
C318   H354    1.082   .     S
C319   C321    1.466   .     S
C319   O371    1.294   .     A
C319   O245    1.296   1_655 S
C320   O372    1.295   .     A
C320   C323    1.467   .     S
C321   C328    1.398   .     A
C321   C326    1.399   .     A
C322   O368    1.291   .     A
C323   C327    1.399   .     A
C323   C329    1.399   .     A
C324   C332    1.404   .     A
C324   C326    1.392   .     A
C324   H360    1.084   .     S
C325   C334    1.404   .     A
C325   C327    1.391   .     A
C326   H235    1.083   1_655 S
C328   H357    1.075   .     S
C328   C330    1.406   .     A
C329   H356    1.075   .     S
C329   C331    1.406   .     A
C330   C332    1.418   .     A
C330   C335    1.427   .     A
C331   C336    1.427   .     A
C331   C334    1.418   .     A
C332   C896    1.390   .     S
C333   C338    1.386   .     A
C333   H362    1.076   .     S
C333   C336    1.417   .     A
C334   C897    1.390   1_554 S
C335   C337    1.417   .     A
C335   C894    1.425   .     S
C336   C893    1.425   1_554 S
C337   H346    1.076   .     S
C337   C339    1.386   .     A
C338   H345    1.084   .     S
C338   C890    1.390   1_554 S
C339   H355    1.084   .     S
C339   C892    1.390   .     S
C340   H347    1.083   .     S
C341   H348    1.083   .     S
C341   C498    1.384   .     S
C342   H349    1.083   .     S
C342   C189    1.401   1_655 S
C342   C526    1.384   .     S
Cu343  O365    1.965   .     S
Cu343  O368    1.965   .     S
Cu343  O369    1.958   .     S
Cu343  N363    2.013   .     S
Cu343  O372    1.944   .     S
Cu344  O367    1.965   .     S
Cu344  O366    1.965   .     S
Cu344  O370    1.958   .     S
Cu344  N364    2.013   .     S
Cu344  O371    1.944   .     S
Cu344  Cu219   2.678   1_655 S
H358   C203    1.083   1_655 S
H361   C201    1.083   1_655 S
O366   C198    1.291   1_655 S
O370   C196    1.296   1_655 S
C373   C376    1.450   .     S
C373   O429    1.291   .     A
C373   O489    1.291   .     S
C374   H412    1.083   .     S
C374   C500    1.401   1_455 S
C375   C403    1.401   .     A
C375   C384    1.450   .     S
C375   C528    1.401   1_455 S
C376   C402    1.401   .     A
C376   C436    1.401   .     S
C377   N426    1.368   .     A
C377   C379    1.417   .     A
C377   H413    1.082   .     S
C378   C380    1.417   .     A
C378   N425    1.368   .     A
C378   H414    1.082   .     S
C379   H415    1.082   .     S
C379   N425    1.367   .     A
C380   N426    1.367   .     A
C380   H416    1.082   .     S
C381   C383    1.466   .     S
C381   O433    1.294   .     A
C381   O493    1.296   .     S
C382   O434    1.295   .     A
C382   C385    1.467   .     S
C382   O556    1.296   1_455 S
C383   C390    1.398   .     A
C383   C388    1.399   .     A
C384   O430    1.291   .     A
C384   O552    1.291   1_455 S
C385   C389    1.399   .     A
C385   C391    1.399   .     A
C386   C394    1.404   .     A
C386   C388    1.392   .     A
C386   H422    1.084   .     S
C387   C396    1.404   .     A
C387   C389    1.391   .     A
C387   H547    1.083   1_455 S
C388   H483    1.083   .     S
C389   H544    1.083   1_455 S
C390   H419    1.075   .     S
C390   C392    1.406   .     A
C391   H418    1.075   .     S
C391   C393    1.406   .     A
C392   C394    1.418   .     A
C392   C397    1.427   .     A
C393   C398    1.427   .     A
C393   C396    1.418   .     A
C394   C958    1.390   .     S
C395   C400    1.386   .     A
C395   H424    1.076   .     S
C395   C398    1.417   .     A
C396   C959    1.390   1_554 S
C397   C399    1.417   .     A
C397   C956    1.425   .     S
C398   C955    1.425   1_554 S
C399   H408    1.076   .     S
C399   C401    1.386   .     A
C400   H407    1.084   .     S
C400   C952    1.390   1_554 S
C401   H417    1.084   .     S
C401   C954    1.390   .     S
C402   H409    1.083   .     S
C403   H410    1.083   .     S
C403   C2      1.384   1_565 S
C404   H411    1.083   .     S
C404   C437    1.401   .     S
C404   C30     1.384   1_565 S
Cu405  O427    1.965   .     S
Cu405  O430    1.965   .     S
Cu405  O431    1.958   .     S
Cu405  N425    2.013   .     S
Cu405  O434    1.944   .     S
Cu405  Cu530   2.678   1_455 S
Cu406  O429    1.965   .     S
Cu406  O428    1.965   .     S
Cu406  O432    1.958   .     S
Cu406  N426    2.013   .     S
Cu406  O433    1.944   .     S
Cu406  Cu467   2.678   .     S
H420   C451    1.083   .     S
H421   C512    1.083   1_455 S
H423   C449    1.083   .     S
O427   C497    1.291   1_455 S
O428   C446    1.291   .     S
O431   C505    1.296   1_455 S
O432   C444    1.296   .     S
C435   C438    1.450   .     S
C435   O491    1.291   .     A
C435   O551    1.291   .     S
C436   H474    1.083   .     S
C437   C465    1.401   .     A
C437   C446    1.450   .     S
C438   C464    1.401   .     A
C438   C498    1.401   .     S
C439   N488    1.368   .     A
C439   C441    1.417   .     A
C439   H475    1.082   .     S
C440   C442    1.417   .     A
C440   N487    1.368   .     A
C440   H476    1.082   .     S
C441   H477    1.082   .     S
C441   N487    1.367   .     A
C442   N488    1.367   .     A
C442   H478    1.082   .     S
C443   C445    1.466   .     S
C443   O495    1.294   .     A
C443   O555    1.296   .     S
C444   O496    1.295   .     A
C444   C447    1.467   .     S
C445   C452    1.398   .     A
C445   C450    1.399   .     A
C446   O492    1.291   .     A
C447   C451    1.399   .     A
C447   C453    1.399   .     A
C448   C456    1.404   .     A
C448   C450    1.392   .     A
C448   H484    1.084   .     S
C449   C458    1.404   .     A
C449   C451    1.391   .     A
C450   H545    1.083   .     S
C452   H481    1.075   .     S
C452   C454    1.406   .     A
C453   H480    1.075   .     S
C453   C455    1.406   .     A
C454   C456    1.418   .     A
C454   C459    1.427   .     A
C455   C460    1.427   .     A
C455   C458    1.418   .     A
C456   C1020   1.390   .     S
C457   C462    1.386   .     A
C457   H486    1.076   .     S
C457   C460    1.417   .     A
C458   C1021   1.390   1_554 S
C459   C461    1.417   .     A
C459   C1018   1.425   .     S
C460   C1017   1.425   1_554 S
C461   H470    1.076   .     S
C461   C463    1.386   .     A
C462   H469    1.084   .     S
C462   C1014   1.390   1_554 S
C463   H479    1.084   .     S
C463   C1016   1.390   .     S
C464   H471    1.083   .     S
C465   H472    1.083   .     S
C465   C64     1.384   1_565 S
C466   H473    1.083   .     S
C466   C499    1.401   .     S
C466   C92     1.384   1_565 S
Cu467  O489    1.965   .     S
Cu467  O492    1.965   .     S
Cu467  O493    1.958   .     S
Cu467  N487    2.013   .     S
Cu467  O496    1.944   .     S
Cu468  O491    1.965   .     S
Cu468  O490    1.965   .     S
Cu468  O494    1.958   .     S
Cu468  N488    2.013   .     S
Cu468  O495    1.944   .     S
Cu468  Cu529   2.678   .     S
H482   C513    1.083   .     S
H485   C511    1.083   .     S
O490   C508    1.291   .     S
O494   C506    1.296   .     S
C497   C500    1.450   .     S
C497   O553    1.291   .     A
C497   O427    1.291   1_655 S
C498   H536    1.083   .     S
C499   C527    1.401   .     A
C499   C508    1.450   .     S
C500   C526    1.401   .     A
C500   C374    1.401   1_655 S
C501   N550    1.368   .     A
C501   C503    1.417   .     A
C501   H537    1.082   .     S
C502   C504    1.417   .     A
C502   N549    1.368   .     A
C502   H538    1.082   .     S
C503   H539    1.082   .     S
C503   N549    1.367   .     A
C504   N550    1.367   .     A
C504   H540    1.082   .     S
C505   C507    1.466   .     S
C505   O557    1.294   .     A
C505   O431    1.296   1_655 S
C506   O558    1.295   .     A
C506   C509    1.467   .     S
C507   C514    1.398   .     A
C507   C512    1.399   .     A
C508   O554    1.291   .     A
C509   C513    1.399   .     A
C509   C515    1.399   .     A
C510   C518    1.404   .     A
C510   C512    1.392   .     A
C510   H546    1.084   .     S
C511   C520    1.404   .     A
C511   C513    1.391   .     A
C512   H421    1.083   1_655 S
C514   H543    1.075   .     S
C514   C516    1.406   .     A
C515   H542    1.075   .     S
C515   C517    1.406   .     A
C516   C518    1.418   .     A
C516   C521    1.427   .     A
C517   C522    1.427   .     A
C517   C520    1.418   .     A
C518   C1082   1.390   .     S
C519   C524    1.386   .     A
C519   H548    1.076   .     S
C519   C522    1.417   .     A
C520   C1083   1.390   1_554 S
C521   C523    1.417   .     A
C521   C1080   1.425   .     S
C522   C1079   1.425   1_554 S
C523   H532    1.076   .     S
C523   C525    1.386   .     A
C524   H531    1.084   .     S
C524   C1076   1.390   1_554 S
C525   H541    1.084   .     S
C525   C1078   1.390   .     S
C526   H533    1.083   .     S
C527   H534    1.083   .     S
C527   C126    1.384   1_565 S
C528   H535    1.083   .     S
C528   C375    1.401   1_655 S
C528   C154    1.384   1_565 S
Cu529  O551    1.965   .     S
Cu529  O554    1.965   .     S
Cu529  O555    1.958   .     S
Cu529  N549    2.013   .     S
Cu529  O558    1.944   .     S
Cu530  O553    1.965   .     S
Cu530  O552    1.965   .     S
Cu530  O556    1.958   .     S
Cu530  N550    2.013   .     S
Cu530  O557    1.944   .     S
Cu530  Cu405   2.678   1_655 S
H544   C389    1.083   1_655 S
H547   C387    1.083   1_655 S
O552   C384    1.291   1_655 S
O556   C382    1.296   1_655 S
C559   C562    1.450   .     S
C559   O615    1.291   .     A
C559   O675    1.291   .     S
C560   H598    1.083   .     S
C560   C686    1.401   1_455 S
C560   C961    1.384   1_545 S
C561   C589    1.401   .     A
C561   C570    1.450   .     S
C561   C714    1.401   1_455 S
C562   C588    1.401   .     A
C562   C622    1.401   .     S
C563   N612    1.368   .     A
C563   C565    1.417   .     A
C563   H599    1.082   .     S
C564   C566    1.417   .     A
C564   N611    1.368   .     A
C564   H600    1.082   .     S
C565   H601    1.082   .     S
C565   N611    1.367   .     A
C566   N612    1.367   .     A
C566   H602    1.082   .     S
C567   C569    1.466   .     S
C567   O619    1.294   .     A
C567   O679    1.296   .     S
C568   O620    1.295   .     A
C568   C571    1.467   .     S
C568   O742    1.296   1_455 S
C569   C576    1.398   .     A
C569   C574    1.399   .     A
C570   O616    1.291   .     A
C570   O738    1.291   1_455 S
C571   C575    1.399   .     A
C571   C577    1.399   .     A
C572   C580    1.404   .     A
C572   C574    1.392   .     A
C572   H608    1.084   .     S
C573   C582    1.404   .     A
C573   C575    1.391   .     A
C573   H733    1.083   1_455 S
C574   H669    1.083   .     S
C575   H730    1.083   1_455 S
C576   H605    1.075   .     S
C576   C578    1.406   .     A
C577   H604    1.075   .     S
C577   C579    1.406   .     A
C578   C580    1.418   .     A
C578   C583    1.427   .     A
C579   C584    1.427   .     A
C579   C582    1.418   .     A
C580   C28     1.390   1_556 S
C581   C586    1.386   .     A
C581   H610    1.076   .     S
C581   C584    1.417   .     A
C583   C585    1.417   .     A
C583   C26     1.425   1_556 S
C585   H594    1.076   .     S
C585   C587    1.386   .     A
C586   H593    1.084   .     S
C587   H603    1.084   .     S
C587   C24     1.390   1_556 S
C588   H595    1.083   .     S
C588   C962    1.384   1_545 S
C589   H596    1.083   .     S
C589   C746    1.384   .     S
C590   H597    1.083   .     S
C590   C623    1.401   .     S
C590   C774    1.384   .     S
Cu591  O613    1.965   .     S
Cu591  O616    1.965   .     S
Cu591  O617    1.958   .     S
Cu591  N611    2.013   .     S
Cu591  O620    1.944   .     S
Cu591  Cu716   2.678   1_455 S
Cu592  O615    1.965   .     S
Cu592  O614    1.965   .     S
Cu592  O618    1.958   .     S
Cu592  N612    2.013   .     S
Cu592  O619    1.944   .     S
Cu592  Cu653   2.678   .     S
H606   C637    1.083   .     S
H607   C698    1.083   1_455 S
H609   C635    1.083   .     S
O613   C683    1.291   1_455 S
O614   C632    1.291   .     S
O617   C691    1.296   1_455 S
O618   C630    1.296   .     S
C621   C624    1.450   .     S
C621   O677    1.291   .     A
C621   O737    1.291   .     S
C622   H660    1.083   .     S
C622   C1023   1.384   1_545 S
C623   C651    1.401   .     A
C623   C632    1.450   .     S
C624   C650    1.401   .     A
C624   C684    1.401   .     S
C625   N674    1.368   .     A
C625   C627    1.417   .     A
C625   H661    1.082   .     S
C626   C628    1.417   .     A
C626   N673    1.368   .     A
C626   H662    1.082   .     S
C627   H663    1.082   .     S
C627   N673    1.367   .     A
C628   N674    1.367   .     A
C628   H664    1.082   .     S
C629   C631    1.466   .     S
C629   O681    1.294   .     A
C629   O741    1.296   .     S
C630   O682    1.295   .     A
C630   C633    1.467   .     S
C631   C638    1.398   .     A
C631   C636    1.399   .     A
C632   O678    1.291   .     A
C633   C637    1.399   .     A
C633   C639    1.399   .     A
C634   C642    1.404   .     A
C634   C636    1.392   .     A
C634   H670    1.084   .     S
C635   C644    1.404   .     A
C635   C637    1.391   .     A
C636   H731    1.083   .     S
C638   H667    1.075   .     S
C638   C640    1.406   .     A
C639   H666    1.075   .     S
C639   C641    1.406   .     A
C640   C642    1.418   .     A
C640   C645    1.427   .     A
C641   C646    1.427   .     A
C641   C644    1.418   .     A
C642   C90     1.390   1_556 S
C643   C648    1.386   .     A
C643   H672    1.076   .     S
C643   C646    1.417   .     A
C645   C647    1.417   .     A
C645   C88     1.425   1_556 S
C647   H656    1.076   .     S
C647   C649    1.386   .     A
C648   H655    1.084   .     S
C649   H665    1.084   .     S
C649   C86     1.390   1_556 S
C650   H657    1.083   .     S
C650   C1024   1.384   1_545 S
C651   H658    1.083   .     S
C651   C808    1.384   .     S
C652   H659    1.083   .     S
C652   C685    1.401   .     S
C652   C836    1.384   .     S
Cu653  O675    1.965   .     S
Cu653  O678    1.965   .     S
Cu653  O679    1.958   .     S
Cu653  N673    2.013   .     S
Cu653  O682    1.944   .     S
Cu654  O677    1.965   .     S
Cu654  O676    1.965   .     S
Cu654  O680    1.958   .     S
Cu654  N674    2.013   .     S
Cu654  O681    1.944   .     S
Cu654  Cu715   2.678   .     S
H668   C699    1.083   .     S
H671   C697    1.083   .     S
O676   C694    1.291   .     S
O680   C692    1.296   .     S
C683   C686    1.450   .     S
C683   O739    1.291   .     A
C683   O613    1.291   1_655 S
C684   H722    1.083   .     S
C684   C1085   1.384   1_545 S
C685   C713    1.401   .     A
C685   C694    1.450   .     S
C686   C712    1.401   .     A
C686   C560    1.401   1_655 S
C687   N736    1.368   .     A
C687   C689    1.417   .     A
C687   H723    1.082   .     S
C688   C690    1.417   .     A
C688   N735    1.368   .     A
C688   H724    1.082   .     S
C689   H725    1.082   .     S
C689   N735    1.367   .     A
C690   N736    1.367   .     A
C690   H726    1.082   .     S
C691   C693    1.466   .     S
C691   O743    1.294   .     A
C691   O617    1.296   1_655 S
C692   O744    1.295   .     A
C692   C695    1.467   .     S
C693   C700    1.398   .     A
C693   C698    1.399   .     A
C694   O740    1.291   .     A
C695   C699    1.399   .     A
C695   C701    1.399   .     A
C696   C704    1.404   .     A
C696   C698    1.392   .     A
C696   H732    1.084   .     S
C697   C706    1.404   .     A
C697   C699    1.391   .     A
C698   H607    1.083   1_655 S
C700   H729    1.075   .     S
C700   C702    1.406   .     A
C701   H728    1.075   .     S
C701   C703    1.406   .     A
C702   C704    1.418   .     A
C702   C707    1.427   .     A
C703   C708    1.427   .     A
C703   C706    1.418   .     A
C704   C152    1.390   1_556 S
C705   C710    1.386   .     A
C705   H734    1.076   .     S
C705   C708    1.417   .     A
C707   C709    1.417   .     A
C707   C150    1.425   1_556 S
C709   H718    1.076   .     S
C709   C711    1.386   .     A
C710   H717    1.084   .     S
C711   H727    1.084   .     S
C711   C148    1.390   1_556 S
C712   H719    1.083   .     S
C712   C1086   1.384   1_545 S
C713   H720    1.083   .     S
C713   C870    1.384   .     S
C714   H721    1.083   .     S
C714   C561    1.401   1_655 S
C714   C898    1.384   .     S
Cu715  O737    1.965   .     S
Cu715  O740    1.965   .     S
Cu715  O741    1.958   .     S
Cu715  N735    2.013   .     S
Cu715  O744    1.944   .     S
Cu716  O739    1.965   .     S
Cu716  O738    1.965   .     S
Cu716  O742    1.958   .     S
Cu716  N736    2.013   .     S
Cu716  O743    1.944   .     S
Cu716  Cu591   2.678   1_655 S
H730   C575    1.083   1_655 S
H733   C573    1.083   1_655 S
O738   C570    1.291   1_655 S
O742   C568    1.296   1_655 S
C745   C748    1.450   .     S
C745   O801    1.291   .     A
C745   O861    1.291   .     S
C746   H784    1.083   .     S
C746   C872    1.401   1_455 S
C747   C775    1.401   .     A
C747   C756    1.450   .     S
C747   C900    1.401   1_455 S
C748   C774    1.401   .     A
C748   C808    1.401   .     S
C749   N798    1.368   .     A
C749   C751    1.417   .     A
C749   H785    1.082   .     S
C750   C752    1.417   .     A
C750   N797    1.368   .     A
C750   H786    1.082   .     S
C751   H787    1.082   .     S
C751   N797    1.367   .     A
C752   N798    1.367   .     A
C752   H788    1.082   .     S
C753   C755    1.466   .     S
C753   O805    1.294   .     A
C753   O865    1.296   .     S
C754   O806    1.295   .     A
C754   C757    1.467   .     S
C754   O928    1.296   1_455 S
C755   C762    1.398   .     A
C755   C760    1.399   .     A
C756   O802    1.291   .     A
C756   O924    1.291   1_455 S
C757   C761    1.399   .     A
C757   C763    1.399   .     A
C758   C766    1.404   .     A
C758   C760    1.392   .     A
C758   H794    1.084   .     S
C759   C768    1.404   .     A
C759   C761    1.391   .     A
C759   H919    1.083   1_455 S
C760   H855    1.083   .     S
C761   H916    1.083   1_455 S
C762   H791    1.075   .     S
C762   C764    1.406   .     A
C763   H790    1.075   .     S
C763   C765    1.406   .     A
C764   C766    1.418   .     A
C764   C769    1.427   .     A
C765   C770    1.427   .     A
C765   C768    1.418   .     A
C766   C214    1.390   1_556 S
C767   C772    1.386   .     A
C767   H796    1.076   .     S
C767   C770    1.417   .     A
C769   C771    1.417   .     A
C769   C212    1.425   1_556 S
C771   H780    1.076   .     S
C771   C773    1.386   .     A
C772   H779    1.084   .     S
C773   H789    1.084   .     S
C773   C210    1.390   1_556 S
C774   H781    1.083   .     S
C775   H782    1.083   .     S
C775   C932    1.384   .     S
C776   H783    1.083   .     S
C776   C809    1.401   .     S
C776   C960    1.384   .     S
Cu777  O799    1.965   .     S
Cu777  O802    1.965   .     S
Cu777  O803    1.958   .     S
Cu777  N797    2.013   .     S
Cu777  O806    1.944   .     S
Cu777  Cu902   2.678   1_455 S
Cu778  O801    1.965   .     S
Cu778  O800    1.965   .     S
Cu778  O804    1.958   .     S
Cu778  N798    2.013   .     S
Cu778  O805    1.944   .     S
Cu778  Cu839   2.678   .     S
H792   C823    1.083   .     S
H793   C884    1.083   1_455 S
H795   C821    1.083   .     S
O799   C869    1.291   1_455 S
O800   C818    1.291   .     S
O803   C877    1.296   1_455 S
O804   C816    1.296   .     S
C807   C810    1.450   .     S
C807   O863    1.291   .     A
C807   O923    1.291   .     S
C808   H846    1.083   .     S
C809   C837    1.401   .     A
C809   C818    1.450   .     S
C810   C836    1.401   .     A
C810   C870    1.401   .     S
C811   N860    1.368   .     A
C811   C813    1.417   .     A
C811   H847    1.082   .     S
C812   C814    1.417   .     A
C812   N859    1.368   .     A
C812   H848    1.082   .     S
C813   H849    1.082   .     S
C813   N859    1.367   .     A
C814   N860    1.367   .     A
C814   H850    1.082   .     S
C815   C817    1.466   .     S
C815   O867    1.294   .     A
C815   O927    1.296   .     S
C816   O868    1.295   .     A
C816   C819    1.467   .     S
C817   C824    1.398   .     A
C817   C822    1.399   .     A
C818   O864    1.291   .     A
C819   C823    1.399   .     A
C819   C825    1.399   .     A
C820   C828    1.404   .     A
C820   C822    1.392   .     A
C820   H856    1.084   .     S
C821   C830    1.404   .     A
C821   C823    1.391   .     A
C822   H917    1.083   .     S
C824   H853    1.075   .     S
C824   C826    1.406   .     A
C825   H852    1.075   .     S
C825   C827    1.406   .     A
C826   C828    1.418   .     A
C826   C831    1.427   .     A
C827   C832    1.427   .     A
C827   C830    1.418   .     A
C828   C276    1.390   1_556 S
C829   C834    1.386   .     A
C829   H858    1.076   .     S
C829   C832    1.417   .     A
C831   C833    1.417   .     A
C831   C274    1.425   1_556 S
C833   H842    1.076   .     S
C833   C835    1.386   .     A
C834   H841    1.084   .     S
C835   H851    1.084   .     S
C835   C272    1.390   1_556 S
C836   H843    1.083   .     S
C837   H844    1.083   .     S
C837   C994    1.384   .     S
C838   H845    1.083   .     S
C838   C871    1.401   .     S
C838   C1022   1.384   .     S
Cu839  O861    1.965   .     S
Cu839  O864    1.965   .     S
Cu839  O865    1.958   .     S
Cu839  N859    2.013   .     S
Cu839  O868    1.944   .     S
Cu840  O863    1.965   .     S
Cu840  O862    1.965   .     S
Cu840  O866    1.958   .     S
Cu840  N860    2.013   .     S
Cu840  O867    1.944   .     S
Cu840  Cu901   2.678   .     S
H854   C885    1.083   .     S
H857   C883    1.083   .     S
O862   C880    1.291   .     S
O866   C878    1.296   .     S
C869   C872    1.450   .     S
C869   O925    1.291   .     A
C869   O799    1.291   1_655 S
C870   H908    1.083   .     S
C871   C899    1.401   .     A
C871   C880    1.450   .     S
C872   C898    1.401   .     A
C872   C746    1.401   1_655 S
C873   N922    1.368   .     A
C873   C875    1.417   .     A
C873   H909    1.082   .     S
C874   C876    1.417   .     A
C874   N921    1.368   .     A
C874   H910    1.082   .     S
C875   H911    1.082   .     S
C875   N921    1.367   .     A
C876   N922    1.367   .     A
C876   H912    1.082   .     S
C877   C879    1.466   .     S
C877   O929    1.294   .     A
C877   O803    1.296   1_655 S
C878   O930    1.295   .     A
C878   C881    1.467   .     S
C879   C886    1.398   .     A
C879   C884    1.399   .     A
C880   O926    1.291   .     A
C881   C885    1.399   .     A
C881   C887    1.399   .     A
C882   C890    1.404   .     A
C882   C884    1.392   .     A
C882   H918    1.084   .     S
C883   C892    1.404   .     A
C883   C885    1.391   .     A
C884   H793    1.083   1_655 S
C886   H915    1.075   .     S
C886   C888    1.406   .     A
C887   H914    1.075   .     S
C887   C889    1.406   .     A
C888   C890    1.418   .     A
C888   C893    1.427   .     A
C889   C894    1.427   .     A
C889   C892    1.418   .     A
C890   C338    1.390   1_556 S
C891   C896    1.386   .     A
C891   H920    1.076   .     S
C891   C894    1.417   .     A
C893   C895    1.417   .     A
C893   C336    1.425   1_556 S
C895   H904    1.076   .     S
C895   C897    1.386   .     A
C896   H903    1.084   .     S
C897   H913    1.084   .     S
C897   C334    1.390   1_556 S
C898   H905    1.083   .     S
C899   H906    1.083   .     S
C899   C1056   1.384   .     S
C900   H907    1.083   .     S
C900   C747    1.401   1_655 S
C900   C1084   1.384   .     S
Cu901  O923    1.965   .     S
Cu901  O926    1.965   .     S
Cu901  O927    1.958   .     S
Cu901  N921    2.013   .     S
Cu901  O930    1.944   .     S
Cu902  O925    1.965   .     S
Cu902  O924    1.965   .     S
Cu902  O928    1.958   .     S
Cu902  N922    2.013   .     S
Cu902  O929    1.944   .     S
Cu902  Cu777   2.678   1_655 S
H916   C761    1.083   1_655 S
H919   C759    1.083   1_655 S
O924   C756    1.291   1_655 S
O928   C754    1.296   1_655 S
C931   C934    1.450   .     S
C931   O987    1.291   .     A
C931   O1047   1.291   .     S
C932   H970    1.083   .     S
C932   C1058   1.401   1_455 S
C933   C961    1.401   .     A
C933   C942    1.450   .     S
C933   C1086   1.401   1_455 S
C934   C960    1.401   .     A
C934   C994    1.401   .     S
C935   N984    1.368   .     A
C935   C937    1.417   .     A
C935   H971    1.082   .     S
C936   C938    1.417   .     A
C936   N983    1.368   .     A
C936   H972    1.082   .     S
C937   H973    1.082   .     S
C937   N983    1.367   .     A
C938   N984    1.367   .     A
C938   H974    1.082   .     S
C939   C941    1.466   .     S
C939   O991    1.294   .     A
C939   O1051   1.296   .     S
C940   O992    1.295   .     A
C940   C943    1.467   .     S
C940   O1114   1.296   1_455 S
C941   C948    1.398   .     A
C941   C946    1.399   .     A
C942   O988    1.291   .     A
C942   O1110   1.291   1_455 S
C943   C947    1.399   .     A
C943   C949    1.399   .     A
C944   C952    1.404   .     A
C944   C946    1.392   .     A
C944   H980    1.084   .     S
C945   C954    1.404   .     A
C945   C947    1.391   .     A
C945   H1105   1.083   1_455 S
C946   H1041   1.083   .     S
C947   H1102   1.083   1_455 S
C948   H977    1.075   .     S
C948   C950    1.406   .     A
C949   H976    1.075   .     S
C949   C951    1.406   .     A
C950   C952    1.418   .     A
C950   C955    1.427   .     A
C951   C956    1.427   .     A
C951   C954    1.418   .     A
C952   C400    1.390   1_556 S
C953   C958    1.386   .     A
C953   H982    1.076   .     S
C953   C956    1.417   .     A
C955   C957    1.417   .     A
C955   C398    1.425   1_556 S
C957   H966    1.076   .     S
C957   C959    1.386   .     A
C958   H965    1.084   .     S
C959   H975    1.084   .     S
C959   C396    1.390   1_556 S
C960   H967    1.083   .     S
C961   H968    1.083   .     S
C961   C560    1.384   1_565 S
C962   H969    1.083   .     S
C962   C995    1.401   .     S
C962   C588    1.384   1_565 S
Cu963  O985    1.965   .     S
Cu963  O988    1.965   .     S
Cu963  O989    1.958   .     S
Cu963  N983    2.013   .     S
Cu963  O992    1.944   .     S
Cu963  Cu1088  2.678   1_455 S
Cu964  O987    1.965   .     S
Cu964  O986    1.965   .     S
Cu964  O990    1.958   .     S
Cu964  N984    2.013   .     S
Cu964  O991    1.944   .     S
Cu964  Cu1025  2.678   .     S
H978   C1009   1.083   .     S
H979   C1070   1.083   1_455 S
H981   C1007   1.083   .     S
O985   C1055   1.291   1_455 S
O986   C1004   1.291   .     S
O989   C1063   1.296   1_455 S
O990   C1002   1.296   .     S
C993   C996    1.450   .     S
C993   O1049   1.291   .     A
C993   O1109   1.291   .     S
C994   H1032   1.083   .     S
C995   C1023   1.401   .     A
C995   C1004   1.450   .     S
C996   C1022   1.401   .     A
C996   C1056   1.401   .     S
C997   N1046   1.368   .     A
C997   C999    1.417   .     A
C997   H1033   1.082   .     S
C998   C1000   1.417   .     A
C998   N1045   1.368   .     A
C998   H1034   1.082   .     S
C999   H1035   1.082   .     S
C999   N1045   1.367   .     A
C1000  N1046   1.367   .     A
C1000  H1036   1.082   .     S
C1001  C1003   1.466   .     S
C1001  O1053   1.294   .     A
C1001  O1113   1.296   .     S
C1002  O1054   1.295   .     A
C1002  C1005   1.467   .     S
C1003  C1010   1.398   .     A
C1003  C1008   1.399   .     A
C1004  O1050   1.291   .     A
C1005  C1009   1.399   .     A
C1005  C1011   1.399   .     A
C1006  C1014   1.404   .     A
C1006  C1008   1.392   .     A
C1006  H1042   1.084   .     S
C1007  C1016   1.404   .     A
C1007  C1009   1.391   .     A
C1008  H1103   1.083   .     S
C1010  H1039   1.075   .     S
C1010  C1012   1.406   .     A
C1011  H1038   1.075   .     S
C1011  C1013   1.406   .     A
C1012  C1014   1.418   .     A
C1012  C1017   1.427   .     A
C1013  C1018   1.427   .     A
C1013  C1016   1.418   .     A
C1014  C462    1.390   1_556 S
C1015  C1020   1.386   .     A
C1015  H1044   1.076   .     S
C1015  C1018   1.417   .     A
C1017  C1019   1.417   .     A
C1017  C460    1.425   1_556 S
C1019  H1028   1.076   .     S
C1019  C1021   1.386   .     A
C1020  H1027   1.084   .     S
C1021  H1037   1.084   .     S
C1021  C458    1.390   1_556 S
C1022  H1029   1.083   .     S
C1023  H1030   1.083   .     S
C1023  C622    1.384   1_565 S
C1024  H1031   1.083   .     S
C1024  C1057   1.401   .     S
C1024  C650    1.384   1_565 S
Cu1025 O1047   1.965   .     S
Cu1025 O1050   1.965   .     S
Cu1025 O1051   1.958   .     S
Cu1025 N1045   2.013   .     S
Cu1025 O1054   1.944   .     S
Cu1026 O1049   1.965   .     S
Cu1026 O1048   1.965   .     S
Cu1026 O1052   1.958   .     S
Cu1026 N1046   2.013   .     S
Cu1026 O1053   1.944   .     S
Cu1026 Cu1087  2.678   .     S
H1040  C1071   1.083   .     S
H1043  C1069   1.083   .     S
O1048  C1066   1.291   .     S
O1052  C1064   1.296   .     S
C1055  C1058   1.450   .     S
C1055  O1111   1.291   .     A
C1055  O985    1.291   1_655 S
C1056  H1094   1.083   .     S
C1057  C1085   1.401   .     A
C1057  C1066   1.450   .     S
C1058  C1084   1.401   .     A
C1058  C932    1.401   1_655 S
C1059  N1108   1.368   .     A
C1059  C1061   1.417   .     A
C1059  H1095   1.082   .     S
C1060  C1062   1.417   .     A
C1060  N1107   1.368   .     A
C1060  H1096   1.082   .     S
C1061  H1097   1.082   .     S
C1061  N1107   1.367   .     A
C1062  N1108   1.367   .     A
C1062  H1098   1.082   .     S
C1063  C1065   1.466   .     S
C1063  O1115   1.294   .     A
C1063  O989    1.296   1_655 S
C1064  O1116   1.295   .     A
C1064  C1067   1.467   .     S
C1065  C1072   1.398   .     A
C1065  C1070   1.399   .     A
C1066  O1112   1.291   .     A
C1067  C1071   1.399   .     A
C1067  C1073   1.399   .     A
C1068  C1076   1.404   .     A
C1068  C1070   1.392   .     A
C1068  H1104   1.084   .     S
C1069  C1078   1.404   .     A
C1069  C1071   1.391   .     A
C1070  H979    1.083   1_655 S
C1072  H1101   1.075   .     S
C1072  C1074   1.406   .     A
C1073  H1100   1.075   .     S
C1073  C1075   1.406   .     A
C1074  C1076   1.418   .     A
C1074  C1079   1.427   .     A
C1075  C1080   1.427   .     A
C1075  C1078   1.418   .     A
C1076  C524    1.390   1_556 S
C1077  C1082   1.386   .     A
C1077  H1106   1.076   .     S
C1077  C1080   1.417   .     A
C1079  C1081   1.417   .     A
C1079  C522    1.425   1_556 S
C1081  H1090   1.076   .     S
C1081  C1083   1.386   .     A
C1082  H1089   1.084   .     S
C1083  H1099   1.084   .     S
C1083  C520    1.390   1_556 S
C1084  H1091   1.083   .     S
C1085  H1092   1.083   .     S
C1085  C684    1.384   1_565 S
C1086  H1093   1.083   .     S
C1086  C933    1.401   1_655 S
C1086  C712    1.384   1_565 S
Cu1087 O1109   1.965   .     S
Cu1087 O1112   1.965   .     S
Cu1087 O1113   1.958   .     S
Cu1087 N1107   2.013   .     S
Cu1087 O1116   1.944   .     S
Cu1088 O1111   1.965   .     S
Cu1088 O1110   1.965   .     S
Cu1088 O1114   1.958   .     S
Cu1088 N1108   2.013   .     S
Cu1088 O1115   1.944   .     S
Cu1088 Cu963   2.678   1_655 S
H1102  C947    1.083   1_655 S
H1105  C945    1.083   1_655 S
O1110  C942    1.291   1_655 S
O1114  C940    1.296   1_655 S
