data_str_m2_o10_o16_pcu_sym.32
_audit_creation_date              2020-01-03
_audit_creation_method            'Materials Studio'
_symmetry_space_group_name_H-M    'P1'
_symmetry_Int_Tables_number       1
_symmetry_cell_setting            triclinic
loop_
_symmetry_equiv_pos_as_xyz
  x,y,z
_cell_length_a                    22.3999
_cell_length_b                    26.0353
_cell_length_c                    26.6623
_cell_angle_alpha                 95.0810
_cell_angle_beta                  77.3678
_cell_angle_gamma                 103.4208
loop_
_atom_site_label
_atom_site_type_symbol
_atom_site_fract_x
_atom_site_fract_y
_atom_site_fract_z
_atom_site_U_iso_or_equiv
_atom_site_adp_type
_atom_site_occupancy
C1     C     0.18226   0.26671   0.25037   0.00000  Uiso   1.00
C2     C     0.11230   0.16674   0.40401   0.00000  Uiso   1.00
C3     C     0.19107   0.32278   0.24994   0.00000  Uiso   1.00
C4     C     0.13321   0.16629   0.34741   0.00000  Uiso   1.00
C5     C     0.14347   0.01048   0.24639   0.00000  Uiso   1.00
C6     C     0.15167   0.06658   0.24793   0.00000  Uiso   1.00
C7     C     0.20041   0.16931   0.15290   0.00000  Uiso   1.00
C8     C     0.28816   0.23424   0.03156   0.00000  Uiso   1.00
C9     C     0.22196   0.17713   0.09768   0.00000  Uiso   1.00
C10    C     0.05101   0.14033   0.42525   0.00000  Uiso   1.00
C11    C     0.03342   0.13146   0.47762   0.00000  Uiso   1.00
C12    C     0.14113   0.16777   0.48746   0.00000  Uiso   1.00
C13    C     0.07805   0.14421   0.00841   0.00000  Uiso   1.00
C14    C     0.00583   0.21453   0.30189   0.00000  Uiso   1.00
C15    C     0.14682   0.09507   0.07194   0.00000  Uiso   1.00
C16    C     0.18783   0.05813   0.08091   0.00000  Uiso   1.00
C17    C     0.15051   0.00113   0.08692   0.00000  Uiso   1.00
C18    C     0.21204   0.26628   0.38582   0.00000  Uiso   1.00
C19    C     0.15490   0.18722   0.43718   0.00000  Uiso   1.00
C20    C     0.18910   0.17784   0.01678   0.00000  Uiso   1.00
C21    C     0.24413   0.21720   0.00023   0.00000  Uiso   1.00
C22    C     0.25281   0.24219   0.45434   0.00000  Uiso   1.00
C23    C     0.20847   0.22858   0.42345   0.00000  Uiso   1.00
C24    C     0.18421   0.15182   0.06276   0.00000  Uiso   1.00
C25    C     0.27557   0.21621   0.08097   0.00000  Uiso   1.00
Cu26   Cu    0.10710   0.16105   0.24435   0.00000  Uiso   1.00
Cu27   Cu    0.22623   0.17228   0.25565   0.00000  Uiso   1.00
H28    H     0.30626   0.23452   0.10687   0.00000  Uiso   1.00
H29    H     0.11054   0.33204   0.12035   0.00000  Uiso   1.00
H30    H     0.13242   0.31939   0.05156   0.00000  Uiso   1.00
H31    H     0.18132   0.30896   0.09349   0.00000  Uiso   1.00
H32    H     0.22788   0.05922   0.04771   0.00000  Uiso   1.00
H33    H     0.20686   0.07090   0.11620   0.00000  Uiso   1.00
H34    H     0.10704   0.09447   0.10524   0.00000  Uiso   1.00
H35    H     0.12752   0.07778   0.03778   0.00000  Uiso   1.00
H36    H     0.09781   0.31974   0.24280   0.00000  Uiso   1.00
H37    H     0.33043   0.12782   0.20910   0.00000  Uiso   1.00
H38    H     0.29300   0.27460   0.44382   0.00000  Uiso   1.00
H39    H     0.32982   0.26475   0.01945   0.00000  Uiso   1.00
H40    H     0.01686   0.12586   0.40127   0.00000  Uiso   1.00
H41    H     0.06223   0.13696   0.04896   0.00000  Uiso   1.00
H42    H     0.31882   0.11291   0.49409   0.00000  Uiso   1.00
H43    H     0.23678   0.01354   0.25335   0.00000  Uiso   1.00
N44    N     0.31574   0.18074   0.26416   0.00000  Uiso   1.00
N45    N     0.01759   0.15259   0.23584   0.00000  Uiso   1.00
N46    N     0.02465   0.24300   0.33357   0.00000  Uiso   1.00
N47    N     0.21515   0.29769   0.35677   0.00000  Uiso   1.00
O48    O     0.12797   0.23807   0.24633   0.00000  Uiso   1.00
O49    O     0.22858   0.24755   0.25587   0.00000  Uiso   1.00
O50    O     0.09181   0.15960   0.31839   0.00000  Uiso   1.00
O51    O     0.19242   0.16908   0.32793   0.00000  Uiso   1.00
O52    O     0.10476   0.08578   0.24413   0.00000  Uiso   1.00
O53    O     0.20536   0.09526   0.25367   0.00000  Uiso   1.00
O54    O     0.14092   0.16425   0.17207   0.00000  Uiso   1.00
O55    O     0.24152   0.17373   0.18161   0.00000  Uiso   1.00
C56    C     0.51559   0.26671   0.25037   0.00000  Uiso   1.00
C57    C     0.44563   0.16674   0.40401   0.00000  Uiso   1.00
C58    C     0.52440   0.32278   0.24994   0.00000  Uiso   1.00
C59    C     0.46655   0.16629   0.34741   0.00000  Uiso   1.00
C60    C     0.47680   0.01048   0.24639   0.00000  Uiso   1.00
C61    C     0.48500   0.06658   0.24793   0.00000  Uiso   1.00
C62    C     0.53374   0.16931   0.15290   0.00000  Uiso   1.00
C63    C     0.62150   0.23424   0.03156   0.00000  Uiso   1.00
C64    C     0.55529   0.17713   0.09768   0.00000  Uiso   1.00
C65    C     0.38435   0.14033   0.42525   0.00000  Uiso   1.00
C66    C     0.36675   0.13146   0.47762   0.00000  Uiso   1.00
C67    C     0.47446   0.16777   0.48746   0.00000  Uiso   1.00
C68    C     0.41139   0.14421   0.00841   0.00000  Uiso   1.00
C69    C     0.33917   0.21453   0.30189   0.00000  Uiso   1.00
C70    C     0.48016   0.09507   0.07194   0.00000  Uiso   1.00
C71    C     0.52117   0.05813   0.08091   0.00000  Uiso   1.00
C72    C     0.48384   0.00113   0.08692   0.00000  Uiso   1.00
C73    C     0.54537   0.26628   0.38582   0.00000  Uiso   1.00
C74    C     0.48824   0.18722   0.43718   0.00000  Uiso   1.00
C75    C     0.52243   0.17784   0.01678   0.00000  Uiso   1.00
C76    C     0.57746   0.21720   0.00023   0.00000  Uiso   1.00
C77    C     0.58615   0.24219   0.45434   0.00000  Uiso   1.00
C78    C     0.54180   0.22858   0.42345   0.00000  Uiso   1.00
C79    C     0.51754   0.15182   0.06276   0.00000  Uiso   1.00
C80    C     0.60890   0.21621   0.08097   0.00000  Uiso   1.00
Cu81   Cu    0.44043   0.16105   0.24435   0.00000  Uiso   1.00
Cu82   Cu    0.55957   0.17228   0.25565   0.00000  Uiso   1.00
H83    H     0.63959   0.23452   0.10687   0.00000  Uiso   1.00
H84    H     0.44388   0.33204   0.12035   0.00000  Uiso   1.00
H85    H     0.46575   0.31939   0.05156   0.00000  Uiso   1.00
H86    H     0.51465   0.30896   0.09349   0.00000  Uiso   1.00
H87    H     0.56121   0.05922   0.04771   0.00000  Uiso   1.00
H88    H     0.54019   0.07090   0.11620   0.00000  Uiso   1.00
H89    H     0.44037   0.09447   0.10524   0.00000  Uiso   1.00
H90    H     0.46085   0.07778   0.03778   0.00000  Uiso   1.00
H91    H     0.43114   0.31974   0.24280   0.00000  Uiso   1.00
H92    H     0.66376   0.12782   0.20910   0.00000  Uiso   1.00
H93    H     0.62633   0.27460   0.44382   0.00000  Uiso   1.00
H94    H     0.66316   0.26475   0.01945   0.00000  Uiso   1.00
H95    H     0.35019   0.12586   0.40127   0.00000  Uiso   1.00
H96    H     0.39557   0.13696   0.04896   0.00000  Uiso   1.00
H97    H     0.65215   0.11291   0.49409   0.00000  Uiso   1.00
H98    H     0.57012   0.01354   0.25335   0.00000  Uiso   1.00
N99    N     0.64908   0.18074   0.26416   0.00000  Uiso   1.00
N100   N     0.35092   0.15259   0.23584   0.00000  Uiso   1.00
N101   N     0.35798   0.24300   0.33357   0.00000  Uiso   1.00
N102   N     0.54848   0.29769   0.35677   0.00000  Uiso   1.00
O103   O     0.46131   0.23807   0.24633   0.00000  Uiso   1.00
O104   O     0.56191   0.24755   0.25587   0.00000  Uiso   1.00
O105   O     0.42515   0.15960   0.31839   0.00000  Uiso   1.00
O106   O     0.52575   0.16908   0.32793   0.00000  Uiso   1.00
O107   O     0.43809   0.08578   0.24413   0.00000  Uiso   1.00
O108   O     0.53869   0.09526   0.25367   0.00000  Uiso   1.00
O109   O     0.47425   0.16425   0.17207   0.00000  Uiso   1.00
O110   O     0.57485   0.17373   0.18161   0.00000  Uiso   1.00
C111   C     0.84892   0.26671   0.25037   0.00000  Uiso   1.00
C112   C     0.77896   0.16674   0.40401   0.00000  Uiso   1.00
C113   C     0.85773   0.32278   0.24994   0.00000  Uiso   1.00
C114   C     0.79988   0.16629   0.34741   0.00000  Uiso   1.00
C115   C     0.81014   0.01048   0.24639   0.00000  Uiso   1.00
C116   C     0.81833   0.06658   0.24793   0.00000  Uiso   1.00
C117   C     0.86708   0.16931   0.15290   0.00000  Uiso   1.00
C118   C     0.95483   0.23424   0.03156   0.00000  Uiso   1.00
C119   C     0.88863   0.17713   0.09768   0.00000  Uiso   1.00
C120   C     0.71768   0.14033   0.42525   0.00000  Uiso   1.00
C121   C     0.70009   0.13146   0.47762   0.00000  Uiso   1.00
C122   C     0.80780   0.16777   0.48746   0.00000  Uiso   1.00
C123   C     0.74472   0.14421   0.00841   0.00000  Uiso   1.00
C124   C     0.67250   0.21453   0.30189   0.00000  Uiso   1.00
C125   C     0.81349   0.09507   0.07194   0.00000  Uiso   1.00
C126   C     0.85450   0.05813   0.08091   0.00000  Uiso   1.00
C127   C     0.81717   0.00113   0.08692   0.00000  Uiso   1.00
C128   C     0.87871   0.26628   0.38582   0.00000  Uiso   1.00
C129   C     0.82157   0.18722   0.43718   0.00000  Uiso   1.00
C130   C     0.85576   0.17784   0.01678   0.00000  Uiso   1.00
C131   C     0.91080   0.21720   0.00023   0.00000  Uiso   1.00
C132   C     0.91948   0.24219   0.45434   0.00000  Uiso   1.00
C133   C     0.87514   0.22858   0.42345   0.00000  Uiso   1.00
C134   C     0.85088   0.15182   0.06276   0.00000  Uiso   1.00
C135   C     0.94224   0.21621   0.08097   0.00000  Uiso   1.00
Cu136  Cu    0.77377   0.16105   0.24435   0.00000  Uiso   1.00
Cu137  Cu    0.89290   0.17228   0.25565   0.00000  Uiso   1.00
H138   H     0.97292   0.23452   0.10687   0.00000  Uiso   1.00
H139   H     0.77721   0.33204   0.12035   0.00000  Uiso   1.00
H140   H     0.79909   0.31939   0.05156   0.00000  Uiso   1.00
H141   H     0.84799   0.30896   0.09349   0.00000  Uiso   1.00
H142   H     0.89454   0.05922   0.04771   0.00000  Uiso   1.00
H143   H     0.87353   0.07090   0.11620   0.00000  Uiso   1.00
H144   H     0.77370   0.09447   0.10524   0.00000  Uiso   1.00
H145   H     0.79419   0.07778   0.03778   0.00000  Uiso   1.00
H146   H     0.76447   0.31974   0.24280   0.00000  Uiso   1.00
H147   H     0.99710   0.12782   0.20910   0.00000  Uiso   1.00
H148   H     0.95966   0.27460   0.44382   0.00000  Uiso   1.00
H149   H     0.99649   0.26475   0.01945   0.00000  Uiso   1.00
H150   H     0.68353   0.12586   0.40127   0.00000  Uiso   1.00
H151   H     0.72890   0.13696   0.04896   0.00000  Uiso   1.00
H152   H     0.98548   0.11291   0.49409   0.00000  Uiso   1.00
H153   H     0.90345   0.01354   0.25335   0.00000  Uiso   1.00
N154   N     0.98241   0.18074   0.26416   0.00000  Uiso   1.00
N155   N     0.68426   0.15259   0.23584   0.00000  Uiso   1.00
N156   N     0.69132   0.24300   0.33357   0.00000  Uiso   1.00
N157   N     0.88181   0.29769   0.35677   0.00000  Uiso   1.00
O158   O     0.79464   0.23807   0.24633   0.00000  Uiso   1.00
O159   O     0.89524   0.24755   0.25587   0.00000  Uiso   1.00
O160   O     0.75848   0.15960   0.31839   0.00000  Uiso   1.00
O161   O     0.85908   0.16908   0.32793   0.00000  Uiso   1.00
O162   O     0.77142   0.08578   0.24413   0.00000  Uiso   1.00
O163   O     0.87203   0.09526   0.25367   0.00000  Uiso   1.00
O164   O     0.80758   0.16425   0.17207   0.00000  Uiso   1.00
O165   O     0.90819   0.17373   0.18161   0.00000  Uiso   1.00
C166   C     0.18226   0.60004   0.25037   0.00000  Uiso   1.00
C167   C     0.11230   0.50007   0.40401   0.00000  Uiso   1.00
C168   C     0.19107   0.65612   0.24994   0.00000  Uiso   1.00
C169   C     0.13321   0.49963   0.34741   0.00000  Uiso   1.00
C170   C     0.14347   0.34381   0.24639   0.00000  Uiso   1.00
C171   C     0.15167   0.39992   0.24793   0.00000  Uiso   1.00
C172   C     0.20041   0.50264   0.15290   0.00000  Uiso   1.00
C173   C     0.28816   0.56757   0.03156   0.00000  Uiso   1.00
C174   C     0.22196   0.51047   0.09768   0.00000  Uiso   1.00
C175   C     0.05101   0.47366   0.42525   0.00000  Uiso   1.00
C176   C     0.03342   0.46480   0.47762   0.00000  Uiso   1.00
C177   C     0.14113   0.50111   0.48746   0.00000  Uiso   1.00
C178   C     0.07805   0.47754   0.00841   0.00000  Uiso   1.00
C179   C     0.00583   0.54786   0.30189   0.00000  Uiso   1.00
C180   C     0.14682   0.42840   0.07194   0.00000  Uiso   1.00
C181   C     0.18783   0.39146   0.08091   0.00000  Uiso   1.00
C182   C     0.15051   0.33446   0.08692   0.00000  Uiso   1.00
C183   C     0.21204   0.59961   0.38582   0.00000  Uiso   1.00
C184   C     0.15490   0.52055   0.43718   0.00000  Uiso   1.00
C185   C     0.18910   0.51118   0.01678   0.00000  Uiso   1.00
C186   C     0.24413   0.55054   0.00023   0.00000  Uiso   1.00
C187   C     0.25281   0.57553   0.45434   0.00000  Uiso   1.00
C188   C     0.20847   0.56191   0.42345   0.00000  Uiso   1.00
C189   C     0.18421   0.48516   0.06276   0.00000  Uiso   1.00
C190   C     0.27557   0.54954   0.08097   0.00000  Uiso   1.00
Cu191  Cu    0.10710   0.49439   0.24435   0.00000  Uiso   1.00
Cu192  Cu    0.22623   0.50561   0.25565   0.00000  Uiso   1.00
H193   H     0.30626   0.56785   0.10687   0.00000  Uiso   1.00
H194   H     0.11054   0.66537   0.12035   0.00000  Uiso   1.00
H195   H     0.13242   0.65273   0.05156   0.00000  Uiso   1.00
H196   H     0.18132   0.64230   0.09349   0.00000  Uiso   1.00
H197   H     0.22788   0.39255   0.04771   0.00000  Uiso   1.00
H198   H     0.20686   0.40423   0.11620   0.00000  Uiso   1.00
H199   H     0.10704   0.42780   0.10524   0.00000  Uiso   1.00
H200   H     0.12752   0.41111   0.03778   0.00000  Uiso   1.00
H201   H     0.09781   0.65308   0.24280   0.00000  Uiso   1.00
H202   H     0.33043   0.46115   0.20910   0.00000  Uiso   1.00
H203   H     0.29300   0.60794   0.44382   0.00000  Uiso   1.00
H204   H     0.32982   0.59808   0.01945   0.00000  Uiso   1.00
H205   H     0.01686   0.45920   0.40127   0.00000  Uiso   1.00
H206   H     0.06223   0.47029   0.04896   0.00000  Uiso   1.00
H207   H     0.31882   0.44625   0.49409   0.00000  Uiso   1.00
H208   H     0.23678   0.34687   0.25335   0.00000  Uiso   1.00
N209   N     0.31574   0.51407   0.26416   0.00000  Uiso   1.00
N210   N     0.01759   0.48593   0.23584   0.00000  Uiso   1.00
N211   N     0.02465   0.57633   0.33357   0.00000  Uiso   1.00
N212   N     0.21515   0.63102   0.35677   0.00000  Uiso   1.00
O213   O     0.12797   0.57141   0.24633   0.00000  Uiso   1.00
O214   O     0.22858   0.58089   0.25587   0.00000  Uiso   1.00
O215   O     0.09181   0.49293   0.31839   0.00000  Uiso   1.00
O216   O     0.19242   0.50241   0.32793   0.00000  Uiso   1.00
O217   O     0.10476   0.41911   0.24413   0.00000  Uiso   1.00
O218   O     0.20536   0.42859   0.25367   0.00000  Uiso   1.00
O219   O     0.14092   0.49759   0.17207   0.00000  Uiso   1.00
O220   O     0.24152   0.50707   0.18161   0.00000  Uiso   1.00
C221   C     0.51559   0.60004   0.25037   0.00000  Uiso   1.00
C222   C     0.44563   0.50007   0.40401   0.00000  Uiso   1.00
C223   C     0.52440   0.65612   0.24994   0.00000  Uiso   1.00
C224   C     0.46655   0.49963   0.34741   0.00000  Uiso   1.00
C225   C     0.47680   0.34381   0.24639   0.00000  Uiso   1.00
C226   C     0.48500   0.39992   0.24793   0.00000  Uiso   1.00
C227   C     0.53374   0.50264   0.15290   0.00000  Uiso   1.00
C228   C     0.62150   0.56757   0.03156   0.00000  Uiso   1.00
C229   C     0.55529   0.51047   0.09768   0.00000  Uiso   1.00
C230   C     0.38435   0.47366   0.42525   0.00000  Uiso   1.00
C231   C     0.36675   0.46480   0.47762   0.00000  Uiso   1.00
C232   C     0.47446   0.50111   0.48746   0.00000  Uiso   1.00
C233   C     0.41139   0.47754   0.00841   0.00000  Uiso   1.00
C234   C     0.33917   0.54786   0.30189   0.00000  Uiso   1.00
C235   C     0.48016   0.42840   0.07194   0.00000  Uiso   1.00
C236   C     0.52117   0.39146   0.08091   0.00000  Uiso   1.00
C237   C     0.48384   0.33446   0.08692   0.00000  Uiso   1.00
C238   C     0.54537   0.59961   0.38582   0.00000  Uiso   1.00
C239   C     0.48824   0.52055   0.43718   0.00000  Uiso   1.00
C240   C     0.52243   0.51118   0.01678   0.00000  Uiso   1.00
C241   C     0.57746   0.55054   0.00023   0.00000  Uiso   1.00
C242   C     0.58615   0.57553   0.45434   0.00000  Uiso   1.00
C243   C     0.54180   0.56191   0.42345   0.00000  Uiso   1.00
C244   C     0.51754   0.48516   0.06276   0.00000  Uiso   1.00
C245   C     0.60890   0.54954   0.08097   0.00000  Uiso   1.00
Cu246  Cu    0.44043   0.49439   0.24435   0.00000  Uiso   1.00
Cu247  Cu    0.55957   0.50561   0.25565   0.00000  Uiso   1.00
H248   H     0.63959   0.56785   0.10687   0.00000  Uiso   1.00
H249   H     0.44388   0.66537   0.12035   0.00000  Uiso   1.00
H250   H     0.46575   0.65273   0.05156   0.00000  Uiso   1.00
H251   H     0.51465   0.64230   0.09349   0.00000  Uiso   1.00
H252   H     0.56121   0.39255   0.04771   0.00000  Uiso   1.00
H253   H     0.54019   0.40423   0.11620   0.00000  Uiso   1.00
H254   H     0.44037   0.42780   0.10524   0.00000  Uiso   1.00
H255   H     0.46085   0.41111   0.03778   0.00000  Uiso   1.00
H256   H     0.43114   0.65308   0.24280   0.00000  Uiso   1.00
H257   H     0.66376   0.46115   0.20910   0.00000  Uiso   1.00
H258   H     0.62633   0.60794   0.44382   0.00000  Uiso   1.00
H259   H     0.66316   0.59808   0.01945   0.00000  Uiso   1.00
H260   H     0.35019   0.45920   0.40127   0.00000  Uiso   1.00
H261   H     0.39557   0.47029   0.04896   0.00000  Uiso   1.00
H262   H     0.65215   0.44625   0.49409   0.00000  Uiso   1.00
H263   H     0.57012   0.34687   0.25335   0.00000  Uiso   1.00
N264   N     0.64908   0.51407   0.26416   0.00000  Uiso   1.00
N265   N     0.35092   0.48593   0.23584   0.00000  Uiso   1.00
N266   N     0.35798   0.57633   0.33357   0.00000  Uiso   1.00
N267   N     0.54848   0.63102   0.35677   0.00000  Uiso   1.00
O268   O     0.46131   0.57141   0.24633   0.00000  Uiso   1.00
O269   O     0.56191   0.58089   0.25587   0.00000  Uiso   1.00
O270   O     0.42515   0.49293   0.31839   0.00000  Uiso   1.00
O271   O     0.52575   0.50241   0.32793   0.00000  Uiso   1.00
O272   O     0.43809   0.41911   0.24413   0.00000  Uiso   1.00
O273   O     0.53869   0.42859   0.25367   0.00000  Uiso   1.00
O274   O     0.47425   0.49759   0.17207   0.00000  Uiso   1.00
O275   O     0.57485   0.50707   0.18161   0.00000  Uiso   1.00
C276   C     0.84892   0.60004   0.25037   0.00000  Uiso   1.00
C277   C     0.77896   0.50007   0.40401   0.00000  Uiso   1.00
C278   C     0.85773   0.65612   0.24994   0.00000  Uiso   1.00
C279   C     0.79988   0.49963   0.34741   0.00000  Uiso   1.00
C280   C     0.81014   0.34381   0.24639   0.00000  Uiso   1.00
C281   C     0.81833   0.39992   0.24793   0.00000  Uiso   1.00
C282   C     0.86708   0.50264   0.15290   0.00000  Uiso   1.00
C283   C     0.95483   0.56757   0.03156   0.00000  Uiso   1.00
C284   C     0.88863   0.51047   0.09768   0.00000  Uiso   1.00
C285   C     0.71768   0.47366   0.42525   0.00000  Uiso   1.00
C286   C     0.70009   0.46480   0.47762   0.00000  Uiso   1.00
C287   C     0.80780   0.50111   0.48746   0.00000  Uiso   1.00
C288   C     0.74472   0.47754   0.00841   0.00000  Uiso   1.00
C289   C     0.67250   0.54786   0.30189   0.00000  Uiso   1.00
C290   C     0.81349   0.42840   0.07194   0.00000  Uiso   1.00
C291   C     0.85450   0.39146   0.08091   0.00000  Uiso   1.00
C292   C     0.81717   0.33446   0.08692   0.00000  Uiso   1.00
C293   C     0.87871   0.59961   0.38582   0.00000  Uiso   1.00
C294   C     0.82157   0.52055   0.43718   0.00000  Uiso   1.00
C295   C     0.85576   0.51118   0.01678   0.00000  Uiso   1.00
C296   C     0.91080   0.55054   0.00023   0.00000  Uiso   1.00
C297   C     0.91948   0.57553   0.45434   0.00000  Uiso   1.00
C298   C     0.87514   0.56191   0.42345   0.00000  Uiso   1.00
C299   C     0.85088   0.48516   0.06276   0.00000  Uiso   1.00
C300   C     0.94224   0.54954   0.08097   0.00000  Uiso   1.00
Cu301  Cu    0.77377   0.49439   0.24435   0.00000  Uiso   1.00
Cu302  Cu    0.89290   0.50561   0.25565   0.00000  Uiso   1.00
H303   H     0.97292   0.56785   0.10687   0.00000  Uiso   1.00
H304   H     0.77721   0.66537   0.12035   0.00000  Uiso   1.00
H305   H     0.79909   0.65273   0.05156   0.00000  Uiso   1.00
H306   H     0.84799   0.64230   0.09349   0.00000  Uiso   1.00
H307   H     0.89454   0.39255   0.04771   0.00000  Uiso   1.00
H308   H     0.87353   0.40423   0.11620   0.00000  Uiso   1.00
H309   H     0.77370   0.42780   0.10524   0.00000  Uiso   1.00
H310   H     0.79419   0.41111   0.03778   0.00000  Uiso   1.00
H311   H     0.76447   0.65308   0.24280   0.00000  Uiso   1.00
H312   H     0.99710   0.46115   0.20910   0.00000  Uiso   1.00
H313   H     0.95966   0.60794   0.44382   0.00000  Uiso   1.00
H314   H     0.99649   0.59808   0.01945   0.00000  Uiso   1.00
H315   H     0.68353   0.45920   0.40127   0.00000  Uiso   1.00
H316   H     0.72890   0.47029   0.04896   0.00000  Uiso   1.00
H317   H     0.98548   0.44625   0.49409   0.00000  Uiso   1.00
H318   H     0.90345   0.34687   0.25335   0.00000  Uiso   1.00
N319   N     0.98241   0.51407   0.26416   0.00000  Uiso   1.00
N320   N     0.68426   0.48593   0.23584   0.00000  Uiso   1.00
N321   N     0.69132   0.57633   0.33357   0.00000  Uiso   1.00
N322   N     0.88181   0.63102   0.35677   0.00000  Uiso   1.00
O323   O     0.79464   0.57141   0.24633   0.00000  Uiso   1.00
O324   O     0.89524   0.58089   0.25587   0.00000  Uiso   1.00
O325   O     0.75848   0.49293   0.31839   0.00000  Uiso   1.00
O326   O     0.85908   0.50241   0.32793   0.00000  Uiso   1.00
O327   O     0.77142   0.41911   0.24413   0.00000  Uiso   1.00
O328   O     0.87203   0.42859   0.25367   0.00000  Uiso   1.00
O329   O     0.80758   0.49759   0.17207   0.00000  Uiso   1.00
O330   O     0.90819   0.50707   0.18161   0.00000  Uiso   1.00
C331   C     0.18226   0.93338   0.25037   0.00000  Uiso   1.00
C332   C     0.11230   0.83341   0.40401   0.00000  Uiso   1.00
C333   C     0.19107   0.98945   0.24994   0.00000  Uiso   1.00
C334   C     0.13321   0.83296   0.34741   0.00000  Uiso   1.00
C335   C     0.14347   0.67714   0.24639   0.00000  Uiso   1.00
C336   C     0.15167   0.73325   0.24793   0.00000  Uiso   1.00
C337   C     0.20041   0.83597   0.15290   0.00000  Uiso   1.00
C338   C     0.28816   0.90091   0.03156   0.00000  Uiso   1.00
C339   C     0.22196   0.84380   0.09768   0.00000  Uiso   1.00
C340   C     0.05101   0.80699   0.42525   0.00000  Uiso   1.00
C341   C     0.03342   0.79813   0.47762   0.00000  Uiso   1.00
C342   C     0.14113   0.83444   0.48746   0.00000  Uiso   1.00
C343   C     0.07805   0.81088   0.00841   0.00000  Uiso   1.00
C344   C     0.00583   0.88119   0.30189   0.00000  Uiso   1.00
C345   C     0.14682   0.76173   0.07194   0.00000  Uiso   1.00
C346   C     0.18783   0.72480   0.08091   0.00000  Uiso   1.00
C347   C     0.15051   0.66780   0.08692   0.00000  Uiso   1.00
C348   C     0.21204   0.93295   0.38582   0.00000  Uiso   1.00
C349   C     0.15490   0.85388   0.43718   0.00000  Uiso   1.00
C350   C     0.18910   0.84451   0.01678   0.00000  Uiso   1.00
C351   C     0.24413   0.88387   0.00023   0.00000  Uiso   1.00
C352   C     0.25281   0.90886   0.45434   0.00000  Uiso   1.00
C353   C     0.20847   0.89524   0.42345   0.00000  Uiso   1.00
C354   C     0.18421   0.81849   0.06276   0.00000  Uiso   1.00
C355   C     0.27557   0.88288   0.08097   0.00000  Uiso   1.00
Cu356  Cu    0.10710   0.82772   0.24435   0.00000  Uiso   1.00
Cu357  Cu    0.22623   0.83895   0.25565   0.00000  Uiso   1.00
H358   H     0.30626   0.90118   0.10687   0.00000  Uiso   1.00
H359   H     0.11054   0.99870   0.12035   0.00000  Uiso   1.00
H360   H     0.13242   0.98606   0.05156   0.00000  Uiso   1.00
H361   H     0.18132   0.97563   0.09349   0.00000  Uiso   1.00
H362   H     0.22788   0.72589   0.04771   0.00000  Uiso   1.00
H363   H     0.20686   0.73756   0.11620   0.00000  Uiso   1.00
H364   H     0.10704   0.76113   0.10524   0.00000  Uiso   1.00
H365   H     0.12752   0.74445   0.03778   0.00000  Uiso   1.00
H366   H     0.09781   0.98641   0.24280   0.00000  Uiso   1.00
H367   H     0.33043   0.79448   0.20910   0.00000  Uiso   1.00
H368   H     0.29300   0.94127   0.44382   0.00000  Uiso   1.00
H369   H     0.32982   0.93142   0.01945   0.00000  Uiso   1.00
H370   H     0.01686   0.79253   0.40127   0.00000  Uiso   1.00
H371   H     0.06223   0.80362   0.04896   0.00000  Uiso   1.00
H372   H     0.31882   0.77958   0.49409   0.00000  Uiso   1.00
H373   H     0.23678   0.68020   0.25335   0.00000  Uiso   1.00
N374   N     0.31574   0.84741   0.26416   0.00000  Uiso   1.00
N375   N     0.01759   0.81926   0.23584   0.00000  Uiso   1.00
N376   N     0.02465   0.90966   0.33357   0.00000  Uiso   1.00
N377   N     0.21515   0.96436   0.35677   0.00000  Uiso   1.00
O378   O     0.12797   0.90474   0.24633   0.00000  Uiso   1.00
O379   O     0.22858   0.91422   0.25587   0.00000  Uiso   1.00
O380   O     0.09181   0.82627   0.31839   0.00000  Uiso   1.00
O381   O     0.19242   0.83575   0.32793   0.00000  Uiso   1.00
O382   O     0.10476   0.75245   0.24413   0.00000  Uiso   1.00
O383   O     0.20536   0.76193   0.25367   0.00000  Uiso   1.00
O384   O     0.14092   0.83092   0.17207   0.00000  Uiso   1.00
O385   O     0.24152   0.84040   0.18161   0.00000  Uiso   1.00
C386   C     0.51559   0.93338   0.25037   0.00000  Uiso   1.00
C387   C     0.44563   0.83341   0.40401   0.00000  Uiso   1.00
C388   C     0.52440   0.98945   0.24994   0.00000  Uiso   1.00
C389   C     0.46655   0.83296   0.34741   0.00000  Uiso   1.00
C390   C     0.47680   0.67714   0.24639   0.00000  Uiso   1.00
C391   C     0.48500   0.73325   0.24793   0.00000  Uiso   1.00
C392   C     0.53374   0.83597   0.15290   0.00000  Uiso   1.00
C393   C     0.62150   0.90091   0.03156   0.00000  Uiso   1.00
C394   C     0.55529   0.84380   0.09768   0.00000  Uiso   1.00
C395   C     0.38435   0.80699   0.42525   0.00000  Uiso   1.00
C396   C     0.36675   0.79813   0.47762   0.00000  Uiso   1.00
C397   C     0.47446   0.83444   0.48746   0.00000  Uiso   1.00
C398   C     0.41139   0.81088   0.00841   0.00000  Uiso   1.00
C399   C     0.33917   0.88119   0.30189   0.00000  Uiso   1.00
C400   C     0.48016   0.76173   0.07194   0.00000  Uiso   1.00
C401   C     0.52117   0.72480   0.08091   0.00000  Uiso   1.00
C402   C     0.48384   0.66780   0.08692   0.00000  Uiso   1.00
C403   C     0.54537   0.93295   0.38582   0.00000  Uiso   1.00
C404   C     0.48824   0.85388   0.43718   0.00000  Uiso   1.00
C405   C     0.52243   0.84451   0.01678   0.00000  Uiso   1.00
C406   C     0.57746   0.88387   0.00023   0.00000  Uiso   1.00
C407   C     0.58615   0.90886   0.45434   0.00000  Uiso   1.00
C408   C     0.54180   0.89524   0.42345   0.00000  Uiso   1.00
C409   C     0.51754   0.81849   0.06276   0.00000  Uiso   1.00
C410   C     0.60890   0.88288   0.08097   0.00000  Uiso   1.00
Cu411  Cu    0.44043   0.82772   0.24435   0.00000  Uiso   1.00
Cu412  Cu    0.55957   0.83895   0.25565   0.00000  Uiso   1.00
H413   H     0.63959   0.90118   0.10687   0.00000  Uiso   1.00
H414   H     0.44388   0.99870   0.12035   0.00000  Uiso   1.00
H415   H     0.46575   0.98606   0.05156   0.00000  Uiso   1.00
H416   H     0.51465   0.97563   0.09349   0.00000  Uiso   1.00
H417   H     0.56121   0.72589   0.04771   0.00000  Uiso   1.00
H418   H     0.54019   0.73756   0.11620   0.00000  Uiso   1.00
H419   H     0.44037   0.76113   0.10524   0.00000  Uiso   1.00
H420   H     0.46085   0.74445   0.03778   0.00000  Uiso   1.00
H421   H     0.43114   0.98641   0.24280   0.00000  Uiso   1.00
H422   H     0.66376   0.79448   0.20910   0.00000  Uiso   1.00
H423   H     0.62633   0.94127   0.44382   0.00000  Uiso   1.00
H424   H     0.66316   0.93142   0.01945   0.00000  Uiso   1.00
H425   H     0.35019   0.79253   0.40127   0.00000  Uiso   1.00
H426   H     0.39557   0.80362   0.04896   0.00000  Uiso   1.00
H427   H     0.65215   0.77958   0.49409   0.00000  Uiso   1.00
H428   H     0.57012   0.68020   0.25335   0.00000  Uiso   1.00
N429   N     0.64908   0.84741   0.26416   0.00000  Uiso   1.00
N430   N     0.35092   0.81926   0.23584   0.00000  Uiso   1.00
N431   N     0.35798   0.90966   0.33357   0.00000  Uiso   1.00
N432   N     0.54848   0.96436   0.35677   0.00000  Uiso   1.00
O433   O     0.46131   0.90474   0.24633   0.00000  Uiso   1.00
O434   O     0.56191   0.91422   0.25587   0.00000  Uiso   1.00
O435   O     0.42515   0.82627   0.31839   0.00000  Uiso   1.00
O436   O     0.52575   0.83575   0.32793   0.00000  Uiso   1.00
O437   O     0.43809   0.75245   0.24413   0.00000  Uiso   1.00
O438   O     0.53869   0.76193   0.25367   0.00000  Uiso   1.00
O439   O     0.47425   0.83092   0.17207   0.00000  Uiso   1.00
O440   O     0.57485   0.84040   0.18161   0.00000  Uiso   1.00
C441   C     0.84892   0.93338   0.25037   0.00000  Uiso   1.00
C442   C     0.77896   0.83341   0.40401   0.00000  Uiso   1.00
C443   C     0.85773   0.98945   0.24994   0.00000  Uiso   1.00
C444   C     0.79988   0.83296   0.34741   0.00000  Uiso   1.00
C445   C     0.81014   0.67714   0.24639   0.00000  Uiso   1.00
C446   C     0.81833   0.73325   0.24793   0.00000  Uiso   1.00
C447   C     0.86708   0.83597   0.15290   0.00000  Uiso   1.00
C448   C     0.95483   0.90091   0.03156   0.00000  Uiso   1.00
C449   C     0.88863   0.84380   0.09768   0.00000  Uiso   1.00
C450   C     0.71768   0.80699   0.42525   0.00000  Uiso   1.00
C451   C     0.70009   0.79813   0.47762   0.00000  Uiso   1.00
C452   C     0.80780   0.83444   0.48746   0.00000  Uiso   1.00
C453   C     0.74472   0.81088   0.00841   0.00000  Uiso   1.00
C454   C     0.67250   0.88119   0.30189   0.00000  Uiso   1.00
C455   C     0.81349   0.76173   0.07194   0.00000  Uiso   1.00
C456   C     0.85450   0.72480   0.08091   0.00000  Uiso   1.00
C457   C     0.81717   0.66780   0.08692   0.00000  Uiso   1.00
C458   C     0.87871   0.93295   0.38582   0.00000  Uiso   1.00
C459   C     0.82157   0.85388   0.43718   0.00000  Uiso   1.00
C460   C     0.85576   0.84451   0.01678   0.00000  Uiso   1.00
C461   C     0.91080   0.88387   0.00023   0.00000  Uiso   1.00
C462   C     0.91948   0.90886   0.45434   0.00000  Uiso   1.00
C463   C     0.87514   0.89524   0.42345   0.00000  Uiso   1.00
C464   C     0.85088   0.81849   0.06276   0.00000  Uiso   1.00
C465   C     0.94224   0.88288   0.08097   0.00000  Uiso   1.00
Cu466  Cu    0.77377   0.82772   0.24435   0.00000  Uiso   1.00
Cu467  Cu    0.89290   0.83895   0.25565   0.00000  Uiso   1.00
H468   H     0.97292   0.90118   0.10687   0.00000  Uiso   1.00
H469   H     0.77721   0.99870   0.12035   0.00000  Uiso   1.00
H470   H     0.79909   0.98606   0.05156   0.00000  Uiso   1.00
H471   H     0.84799   0.97563   0.09349   0.00000  Uiso   1.00
H472   H     0.89454   0.72589   0.04771   0.00000  Uiso   1.00
H473   H     0.87353   0.73756   0.11620   0.00000  Uiso   1.00
H474   H     0.77370   0.76113   0.10524   0.00000  Uiso   1.00
H475   H     0.79419   0.74445   0.03778   0.00000  Uiso   1.00
H476   H     0.76447   0.98641   0.24280   0.00000  Uiso   1.00
H477   H     0.99710   0.79448   0.20910   0.00000  Uiso   1.00
H478   H     0.95966   0.94127   0.44382   0.00000  Uiso   1.00
H479   H     0.99649   0.93142   0.01945   0.00000  Uiso   1.00
H480   H     0.68353   0.79253   0.40127   0.00000  Uiso   1.00
H481   H     0.72890   0.80362   0.04896   0.00000  Uiso   1.00
H482   H     0.98548   0.77958   0.49409   0.00000  Uiso   1.00
H483   H     0.90345   0.68020   0.25335   0.00000  Uiso   1.00
N484   N     0.98241   0.84741   0.26416   0.00000  Uiso   1.00
N485   N     0.68426   0.81926   0.23584   0.00000  Uiso   1.00
N486   N     0.69132   0.90966   0.33357   0.00000  Uiso   1.00
N487   N     0.88181   0.96436   0.35677   0.00000  Uiso   1.00
O488   O     0.79464   0.90474   0.24633   0.00000  Uiso   1.00
O489   O     0.89524   0.91422   0.25587   0.00000  Uiso   1.00
O490   O     0.75848   0.82627   0.31839   0.00000  Uiso   1.00
O491   O     0.85908   0.83575   0.32793   0.00000  Uiso   1.00
O492   O     0.77142   0.75245   0.24413   0.00000  Uiso   1.00
O493   O     0.87203   0.76193   0.25367   0.00000  Uiso   1.00
O494   O     0.80758   0.83092   0.17207   0.00000  Uiso   1.00
O495   O     0.90819   0.84040   0.18161   0.00000  Uiso   1.00
C496   C     0.18226   0.26671   0.75037   0.00000  Uiso   1.00
C497   C     0.11230   0.16674   0.90401   0.00000  Uiso   1.00
C498   C     0.19107   0.32278   0.74994   0.00000  Uiso   1.00
C499   C     0.13321   0.16629   0.84741   0.00000  Uiso   1.00
C500   C     0.14347   0.01048   0.74639   0.00000  Uiso   1.00
C501   C     0.15167   0.06658   0.74793   0.00000  Uiso   1.00
C502   C     0.20041   0.16931   0.65290   0.00000  Uiso   1.00
C503   C     0.28816   0.23424   0.53156   0.00000  Uiso   1.00
C504   C     0.22196   0.17713   0.59768   0.00000  Uiso   1.00
C505   C     0.05101   0.14033   0.92525   0.00000  Uiso   1.00
C506   C     0.03342   0.13146   0.97762   0.00000  Uiso   1.00
C507   C     0.14113   0.16777   0.98746   0.00000  Uiso   1.00
C508   C     0.07805   0.14421   0.50841   0.00000  Uiso   1.00
C509   C     0.00583   0.21453   0.80189   0.00000  Uiso   1.00
C510   C     0.14682   0.09507   0.57194   0.00000  Uiso   1.00
C511   C     0.18783   0.05813   0.58091   0.00000  Uiso   1.00
C512   C     0.15051   0.00113   0.58692   0.00000  Uiso   1.00
C513   C     0.21204   0.26628   0.88582   0.00000  Uiso   1.00
C514   C     0.15490   0.18722   0.93718   0.00000  Uiso   1.00
C515   C     0.18910   0.17784   0.51678   0.00000  Uiso   1.00
C516   C     0.24413   0.21720   0.50023   0.00000  Uiso   1.00
C517   C     0.25281   0.24219   0.95434   0.00000  Uiso   1.00
C518   C     0.20847   0.22858   0.92345   0.00000  Uiso   1.00
C519   C     0.18421   0.15182   0.56276   0.00000  Uiso   1.00
C520   C     0.27557   0.21621   0.58097   0.00000  Uiso   1.00
Cu521  Cu    0.10710   0.16105   0.74435   0.00000  Uiso   1.00
Cu522  Cu    0.22623   0.17228   0.75565   0.00000  Uiso   1.00
H523   H     0.30626   0.23452   0.60687   0.00000  Uiso   1.00
H524   H     0.11054   0.33204   0.62035   0.00000  Uiso   1.00
H525   H     0.13242   0.31939   0.55156   0.00000  Uiso   1.00
H526   H     0.18132   0.30896   0.59349   0.00000  Uiso   1.00
H527   H     0.22788   0.05922   0.54771   0.00000  Uiso   1.00
H528   H     0.20686   0.07090   0.61620   0.00000  Uiso   1.00
H529   H     0.10704   0.09447   0.60524   0.00000  Uiso   1.00
H530   H     0.12752   0.07778   0.53778   0.00000  Uiso   1.00
H531   H     0.09781   0.31974   0.74280   0.00000  Uiso   1.00
H532   H     0.33043   0.12782   0.70910   0.00000  Uiso   1.00
H533   H     0.29300   0.27460   0.94382   0.00000  Uiso   1.00
H534   H     0.32982   0.26475   0.51945   0.00000  Uiso   1.00
H535   H     0.01686   0.12586   0.90127   0.00000  Uiso   1.00
H536   H     0.06223   0.13696   0.54896   0.00000  Uiso   1.00
H537   H     0.31882   0.11291   0.99409   0.00000  Uiso   1.00
H538   H     0.23678   0.01354   0.75335   0.00000  Uiso   1.00
N539   N     0.31574   0.18074   0.76416   0.00000  Uiso   1.00
N540   N     0.01759   0.15259   0.73584   0.00000  Uiso   1.00
N541   N     0.02465   0.24300   0.83357   0.00000  Uiso   1.00
N542   N     0.21515   0.29769   0.85677   0.00000  Uiso   1.00
O543   O     0.12797   0.23807   0.74633   0.00000  Uiso   1.00
O544   O     0.22858   0.24755   0.75587   0.00000  Uiso   1.00
O545   O     0.09181   0.15960   0.81839   0.00000  Uiso   1.00
O546   O     0.19242   0.16908   0.82793   0.00000  Uiso   1.00
O547   O     0.10476   0.08578   0.74413   0.00000  Uiso   1.00
O548   O     0.20536   0.09526   0.75367   0.00000  Uiso   1.00
O549   O     0.14092   0.16425   0.67207   0.00000  Uiso   1.00
O550   O     0.24152   0.17373   0.68161   0.00000  Uiso   1.00
C551   C     0.51559   0.26671   0.75037   0.00000  Uiso   1.00
C552   C     0.44563   0.16674   0.90401   0.00000  Uiso   1.00
C553   C     0.52440   0.32278   0.74994   0.00000  Uiso   1.00
C554   C     0.46655   0.16629   0.84741   0.00000  Uiso   1.00
C555   C     0.47680   0.01048   0.74639   0.00000  Uiso   1.00
C556   C     0.48500   0.06658   0.74793   0.00000  Uiso   1.00
C557   C     0.53374   0.16931   0.65290   0.00000  Uiso   1.00
C558   C     0.62150   0.23424   0.53156   0.00000  Uiso   1.00
C559   C     0.55529   0.17713   0.59768   0.00000  Uiso   1.00
C560   C     0.38435   0.14033   0.92525   0.00000  Uiso   1.00
C561   C     0.36675   0.13146   0.97762   0.00000  Uiso   1.00
C562   C     0.47446   0.16777   0.98746   0.00000  Uiso   1.00
C563   C     0.41139   0.14421   0.50841   0.00000  Uiso   1.00
C564   C     0.33917   0.21453   0.80189   0.00000  Uiso   1.00
C565   C     0.48016   0.09507   0.57194   0.00000  Uiso   1.00
C566   C     0.52117   0.05813   0.58091   0.00000  Uiso   1.00
C567   C     0.48384   0.00113   0.58692   0.00000  Uiso   1.00
C568   C     0.54537   0.26628   0.88582   0.00000  Uiso   1.00
C569   C     0.48824   0.18722   0.93718   0.00000  Uiso   1.00
C570   C     0.52243   0.17784   0.51678   0.00000  Uiso   1.00
C571   C     0.57746   0.21720   0.50023   0.00000  Uiso   1.00
C572   C     0.58615   0.24219   0.95434   0.00000  Uiso   1.00
C573   C     0.54180   0.22858   0.92345   0.00000  Uiso   1.00
C574   C     0.51754   0.15182   0.56276   0.00000  Uiso   1.00
C575   C     0.60890   0.21621   0.58097   0.00000  Uiso   1.00
Cu576  Cu    0.44043   0.16105   0.74435   0.00000  Uiso   1.00
Cu577  Cu    0.55957   0.17228   0.75565   0.00000  Uiso   1.00
H578   H     0.63959   0.23452   0.60687   0.00000  Uiso   1.00
H579   H     0.44388   0.33204   0.62035   0.00000  Uiso   1.00
H580   H     0.46575   0.31939   0.55156   0.00000  Uiso   1.00
H581   H     0.51465   0.30896   0.59349   0.00000  Uiso   1.00
H582   H     0.56121   0.05922   0.54771   0.00000  Uiso   1.00
H583   H     0.54019   0.07090   0.61620   0.00000  Uiso   1.00
H584   H     0.44037   0.09447   0.60524   0.00000  Uiso   1.00
H585   H     0.46085   0.07778   0.53778   0.00000  Uiso   1.00
H586   H     0.43114   0.31974   0.74280   0.00000  Uiso   1.00
H587   H     0.66376   0.12782   0.70910   0.00000  Uiso   1.00
H588   H     0.62633   0.27460   0.94382   0.00000  Uiso   1.00
H589   H     0.66316   0.26475   0.51945   0.00000  Uiso   1.00
H590   H     0.35019   0.12586   0.90127   0.00000  Uiso   1.00
H591   H     0.39557   0.13696   0.54896   0.00000  Uiso   1.00
H592   H     0.65215   0.11291   0.99409   0.00000  Uiso   1.00
H593   H     0.57012   0.01354   0.75335   0.00000  Uiso   1.00
N594   N     0.64908   0.18074   0.76416   0.00000  Uiso   1.00
N595   N     0.35092   0.15259   0.73584   0.00000  Uiso   1.00
N596   N     0.35798   0.24300   0.83357   0.00000  Uiso   1.00
N597   N     0.54848   0.29769   0.85677   0.00000  Uiso   1.00
O598   O     0.46131   0.23807   0.74633   0.00000  Uiso   1.00
O599   O     0.56191   0.24755   0.75587   0.00000  Uiso   1.00
O600   O     0.42515   0.15960   0.81839   0.00000  Uiso   1.00
O601   O     0.52575   0.16908   0.82793   0.00000  Uiso   1.00
O602   O     0.43809   0.08578   0.74413   0.00000  Uiso   1.00
O603   O     0.53869   0.09526   0.75367   0.00000  Uiso   1.00
O604   O     0.47425   0.16425   0.67207   0.00000  Uiso   1.00
O605   O     0.57485   0.17373   0.68161   0.00000  Uiso   1.00
C606   C     0.84892   0.26671   0.75037   0.00000  Uiso   1.00
C607   C     0.77896   0.16674   0.90401   0.00000  Uiso   1.00
C608   C     0.85773   0.32278   0.74994   0.00000  Uiso   1.00
C609   C     0.79988   0.16629   0.84741   0.00000  Uiso   1.00
C610   C     0.81014   0.01048   0.74639   0.00000  Uiso   1.00
C611   C     0.81833   0.06658   0.74793   0.00000  Uiso   1.00
C612   C     0.86708   0.16931   0.65290   0.00000  Uiso   1.00
C613   C     0.95483   0.23424   0.53156   0.00000  Uiso   1.00
C614   C     0.88863   0.17713   0.59768   0.00000  Uiso   1.00
C615   C     0.71768   0.14033   0.92525   0.00000  Uiso   1.00
C616   C     0.70009   0.13146   0.97762   0.00000  Uiso   1.00
C617   C     0.80780   0.16777   0.98746   0.00000  Uiso   1.00
C618   C     0.74472   0.14421   0.50841   0.00000  Uiso   1.00
C619   C     0.67250   0.21453   0.80189   0.00000  Uiso   1.00
C620   C     0.81349   0.09507   0.57194   0.00000  Uiso   1.00
C621   C     0.85450   0.05813   0.58091   0.00000  Uiso   1.00
C622   C     0.81717   0.00113   0.58692   0.00000  Uiso   1.00
C623   C     0.87871   0.26628   0.88582   0.00000  Uiso   1.00
C624   C     0.82157   0.18722   0.93718   0.00000  Uiso   1.00
C625   C     0.85576   0.17784   0.51678   0.00000  Uiso   1.00
C626   C     0.91080   0.21720   0.50023   0.00000  Uiso   1.00
C627   C     0.91948   0.24219   0.95434   0.00000  Uiso   1.00
C628   C     0.87514   0.22858   0.92345   0.00000  Uiso   1.00
C629   C     0.85088   0.15182   0.56276   0.00000  Uiso   1.00
C630   C     0.94224   0.21621   0.58097   0.00000  Uiso   1.00
Cu631  Cu    0.77377   0.16105   0.74435   0.00000  Uiso   1.00
Cu632  Cu    0.89290   0.17228   0.75565   0.00000  Uiso   1.00
H633   H     0.97292   0.23452   0.60687   0.00000  Uiso   1.00
H634   H     0.77721   0.33204   0.62035   0.00000  Uiso   1.00
H635   H     0.79909   0.31939   0.55156   0.00000  Uiso   1.00
H636   H     0.84799   0.30896   0.59349   0.00000  Uiso   1.00
H637   H     0.89454   0.05922   0.54771   0.00000  Uiso   1.00
H638   H     0.87353   0.07090   0.61620   0.00000  Uiso   1.00
H639   H     0.77370   0.09447   0.60524   0.00000  Uiso   1.00
H640   H     0.79419   0.07778   0.53778   0.00000  Uiso   1.00
H641   H     0.76447   0.31974   0.74280   0.00000  Uiso   1.00
H642   H     0.99710   0.12782   0.70910   0.00000  Uiso   1.00
H643   H     0.95966   0.27460   0.94382   0.00000  Uiso   1.00
H644   H     0.99649   0.26475   0.51945   0.00000  Uiso   1.00
H645   H     0.68353   0.12586   0.90127   0.00000  Uiso   1.00
H646   H     0.72890   0.13696   0.54896   0.00000  Uiso   1.00
H647   H     0.98548   0.11291   0.99409   0.00000  Uiso   1.00
H648   H     0.90345   0.01354   0.75335   0.00000  Uiso   1.00
N649   N     0.98241   0.18074   0.76416   0.00000  Uiso   1.00
N650   N     0.68426   0.15259   0.73584   0.00000  Uiso   1.00
N651   N     0.69132   0.24300   0.83357   0.00000  Uiso   1.00
N652   N     0.88181   0.29769   0.85677   0.00000  Uiso   1.00
O653   O     0.79464   0.23807   0.74633   0.00000  Uiso   1.00
O654   O     0.89524   0.24755   0.75587   0.00000  Uiso   1.00
O655   O     0.75848   0.15960   0.81839   0.00000  Uiso   1.00
O656   O     0.85908   0.16908   0.82793   0.00000  Uiso   1.00
O657   O     0.77142   0.08578   0.74413   0.00000  Uiso   1.00
O658   O     0.87203   0.09526   0.75367   0.00000  Uiso   1.00
O659   O     0.80758   0.16425   0.67207   0.00000  Uiso   1.00
O660   O     0.90819   0.17373   0.68161   0.00000  Uiso   1.00
C661   C     0.18226   0.60004   0.75037   0.00000  Uiso   1.00
C662   C     0.11230   0.50007   0.90401   0.00000  Uiso   1.00
C663   C     0.19107   0.65612   0.74994   0.00000  Uiso   1.00
C664   C     0.13321   0.49963   0.84741   0.00000  Uiso   1.00
C665   C     0.14347   0.34381   0.74639   0.00000  Uiso   1.00
C666   C     0.15167   0.39992   0.74793   0.00000  Uiso   1.00
C667   C     0.20041   0.50264   0.65290   0.00000  Uiso   1.00
C668   C     0.28816   0.56757   0.53156   0.00000  Uiso   1.00
C669   C     0.22196   0.51047   0.59768   0.00000  Uiso   1.00
C670   C     0.05101   0.47366   0.92525   0.00000  Uiso   1.00
C671   C     0.03342   0.46480   0.97762   0.00000  Uiso   1.00
C672   C     0.14113   0.50111   0.98746   0.00000  Uiso   1.00
C673   C     0.07805   0.47754   0.50841   0.00000  Uiso   1.00
C674   C     0.00583   0.54786   0.80189   0.00000  Uiso   1.00
C675   C     0.14682   0.42840   0.57194   0.00000  Uiso   1.00
C676   C     0.18783   0.39146   0.58091   0.00000  Uiso   1.00
C677   C     0.15051   0.33446   0.58692   0.00000  Uiso   1.00
C678   C     0.21204   0.59961   0.88582   0.00000  Uiso   1.00
C679   C     0.15490   0.52055   0.93718   0.00000  Uiso   1.00
C680   C     0.18910   0.51118   0.51678   0.00000  Uiso   1.00
C681   C     0.24413   0.55054   0.50023   0.00000  Uiso   1.00
C682   C     0.25281   0.57553   0.95434   0.00000  Uiso   1.00
C683   C     0.20847   0.56191   0.92345   0.00000  Uiso   1.00
C684   C     0.18421   0.48516   0.56276   0.00000  Uiso   1.00
C685   C     0.27557   0.54954   0.58097   0.00000  Uiso   1.00
Cu686  Cu    0.10710   0.49439   0.74435   0.00000  Uiso   1.00
Cu687  Cu    0.22623   0.50561   0.75565   0.00000  Uiso   1.00
H688   H     0.30626   0.56785   0.60687   0.00000  Uiso   1.00
H689   H     0.11054   0.66537   0.62035   0.00000  Uiso   1.00
H690   H     0.13242   0.65273   0.55156   0.00000  Uiso   1.00
H691   H     0.18132   0.64230   0.59349   0.00000  Uiso   1.00
H692   H     0.22788   0.39255   0.54771   0.00000  Uiso   1.00
H693   H     0.20686   0.40423   0.61620   0.00000  Uiso   1.00
H694   H     0.10704   0.42780   0.60524   0.00000  Uiso   1.00
H695   H     0.12752   0.41111   0.53778   0.00000  Uiso   1.00
H696   H     0.09781   0.65308   0.74280   0.00000  Uiso   1.00
H697   H     0.33043   0.46115   0.70910   0.00000  Uiso   1.00
H698   H     0.29300   0.60794   0.94382   0.00000  Uiso   1.00
H699   H     0.32982   0.59808   0.51945   0.00000  Uiso   1.00
H700   H     0.01686   0.45920   0.90127   0.00000  Uiso   1.00
H701   H     0.06223   0.47029   0.54896   0.00000  Uiso   1.00
H702   H     0.31882   0.44625   0.99409   0.00000  Uiso   1.00
H703   H     0.23678   0.34687   0.75335   0.00000  Uiso   1.00
N704   N     0.31574   0.51407   0.76416   0.00000  Uiso   1.00
N705   N     0.01759   0.48593   0.73584   0.00000  Uiso   1.00
N706   N     0.02465   0.57633   0.83357   0.00000  Uiso   1.00
N707   N     0.21515   0.63102   0.85677   0.00000  Uiso   1.00
O708   O     0.12797   0.57141   0.74633   0.00000  Uiso   1.00
O709   O     0.22858   0.58089   0.75587   0.00000  Uiso   1.00
O710   O     0.09181   0.49293   0.81839   0.00000  Uiso   1.00
O711   O     0.19242   0.50241   0.82793   0.00000  Uiso   1.00
O712   O     0.10476   0.41911   0.74413   0.00000  Uiso   1.00
O713   O     0.20536   0.42859   0.75367   0.00000  Uiso   1.00
O714   O     0.14092   0.49759   0.67207   0.00000  Uiso   1.00
O715   O     0.24152   0.50707   0.68161   0.00000  Uiso   1.00
C716   C     0.51559   0.60004   0.75037   0.00000  Uiso   1.00
C717   C     0.44563   0.50007   0.90401   0.00000  Uiso   1.00
C718   C     0.52440   0.65612   0.74994   0.00000  Uiso   1.00
C719   C     0.46655   0.49963   0.84741   0.00000  Uiso   1.00
C720   C     0.47680   0.34381   0.74639   0.00000  Uiso   1.00
C721   C     0.48500   0.39992   0.74793   0.00000  Uiso   1.00
C722   C     0.53374   0.50264   0.65290   0.00000  Uiso   1.00
C723   C     0.62150   0.56757   0.53156   0.00000  Uiso   1.00
C724   C     0.55529   0.51047   0.59768   0.00000  Uiso   1.00
C725   C     0.38435   0.47366   0.92525   0.00000  Uiso   1.00
C726   C     0.36675   0.46480   0.97762   0.00000  Uiso   1.00
C727   C     0.47446   0.50111   0.98746   0.00000  Uiso   1.00
C728   C     0.41139   0.47754   0.50841   0.00000  Uiso   1.00
C729   C     0.33917   0.54786   0.80189   0.00000  Uiso   1.00
C730   C     0.48016   0.42840   0.57194   0.00000  Uiso   1.00
C731   C     0.52117   0.39146   0.58091   0.00000  Uiso   1.00
C732   C     0.48384   0.33446   0.58692   0.00000  Uiso   1.00
C733   C     0.54537   0.59961   0.88582   0.00000  Uiso   1.00
C734   C     0.48824   0.52055   0.93718   0.00000  Uiso   1.00
C735   C     0.52243   0.51118   0.51678   0.00000  Uiso   1.00
C736   C     0.57746   0.55054   0.50023   0.00000  Uiso   1.00
C737   C     0.58615   0.57553   0.95434   0.00000  Uiso   1.00
C738   C     0.54180   0.56191   0.92345   0.00000  Uiso   1.00
C739   C     0.51754   0.48516   0.56276   0.00000  Uiso   1.00
C740   C     0.60890   0.54954   0.58097   0.00000  Uiso   1.00
Cu741  Cu    0.44043   0.49439   0.74435   0.00000  Uiso   1.00
Cu742  Cu    0.55957   0.50561   0.75565   0.00000  Uiso   1.00
H743   H     0.63959   0.56785   0.60687   0.00000  Uiso   1.00
H744   H     0.44388   0.66537   0.62035   0.00000  Uiso   1.00
H745   H     0.46575   0.65273   0.55156   0.00000  Uiso   1.00
H746   H     0.51465   0.64230   0.59349   0.00000  Uiso   1.00
H747   H     0.56121   0.39255   0.54771   0.00000  Uiso   1.00
H748   H     0.54019   0.40423   0.61620   0.00000  Uiso   1.00
H749   H     0.44037   0.42780   0.60524   0.00000  Uiso   1.00
H750   H     0.46085   0.41111   0.53778   0.00000  Uiso   1.00
H751   H     0.43114   0.65308   0.74280   0.00000  Uiso   1.00
H752   H     0.66376   0.46115   0.70910   0.00000  Uiso   1.00
H753   H     0.62633   0.60794   0.94382   0.00000  Uiso   1.00
H754   H     0.66316   0.59808   0.51945   0.00000  Uiso   1.00
H755   H     0.35019   0.45920   0.90127   0.00000  Uiso   1.00
H756   H     0.39557   0.47029   0.54896   0.00000  Uiso   1.00
H757   H     0.65215   0.44625   0.99409   0.00000  Uiso   1.00
H758   H     0.57012   0.34687   0.75335   0.00000  Uiso   1.00
N759   N     0.64908   0.51407   0.76416   0.00000  Uiso   1.00
N760   N     0.35092   0.48593   0.73584   0.00000  Uiso   1.00
N761   N     0.35798   0.57633   0.83357   0.00000  Uiso   1.00
N762   N     0.54848   0.63102   0.85677   0.00000  Uiso   1.00
O763   O     0.46131   0.57141   0.74633   0.00000  Uiso   1.00
O764   O     0.56191   0.58089   0.75587   0.00000  Uiso   1.00
O765   O     0.42515   0.49293   0.81839   0.00000  Uiso   1.00
O766   O     0.52575   0.50241   0.82793   0.00000  Uiso   1.00
O767   O     0.43809   0.41911   0.74413   0.00000  Uiso   1.00
O768   O     0.53869   0.42859   0.75367   0.00000  Uiso   1.00
O769   O     0.47425   0.49759   0.67207   0.00000  Uiso   1.00
O770   O     0.57485   0.50707   0.68161   0.00000  Uiso   1.00
C771   C     0.84892   0.60004   0.75037   0.00000  Uiso   1.00
C772   C     0.77896   0.50007   0.90401   0.00000  Uiso   1.00
C773   C     0.85773   0.65612   0.74994   0.00000  Uiso   1.00
C774   C     0.79988   0.49963   0.84741   0.00000  Uiso   1.00
C775   C     0.81014   0.34381   0.74639   0.00000  Uiso   1.00
C776   C     0.81833   0.39992   0.74793   0.00000  Uiso   1.00
C777   C     0.86708   0.50264   0.65290   0.00000  Uiso   1.00
C778   C     0.95483   0.56757   0.53156   0.00000  Uiso   1.00
C779   C     0.88863   0.51047   0.59768   0.00000  Uiso   1.00
C780   C     0.71768   0.47366   0.92525   0.00000  Uiso   1.00
C781   C     0.70009   0.46480   0.97762   0.00000  Uiso   1.00
C782   C     0.80780   0.50111   0.98746   0.00000  Uiso   1.00
C783   C     0.74472   0.47754   0.50841   0.00000  Uiso   1.00
C784   C     0.67250   0.54786   0.80189   0.00000  Uiso   1.00
C785   C     0.81349   0.42840   0.57194   0.00000  Uiso   1.00
C786   C     0.85450   0.39146   0.58091   0.00000  Uiso   1.00
C787   C     0.81717   0.33446   0.58692   0.00000  Uiso   1.00
C788   C     0.87871   0.59961   0.88582   0.00000  Uiso   1.00
C789   C     0.82157   0.52055   0.93718   0.00000  Uiso   1.00
C790   C     0.85576   0.51118   0.51678   0.00000  Uiso   1.00
C791   C     0.91080   0.55054   0.50023   0.00000  Uiso   1.00
C792   C     0.91948   0.57553   0.95434   0.00000  Uiso   1.00
C793   C     0.87514   0.56191   0.92345   0.00000  Uiso   1.00
C794   C     0.85088   0.48516   0.56276   0.00000  Uiso   1.00
C795   C     0.94224   0.54954   0.58097   0.00000  Uiso   1.00
Cu796  Cu    0.77377   0.49439   0.74435   0.00000  Uiso   1.00
Cu797  Cu    0.89290   0.50561   0.75565   0.00000  Uiso   1.00
H798   H     0.97292   0.56785   0.60687   0.00000  Uiso   1.00
H799   H     0.77721   0.66537   0.62035   0.00000  Uiso   1.00
H800   H     0.79909   0.65273   0.55156   0.00000  Uiso   1.00
H801   H     0.84799   0.64230   0.59349   0.00000  Uiso   1.00
H802   H     0.89454   0.39255   0.54771   0.00000  Uiso   1.00
H803   H     0.87353   0.40423   0.61620   0.00000  Uiso   1.00
H804   H     0.77370   0.42780   0.60524   0.00000  Uiso   1.00
H805   H     0.79419   0.41111   0.53778   0.00000  Uiso   1.00
H806   H     0.76447   0.65308   0.74280   0.00000  Uiso   1.00
H807   H     0.99710   0.46115   0.70910   0.00000  Uiso   1.00
H808   H     0.95966   0.60794   0.94382   0.00000  Uiso   1.00
H809   H     0.99649   0.59808   0.51945   0.00000  Uiso   1.00
H810   H     0.68353   0.45920   0.90127   0.00000  Uiso   1.00
H811   H     0.72890   0.47029   0.54896   0.00000  Uiso   1.00
H812   H     0.98548   0.44625   0.99409   0.00000  Uiso   1.00
H813   H     0.90345   0.34687   0.75335   0.00000  Uiso   1.00
N814   N     0.98241   0.51407   0.76416   0.00000  Uiso   1.00
N815   N     0.68426   0.48593   0.73584   0.00000  Uiso   1.00
N816   N     0.69132   0.57633   0.83357   0.00000  Uiso   1.00
N817   N     0.88181   0.63102   0.85677   0.00000  Uiso   1.00
O818   O     0.79464   0.57141   0.74633   0.00000  Uiso   1.00
O819   O     0.89524   0.58089   0.75587   0.00000  Uiso   1.00
O820   O     0.75848   0.49293   0.81839   0.00000  Uiso   1.00
O821   O     0.85908   0.50241   0.82793   0.00000  Uiso   1.00
O822   O     0.77142   0.41911   0.74413   0.00000  Uiso   1.00
O823   O     0.87203   0.42859   0.75367   0.00000  Uiso   1.00
O824   O     0.80758   0.49759   0.67207   0.00000  Uiso   1.00
O825   O     0.90819   0.50707   0.68161   0.00000  Uiso   1.00
C826   C     0.18226   0.93338   0.75037   0.00000  Uiso   1.00
C827   C     0.11230   0.83341   0.90401   0.00000  Uiso   1.00
C828   C     0.19107   0.98945   0.74994   0.00000  Uiso   1.00
C829   C     0.13321   0.83296   0.84741   0.00000  Uiso   1.00
C830   C     0.14347   0.67714   0.74639   0.00000  Uiso   1.00
C831   C     0.15167   0.73325   0.74793   0.00000  Uiso   1.00
C832   C     0.20041   0.83597   0.65290   0.00000  Uiso   1.00
C833   C     0.28816   0.90091   0.53156   0.00000  Uiso   1.00
C834   C     0.22196   0.84380   0.59768   0.00000  Uiso   1.00
C835   C     0.05101   0.80699   0.92525   0.00000  Uiso   1.00
C836   C     0.03342   0.79813   0.97762   0.00000  Uiso   1.00
C837   C     0.14113   0.83444   0.98746   0.00000  Uiso   1.00
C838   C     0.07805   0.81088   0.50841   0.00000  Uiso   1.00
C839   C     0.00583   0.88119   0.80189   0.00000  Uiso   1.00
C840   C     0.14682   0.76173   0.57194   0.00000  Uiso   1.00
C841   C     0.18783   0.72480   0.58091   0.00000  Uiso   1.00
C842   C     0.15051   0.66780   0.58692   0.00000  Uiso   1.00
C843   C     0.21204   0.93295   0.88582   0.00000  Uiso   1.00
C844   C     0.15490   0.85388   0.93718   0.00000  Uiso   1.00
C845   C     0.18910   0.84451   0.51678   0.00000  Uiso   1.00
C846   C     0.24413   0.88387   0.50023   0.00000  Uiso   1.00
C847   C     0.25281   0.90886   0.95434   0.00000  Uiso   1.00
C848   C     0.20847   0.89524   0.92345   0.00000  Uiso   1.00
C849   C     0.18421   0.81849   0.56276   0.00000  Uiso   1.00
C850   C     0.27557   0.88288   0.58097   0.00000  Uiso   1.00
Cu851  Cu    0.10710   0.82772   0.74435   0.00000  Uiso   1.00
Cu852  Cu    0.22623   0.83895   0.75565   0.00000  Uiso   1.00
H853   H     0.30626   0.90118   0.60687   0.00000  Uiso   1.00
H854   H     0.11054   0.99870   0.62035   0.00000  Uiso   1.00
H855   H     0.13242   0.98606   0.55156   0.00000  Uiso   1.00
H856   H     0.18132   0.97563   0.59349   0.00000  Uiso   1.00
H857   H     0.22788   0.72589   0.54771   0.00000  Uiso   1.00
H858   H     0.20686   0.73756   0.61620   0.00000  Uiso   1.00
H859   H     0.10704   0.76113   0.60524   0.00000  Uiso   1.00
H860   H     0.12752   0.74445   0.53778   0.00000  Uiso   1.00
H861   H     0.09781   0.98641   0.74280   0.00000  Uiso   1.00
H862   H     0.33043   0.79448   0.70910   0.00000  Uiso   1.00
H863   H     0.29300   0.94127   0.94382   0.00000  Uiso   1.00
H864   H     0.32982   0.93142   0.51945   0.00000  Uiso   1.00
H865   H     0.01686   0.79253   0.90127   0.00000  Uiso   1.00
H866   H     0.06223   0.80362   0.54896   0.00000  Uiso   1.00
H867   H     0.31882   0.77958   0.99409   0.00000  Uiso   1.00
H868   H     0.23678   0.68020   0.75335   0.00000  Uiso   1.00
N869   N     0.31574   0.84741   0.76416   0.00000  Uiso   1.00
N870   N     0.01759   0.81926   0.73584   0.00000  Uiso   1.00
N871   N     0.02465   0.90966   0.83357   0.00000  Uiso   1.00
N872   N     0.21515   0.96436   0.85677   0.00000  Uiso   1.00
O873   O     0.12797   0.90474   0.74633   0.00000  Uiso   1.00
O874   O     0.22858   0.91422   0.75587   0.00000  Uiso   1.00
O875   O     0.09181   0.82627   0.81839   0.00000  Uiso   1.00
O876   O     0.19242   0.83575   0.82793   0.00000  Uiso   1.00
O877   O     0.10476   0.75245   0.74413   0.00000  Uiso   1.00
O878   O     0.20536   0.76193   0.75367   0.00000  Uiso   1.00
O879   O     0.14092   0.83092   0.67207   0.00000  Uiso   1.00
O880   O     0.24152   0.84040   0.68161   0.00000  Uiso   1.00
C881   C     0.51559   0.93338   0.75037   0.00000  Uiso   1.00
C882   C     0.44563   0.83341   0.90401   0.00000  Uiso   1.00
C883   C     0.52440   0.98945   0.74994   0.00000  Uiso   1.00
C884   C     0.46655   0.83296   0.84741   0.00000  Uiso   1.00
C885   C     0.47680   0.67714   0.74639   0.00000  Uiso   1.00
C886   C     0.48500   0.73325   0.74793   0.00000  Uiso   1.00
C887   C     0.53374   0.83597   0.65290   0.00000  Uiso   1.00
C888   C     0.62150   0.90091   0.53156   0.00000  Uiso   1.00
C889   C     0.55529   0.84380   0.59768   0.00000  Uiso   1.00
C890   C     0.38435   0.80699   0.92525   0.00000  Uiso   1.00
C891   C     0.36675   0.79813   0.97762   0.00000  Uiso   1.00
C892   C     0.47446   0.83444   0.98746   0.00000  Uiso   1.00
C893   C     0.41139   0.81088   0.50841   0.00000  Uiso   1.00
C894   C     0.33917   0.88119   0.80189   0.00000  Uiso   1.00
C895   C     0.48016   0.76173   0.57194   0.00000  Uiso   1.00
C896   C     0.52117   0.72480   0.58091   0.00000  Uiso   1.00
C897   C     0.48384   0.66780   0.58692   0.00000  Uiso   1.00
C898   C     0.54537   0.93295   0.88582   0.00000  Uiso   1.00
C899   C     0.48824   0.85388   0.93718   0.00000  Uiso   1.00
C900   C     0.52243   0.84451   0.51678   0.00000  Uiso   1.00
C901   C     0.57746   0.88387   0.50023   0.00000  Uiso   1.00
C902   C     0.58615   0.90886   0.95434   0.00000  Uiso   1.00
C903   C     0.54180   0.89524   0.92345   0.00000  Uiso   1.00
C904   C     0.51754   0.81849   0.56276   0.00000  Uiso   1.00
C905   C     0.60890   0.88288   0.58097   0.00000  Uiso   1.00
Cu906  Cu    0.44043   0.82772   0.74435   0.00000  Uiso   1.00
Cu907  Cu    0.55957   0.83895   0.75565   0.00000  Uiso   1.00
H908   H     0.63959   0.90118   0.60687   0.00000  Uiso   1.00
H909   H     0.44388   0.99870   0.62035   0.00000  Uiso   1.00
H910   H     0.46575   0.98606   0.55156   0.00000  Uiso   1.00
H911   H     0.51465   0.97563   0.59349   0.00000  Uiso   1.00
H912   H     0.56121   0.72589   0.54771   0.00000  Uiso   1.00
H913   H     0.54019   0.73756   0.61620   0.00000  Uiso   1.00
H914   H     0.44037   0.76113   0.60524   0.00000  Uiso   1.00
H915   H     0.46085   0.74445   0.53778   0.00000  Uiso   1.00
H916   H     0.43114   0.98641   0.74280   0.00000  Uiso   1.00
H917   H     0.66376   0.79448   0.70910   0.00000  Uiso   1.00
H918   H     0.62633   0.94127   0.94382   0.00000  Uiso   1.00
H919   H     0.66316   0.93142   0.51945   0.00000  Uiso   1.00
H920   H     0.35019   0.79253   0.90127   0.00000  Uiso   1.00
H921   H     0.39557   0.80362   0.54896   0.00000  Uiso   1.00
H922   H     0.65215   0.77958   0.99409   0.00000  Uiso   1.00
H923   H     0.57012   0.68020   0.75335   0.00000  Uiso   1.00
N924   N     0.64908   0.84741   0.76416   0.00000  Uiso   1.00
N925   N     0.35092   0.81926   0.73584   0.00000  Uiso   1.00
N926   N     0.35798   0.90966   0.83357   0.00000  Uiso   1.00
N927   N     0.54848   0.96436   0.85677   0.00000  Uiso   1.00
O928   O     0.46131   0.90474   0.74633   0.00000  Uiso   1.00
O929   O     0.56191   0.91422   0.75587   0.00000  Uiso   1.00
O930   O     0.42515   0.82627   0.81839   0.00000  Uiso   1.00
O931   O     0.52575   0.83575   0.82793   0.00000  Uiso   1.00
O932   O     0.43809   0.75245   0.74413   0.00000  Uiso   1.00
O933   O     0.53869   0.76193   0.75367   0.00000  Uiso   1.00
O934   O     0.47425   0.83092   0.67207   0.00000  Uiso   1.00
O935   O     0.57485   0.84040   0.68161   0.00000  Uiso   1.00
C936   C     0.84892   0.93338   0.75037   0.00000  Uiso   1.00
C937   C     0.77896   0.83341   0.90401   0.00000  Uiso   1.00
C938   C     0.85773   0.98945   0.74994   0.00000  Uiso   1.00
C939   C     0.79988   0.83296   0.84741   0.00000  Uiso   1.00
C940   C     0.81014   0.67714   0.74639   0.00000  Uiso   1.00
C941   C     0.81833   0.73325   0.74793   0.00000  Uiso   1.00
C942   C     0.86708   0.83597   0.65290   0.00000  Uiso   1.00
C943   C     0.95483   0.90091   0.53156   0.00000  Uiso   1.00
C944   C     0.88863   0.84380   0.59768   0.00000  Uiso   1.00
C945   C     0.71768   0.80699   0.92525   0.00000  Uiso   1.00
C946   C     0.70009   0.79813   0.97762   0.00000  Uiso   1.00
C947   C     0.80780   0.83444   0.98746   0.00000  Uiso   1.00
C948   C     0.74472   0.81088   0.50841   0.00000  Uiso   1.00
C949   C     0.67250   0.88119   0.80189   0.00000  Uiso   1.00
C950   C     0.81349   0.76173   0.57194   0.00000  Uiso   1.00
C951   C     0.85450   0.72480   0.58091   0.00000  Uiso   1.00
C952   C     0.81717   0.66780   0.58692   0.00000  Uiso   1.00
C953   C     0.87871   0.93295   0.88582   0.00000  Uiso   1.00
C954   C     0.82157   0.85388   0.93718   0.00000  Uiso   1.00
C955   C     0.85576   0.84451   0.51678   0.00000  Uiso   1.00
C956   C     0.91080   0.88387   0.50023   0.00000  Uiso   1.00
C957   C     0.91948   0.90886   0.95434   0.00000  Uiso   1.00
C958   C     0.87514   0.89524   0.92345   0.00000  Uiso   1.00
C959   C     0.85088   0.81849   0.56276   0.00000  Uiso   1.00
C960   C     0.94224   0.88288   0.58097   0.00000  Uiso   1.00
Cu961  Cu    0.77377   0.82772   0.74435   0.00000  Uiso   1.00
Cu962  Cu    0.89290   0.83895   0.75565   0.00000  Uiso   1.00
H963   H     0.97292   0.90118   0.60687   0.00000  Uiso   1.00
H964   H     0.77721   0.99870   0.62035   0.00000  Uiso   1.00
H965   H     0.79909   0.98606   0.55156   0.00000  Uiso   1.00
H966   H     0.84799   0.97563   0.59349   0.00000  Uiso   1.00
H967   H     0.89454   0.72589   0.54771   0.00000  Uiso   1.00
H968   H     0.87353   0.73756   0.61620   0.00000  Uiso   1.00
H969   H     0.77370   0.76113   0.60524   0.00000  Uiso   1.00
H970   H     0.79419   0.74445   0.53778   0.00000  Uiso   1.00
H971   H     0.76447   0.98641   0.74280   0.00000  Uiso   1.00
H972   H     0.99710   0.79448   0.70910   0.00000  Uiso   1.00
H973   H     0.95966   0.94127   0.94382   0.00000  Uiso   1.00
H974   H     0.99649   0.93142   0.51945   0.00000  Uiso   1.00
H975   H     0.68353   0.79253   0.90127   0.00000  Uiso   1.00
H976   H     0.72890   0.80362   0.54896   0.00000  Uiso   1.00
H977   H     0.98548   0.77958   0.99409   0.00000  Uiso   1.00
H978   H     0.90345   0.68020   0.75335   0.00000  Uiso   1.00
N979   N     0.98241   0.84741   0.76416   0.00000  Uiso   1.00
N980   N     0.68426   0.81926   0.73584   0.00000  Uiso   1.00
N981   N     0.69132   0.90966   0.83357   0.00000  Uiso   1.00
N982   N     0.88181   0.96436   0.85677   0.00000  Uiso   1.00
O983   O     0.79464   0.90474   0.74633   0.00000  Uiso   1.00
O984   O     0.89524   0.91422   0.75587   0.00000  Uiso   1.00
O985   O     0.75848   0.82627   0.81839   0.00000  Uiso   1.00
O986   O     0.85908   0.83575   0.82793   0.00000  Uiso   1.00
O987   O     0.77142   0.75245   0.74413   0.00000  Uiso   1.00
O988   O     0.87203   0.76193   0.75367   0.00000  Uiso   1.00
O989   O     0.80758   0.83092   0.67207   0.00000  Uiso   1.00
O990   O     0.90819   0.84040   0.68161   0.00000  Uiso   1.00
loop_
_geom_bond_atom_site_label_1
_geom_bond_atom_site_label_2
_geom_bond_distance
_geom_bond_site_symmetry_2
_ccdc_geom_bond_type
C1     O48     1.292   .     A
C1     O49     1.291   .     A
C1     C3      1.428   .     S
C2     C4      1.479   .     S
C2     C10     1.403   .     A
C2     C19     1.423   .     A
C3     C170    1.330   .     S
C3     H208    1.088   .     S
C4     O51     1.302   .     A
C4     O50     1.305   .     A
C5     C6      1.427   .     S
C5     C333    1.330   1_545 S
C5     H366    1.087   1_545 S
C6     O52     1.290   .     A
C6     O53     1.293   .     A
C7     O54     1.299   .     A
C7     O55     1.300   .     A
C7     C9      1.462   .     S
C8     H39     1.084   .     S
C8     C21     1.400   .     A
C8     C25     1.386   .     A
C9     C25     1.398   .     A
C9     C24     1.412   .     A
C10    C11     1.390   .     A
C10    H40     1.083   .     S
C11    C508    1.393   .     S
C11    H152    1.081   1_455 S
C12    C19     1.420   .     A
C12    C508    1.413   .     S
C12    C515    1.426   .     S
C13    H41     1.081   .     S
C13    C506    1.393   1_554 S
C13    C507    1.413   1_554 S
C14    N46     1.158   .     T
C14    N154    1.386   1_455 S
C15    C16     1.540   .     S
C15    H34     1.110   .     S
C15    H35     1.108   .     S
C15    C24     1.531   .     S
C16    H33     1.110   .     S
C16    H32     1.111   .     S
C16    C17     1.528   .     S
C17    H359    1.111   1_545 S
C17    H360    1.111   1_545 S
C17    H361    1.111   1_545 S
C18    N47     1.156   .     T
C18    C23     1.442   .     S
C19    C23     1.418   .     A
C20    C21     1.421   .     A
C20    C24     1.424   .     A
C20    C507    1.426   1_554 S
C21    C517    1.392   1_554 S
C22    C23     1.390   .     A
C22    H38     1.086   .     S
C22    C516    1.392   .     S
C25    H28     1.084   .     S
Cu26   O52     1.948   .     S
Cu26   O48     1.949   .     S
Cu26   Cu27    2.696   .     S
Cu26   O54     1.912   .     S
Cu26   O50     1.931   .     S
Cu26   N45     2.026   .     S
Cu27   O53     1.949   .     S
Cu27   O51     1.912   .     S
Cu27   O55     1.931   .     S
Cu27   N44     2.026   .     S
Cu27   O49     1.948   .     S
H29    C182    1.111   .     S
H30    C182    1.111   .     S
H31    C182    1.111   .     S
H36    C170    1.087   .     S
H37    N100    1.029   .     S
H42    C66     1.081   .     S
H43    C333    1.088   1_545 S
N44    C69     1.386   .     S
N44    N100    1.280   .     S
N45    N154    1.280   1_455 S
N45    H147    1.029   1_455 S
C56    O103    1.292   .     A
C56    O104    1.291   .     A
C56    C58     1.428   .     S
C57    C59     1.479   .     S
C57    C65     1.403   .     A
C57    C74     1.423   .     A
C58    C225    1.330   .     S
C58    H263    1.088   .     S
C59    O106    1.302   .     A
C59    O105    1.305   .     A
C60    C61     1.427   .     S
C60    C388    1.330   1_545 S
C60    H421    1.087   1_545 S
C61    O107    1.290   .     A
C61    O108    1.293   .     A
C62    O109    1.299   .     A
C62    O110    1.300   .     A
C62    C64     1.462   .     S
C63    H94     1.084   .     S
C63    C76     1.400   .     A
C63    C80     1.386   .     A
C64    C80     1.398   .     A
C64    C79     1.412   .     A
C65    C66     1.390   .     A
C65    H95     1.083   .     S
C66    C563    1.393   .     S
C67    C74     1.420   .     A
C67    C563    1.413   .     S
C67    C570    1.426   .     S
C68    H96     1.081   .     S
C68    C561    1.393   1_554 S
C68    C562    1.413   1_554 S
C69    N101    1.158   .     T
C70    C71     1.540   .     S
C70    H89     1.110   .     S
C70    H90     1.108   .     S
C70    C79     1.531   .     S
C71    H88     1.110   .     S
C71    H87     1.111   .     S
C71    C72     1.528   .     S
C72    H414    1.111   1_545 S
C72    H415    1.111   1_545 S
C72    H416    1.111   1_545 S
C73    N102    1.156   .     T
C73    C78     1.442   .     S
C74    C78     1.418   .     A
C75    C76     1.421   .     A
C75    C79     1.424   .     A
C75    C562    1.426   1_554 S
C76    C572    1.392   1_554 S
C77    C78     1.390   .     A
C77    H93     1.086   .     S
C77    C571    1.392   .     S
C80    H83     1.084   .     S
Cu81   O107    1.948   .     S
Cu81   O103    1.949   .     S
Cu81   Cu82    2.696   .     S
Cu81   O109    1.912   .     S
Cu81   O105    1.931   .     S
Cu81   N100    2.026   .     S
Cu82   O108    1.949   .     S
Cu82   O106    1.912   .     S
Cu82   O110    1.931   .     S
Cu82   N99     2.026   .     S
Cu82   O104    1.948   .     S
H84    C237    1.111   .     S
H85    C237    1.111   .     S
H86    C237    1.111   .     S
H91    C225    1.087   .     S
H92    N155    1.029   .     S
H97    C121    1.081   .     S
H98    C388    1.088   1_545 S
N99    C124    1.386   .     S
N99    N155    1.280   .     S
C111   O158    1.292   .     A
C111   O159    1.291   .     A
C111   C113    1.428   .     S
C112   C114    1.479   .     S
C112   C120    1.403   .     A
C112   C129    1.423   .     A
C113   C280    1.330   .     S
C113   H318    1.088   .     S
C114   O161    1.302   .     A
C114   O160    1.305   .     A
C115   C116    1.427   .     S
C115   C443    1.330   1_545 S
C115   H476    1.087   1_545 S
C116   O162    1.290   .     A
C116   O163    1.293   .     A
C117   O164    1.299   .     A
C117   O165    1.300   .     A
C117   C119    1.462   .     S
C118   H149    1.084   .     S
C118   C131    1.400   .     A
C118   C135    1.386   .     A
C119   C135    1.398   .     A
C119   C134    1.412   .     A
C120   C121    1.390   .     A
C120   H150    1.083   .     S
C121   C618    1.393   .     S
C122   C129    1.420   .     A
C122   C618    1.413   .     S
C122   C625    1.426   .     S
C123   H151    1.081   .     S
C123   C616    1.393   1_554 S
C123   C617    1.413   1_554 S
C124   N156    1.158   .     T
C125   C126    1.540   .     S
C125   H144    1.110   .     S
C125   H145    1.108   .     S
C125   C134    1.531   .     S
C126   H143    1.110   .     S
C126   H142    1.111   .     S
C126   C127    1.528   .     S
C127   H469    1.111   1_545 S
C127   H470    1.111   1_545 S
C127   H471    1.111   1_545 S
C128   N157    1.156   .     T
C128   C133    1.442   .     S
C129   C133    1.418   .     A
C130   C131    1.421   .     A
C130   C134    1.424   .     A
C130   C617    1.426   1_554 S
C131   C627    1.392   1_554 S
C132   C133    1.390   .     A
C132   H148    1.086   .     S
C132   C626    1.392   .     S
C135   H138    1.084   .     S
Cu136  O162    1.948   .     S
Cu136  O158    1.949   .     S
Cu136  Cu137   2.696   .     S
Cu136  O164    1.912   .     S
Cu136  O160    1.931   .     S
Cu136  N155    2.026   .     S
Cu137  O163    1.949   .     S
Cu137  O161    1.912   .     S
Cu137  O165    1.931   .     S
Cu137  N154    2.026   .     S
Cu137  O159    1.948   .     S
H139   C292    1.111   .     S
H140   C292    1.111   .     S
H141   C292    1.111   .     S
H146   C280    1.087   .     S
H147   N45     1.029   1_655 S
H152   C11     1.081   1_655 S
H153   C443    1.088   1_545 S
N154   C14     1.386   1_655 S
N154   N45     1.280   1_655 S
C166   O213    1.292   .     A
C166   O214    1.291   .     A
C166   C168    1.428   .     S
C167   C169    1.479   .     S
C167   C175    1.403   .     A
C167   C184    1.423   .     A
C168   C335    1.330   .     S
C168   H373    1.088   .     S
C169   O216    1.302   .     A
C169   O215    1.305   .     A
C170   C171    1.427   .     S
C171   O217    1.290   .     A
C171   O218    1.293   .     A
C172   O219    1.299   .     A
C172   O220    1.300   .     A
C172   C174    1.462   .     S
C173   H204    1.084   .     S
C173   C186    1.400   .     A
C173   C190    1.386   .     A
C174   C190    1.398   .     A
C174   C189    1.412   .     A
C175   C176    1.390   .     A
C175   H205    1.083   .     S
C176   C673    1.393   .     S
C176   H317    1.081   1_455 S
C177   C184    1.420   .     A
C177   C673    1.413   .     S
C177   C680    1.426   .     S
C178   H206    1.081   .     S
C178   C671    1.393   1_554 S
C178   C672    1.413   1_554 S
C179   N211    1.158   .     T
C179   N319    1.386   1_455 S
C180   C181    1.540   .     S
C180   H199    1.110   .     S
C180   H200    1.108   .     S
C180   C189    1.531   .     S
C181   H198    1.110   .     S
C181   H197    1.111   .     S
C181   C182    1.528   .     S
C183   N212    1.156   .     T
C183   C188    1.442   .     S
C184   C188    1.418   .     A
C185   C186    1.421   .     A
C185   C189    1.424   .     A
C185   C672    1.426   1_554 S
C186   C682    1.392   1_554 S
C187   C188    1.390   .     A
C187   H203    1.086   .     S
C187   C681    1.392   .     S
C190   H193    1.084   .     S
Cu191  O217    1.948   .     S
Cu191  O213    1.949   .     S
Cu191  Cu192   2.696   .     S
Cu191  O219    1.912   .     S
Cu191  O215    1.931   .     S
Cu191  N210    2.026   .     S
Cu192  O218    1.949   .     S
Cu192  O216    1.912   .     S
Cu192  O220    1.931   .     S
Cu192  N209    2.026   .     S
Cu192  O214    1.948   .     S
H194   C347    1.111   .     S
H195   C347    1.111   .     S
H196   C347    1.111   .     S
H201   C335    1.087   .     S
H202   N265    1.029   .     S
H207   C231    1.081   .     S
N209   C234    1.386   .     S
N209   N265    1.280   .     S
N210   N319    1.280   1_455 S
N210   H312    1.029   1_455 S
C221   O268    1.292   .     A
C221   O269    1.291   .     A
C221   C223    1.428   .     S
C222   C224    1.479   .     S
C222   C230    1.403   .     A
C222   C239    1.423   .     A
C223   C390    1.330   .     S
C223   H428    1.088   .     S
C224   O271    1.302   .     A
C224   O270    1.305   .     A
C225   C226    1.427   .     S
C226   O272    1.290   .     A
C226   O273    1.293   .     A
C227   O274    1.299   .     A
C227   O275    1.300   .     A
C227   C229    1.462   .     S
C228   H259    1.084   .     S
C228   C241    1.400   .     A
C228   C245    1.386   .     A
C229   C245    1.398   .     A
C229   C244    1.412   .     A
C230   C231    1.390   .     A
C230   H260    1.083   .     S
C231   C728    1.393   .     S
C232   C239    1.420   .     A
C232   C728    1.413   .     S
C232   C735    1.426   .     S
C233   H261    1.081   .     S
C233   C726    1.393   1_554 S
C233   C727    1.413   1_554 S
C234   N266    1.158   .     T
C235   C236    1.540   .     S
C235   H254    1.110   .     S
C235   H255    1.108   .     S
C235   C244    1.531   .     S
C236   H253    1.110   .     S
C236   H252    1.111   .     S
C236   C237    1.528   .     S
C238   N267    1.156   .     T
C238   C243    1.442   .     S
C239   C243    1.418   .     A
C240   C241    1.421   .     A
C240   C244    1.424   .     A
C240   C727    1.426   1_554 S
C241   C737    1.392   1_554 S
C242   C243    1.390   .     A
C242   H258    1.086   .     S
C242   C736    1.392   .     S
C245   H248    1.084   .     S
Cu246  O272    1.948   .     S
Cu246  O268    1.949   .     S
Cu246  Cu247   2.696   .     S
Cu246  O274    1.912   .     S
Cu246  O270    1.931   .     S
Cu246  N265    2.026   .     S
Cu247  O273    1.949   .     S
Cu247  O271    1.912   .     S
Cu247  O275    1.931   .     S
Cu247  N264    2.026   .     S
Cu247  O269    1.948   .     S
H249   C402    1.111   .     S
H250   C402    1.111   .     S
H251   C402    1.111   .     S
H256   C390    1.087   .     S
H257   N320    1.029   .     S
H262   C286    1.081   .     S
N264   C289    1.386   .     S
N264   N320    1.280   .     S
C276   O323    1.292   .     A
C276   O324    1.291   .     A
C276   C278    1.428   .     S
C277   C279    1.479   .     S
C277   C285    1.403   .     A
C277   C294    1.423   .     A
C278   C445    1.330   .     S
C278   H483    1.088   .     S
C279   O326    1.302   .     A
C279   O325    1.305   .     A
C280   C281    1.427   .     S
C281   O327    1.290   .     A
C281   O328    1.293   .     A
C282   O329    1.299   .     A
C282   O330    1.300   .     A
C282   C284    1.462   .     S
C283   H314    1.084   .     S
C283   C296    1.400   .     A
C283   C300    1.386   .     A
C284   C300    1.398   .     A
C284   C299    1.412   .     A
C285   C286    1.390   .     A
C285   H315    1.083   .     S
C286   C783    1.393   .     S
C287   C294    1.420   .     A
C287   C783    1.413   .     S
C287   C790    1.426   .     S
C288   H316    1.081   .     S
C288   C781    1.393   1_554 S
C288   C782    1.413   1_554 S
C289   N321    1.158   .     T
C290   C291    1.540   .     S
C290   H309    1.110   .     S
C290   H310    1.108   .     S
C290   C299    1.531   .     S
C291   H308    1.110   .     S
C291   H307    1.111   .     S
C291   C292    1.528   .     S
C293   N322    1.156   .     T
C293   C298    1.442   .     S
C294   C298    1.418   .     A
C295   C296    1.421   .     A
C295   C299    1.424   .     A
C295   C782    1.426   1_554 S
C296   C792    1.392   1_554 S
C297   C298    1.390   .     A
C297   H313    1.086   .     S
C297   C791    1.392   .     S
C300   H303    1.084   .     S
Cu301  O327    1.948   .     S
Cu301  O323    1.949   .     S
Cu301  Cu302   2.696   .     S
Cu301  O329    1.912   .     S
Cu301  O325    1.931   .     S
Cu301  N320    2.026   .     S
Cu302  O328    1.949   .     S
Cu302  O326    1.912   .     S
Cu302  O330    1.931   .     S
Cu302  N319    2.026   .     S
Cu302  O324    1.948   .     S
H304   C457    1.111   .     S
H305   C457    1.111   .     S
H306   C457    1.111   .     S
H311   C445    1.087   .     S
H312   N210    1.029   1_655 S
H317   C176    1.081   1_655 S
N319   C179    1.386   1_655 S
N319   N210    1.280   1_655 S
C331   O378    1.292   .     A
C331   O379    1.291   .     A
C331   C333    1.428   .     S
C332   C334    1.479   .     S
C332   C340    1.403   .     A
C332   C349    1.423   .     A
C333   C5      1.330   1_565 S
C333   H43     1.088   1_565 S
C334   O381    1.302   .     A
C334   O380    1.305   .     A
C335   C336    1.427   .     S
C336   O382    1.290   .     A
C336   O383    1.293   .     A
C337   O384    1.299   .     A
C337   O385    1.300   .     A
C337   C339    1.462   .     S
C338   H369    1.084   .     S
C338   C351    1.400   .     A
C338   C355    1.386   .     A
C339   C355    1.398   .     A
C339   C354    1.412   .     A
C340   C341    1.390   .     A
C340   H370    1.083   .     S
C341   C838    1.393   .     S
C341   H482    1.081   1_455 S
C342   C349    1.420   .     A
C342   C838    1.413   .     S
C342   C845    1.426   .     S
C343   H371    1.081   .     S
C343   C836    1.393   1_554 S
C343   C837    1.413   1_554 S
C344   N376    1.158   .     T
C344   N484    1.386   1_455 S
C345   C346    1.540   .     S
C345   H364    1.110   .     S
C345   H365    1.108   .     S
C345   C354    1.531   .     S
C346   H363    1.110   .     S
C346   H362    1.111   .     S
C346   C347    1.528   .     S
C348   N377    1.156   .     T
C348   C353    1.442   .     S
C349   C353    1.418   .     A
C350   C351    1.421   .     A
C350   C354    1.424   .     A
C350   C837    1.426   1_554 S
C351   C847    1.392   1_554 S
C352   C353    1.390   .     A
C352   H368    1.086   .     S
C352   C846    1.392   .     S
C355   H358    1.084   .     S
Cu356  O382    1.948   .     S
Cu356  O378    1.949   .     S
Cu356  Cu357   2.696   .     S
Cu356  O384    1.912   .     S
Cu356  O380    1.931   .     S
Cu356  N375    2.026   .     S
Cu357  O383    1.949   .     S
Cu357  O381    1.912   .     S
Cu357  O385    1.931   .     S
Cu357  N374    2.026   .     S
Cu357  O379    1.948   .     S
H359   C17     1.111   1_565 S
H360   C17     1.111   1_565 S
H361   C17     1.111   1_565 S
H366   C5      1.087   1_565 S
H367   N430    1.029   .     S
H372   C396    1.081   .     S
N374   C399    1.386   .     S
N374   N430    1.280   .     S
N375   N484    1.280   1_455 S
N375   H477    1.029   1_455 S
C386   O433    1.292   .     A
C386   O434    1.291   .     A
C386   C388    1.428   .     S
C387   C389    1.479   .     S
C387   C395    1.403   .     A
C387   C404    1.423   .     A
C388   C60     1.330   1_565 S
C388   H98     1.088   1_565 S
C389   O436    1.302   .     A
C389   O435    1.305   .     A
C390   C391    1.427   .     S
C391   O437    1.290   .     A
C391   O438    1.293   .     A
C392   O439    1.299   .     A
C392   O440    1.300   .     A
C392   C394    1.462   .     S
C393   H424    1.084   .     S
C393   C406    1.400   .     A
C393   C410    1.386   .     A
C394   C410    1.398   .     A
C394   C409    1.412   .     A
C395   C396    1.390   .     A
C395   H425    1.083   .     S
C396   C893    1.393   .     S
C397   C404    1.420   .     A
C397   C893    1.413   .     S
C397   C900    1.426   .     S
C398   H426    1.081   .     S
C398   C891    1.393   1_554 S
C398   C892    1.413   1_554 S
C399   N431    1.158   .     T
C400   C401    1.540   .     S
C400   H419    1.110   .     S
C400   H420    1.108   .     S
C400   C409    1.531   .     S
C401   H418    1.110   .     S
C401   H417    1.111   .     S
C401   C402    1.528   .     S
C403   N432    1.156   .     T
C403   C408    1.442   .     S
C404   C408    1.418   .     A
C405   C406    1.421   .     A
C405   C409    1.424   .     A
C405   C892    1.426   1_554 S
C406   C902    1.392   1_554 S
C407   C408    1.390   .     A
C407   H423    1.086   .     S
C407   C901    1.392   .     S
C410   H413    1.084   .     S
Cu411  O437    1.948   .     S
Cu411  O433    1.949   .     S
Cu411  Cu412   2.696   .     S
Cu411  O439    1.912   .     S
Cu411  O435    1.931   .     S
Cu411  N430    2.026   .     S
Cu412  O438    1.949   .     S
Cu412  O436    1.912   .     S
Cu412  O440    1.931   .     S
Cu412  N429    2.026   .     S
Cu412  O434    1.948   .     S
H414   C72     1.111   1_565 S
H415   C72     1.111   1_565 S
H416   C72     1.111   1_565 S
H421   C60     1.087   1_565 S
H422   N485    1.029   .     S
H427   C451    1.081   .     S
N429   C454    1.386   .     S
N429   N485    1.280   .     S
C441   O488    1.292   .     A
C441   O489    1.291   .     A
C441   C443    1.428   .     S
C442   C444    1.479   .     S
C442   C450    1.403   .     A
C442   C459    1.423   .     A
C443   C115    1.330   1_565 S
C443   H153    1.088   1_565 S
C444   O491    1.302   .     A
C444   O490    1.305   .     A
C445   C446    1.427   .     S
C446   O492    1.290   .     A
C446   O493    1.293   .     A
C447   O494    1.299   .     A
C447   O495    1.300   .     A
C447   C449    1.462   .     S
C448   H479    1.084   .     S
C448   C461    1.400   .     A
C448   C465    1.386   .     A
C449   C465    1.398   .     A
C449   C464    1.412   .     A
C450   C451    1.390   .     A
C450   H480    1.083   .     S
C451   C948    1.393   .     S
C452   C459    1.420   .     A
C452   C948    1.413   .     S
C452   C955    1.426   .     S
C453   H481    1.081   .     S
C453   C946    1.393   1_554 S
C453   C947    1.413   1_554 S
C454   N486    1.158   .     T
C455   C456    1.540   .     S
C455   H474    1.110   .     S
C455   H475    1.108   .     S
C455   C464    1.531   .     S
C456   H473    1.110   .     S
C456   H472    1.111   .     S
C456   C457    1.528   .     S
C458   N487    1.156   .     T
C458   C463    1.442   .     S
C459   C463    1.418   .     A
C460   C461    1.421   .     A
C460   C464    1.424   .     A
C460   C947    1.426   1_554 S
C461   C957    1.392   1_554 S
C462   C463    1.390   .     A
C462   H478    1.086   .     S
C462   C956    1.392   .     S
C465   H468    1.084   .     S
Cu466  O492    1.948   .     S
Cu466  O488    1.949   .     S
Cu466  Cu467   2.696   .     S
Cu466  O494    1.912   .     S
Cu466  O490    1.931   .     S
Cu466  N485    2.026   .     S
Cu467  O493    1.949   .     S
Cu467  O491    1.912   .     S
Cu467  O495    1.931   .     S
Cu467  N484    2.026   .     S
Cu467  O489    1.948   .     S
H469   C127    1.111   1_565 S
H470   C127    1.111   1_565 S
H471   C127    1.111   1_565 S
H476   C115    1.087   1_565 S
H477   N375    1.029   1_655 S
H482   C341    1.081   1_655 S
N484   C344    1.386   1_655 S
N484   N375    1.280   1_655 S
C496   O543    1.292   .     A
C496   O544    1.291   .     A
C496   C498    1.428   .     S
C497   C499    1.479   .     S
C497   C505    1.403   .     A
C497   C514    1.423   .     A
C498   C665    1.330   .     S
C498   H703    1.088   .     S
C499   O546    1.302   .     A
C499   O545    1.305   .     A
C500   C501    1.427   .     S
C500   C828    1.330   1_545 S
C500   H861    1.087   1_545 S
C501   O547    1.290   .     A
C501   O548    1.293   .     A
C502   O549    1.299   .     A
C502   O550    1.300   .     A
C502   C504    1.462   .     S
C503   H534    1.084   .     S
C503   C516    1.400   .     A
C503   C520    1.386   .     A
C504   C520    1.398   .     A
C504   C519    1.412   .     A
C505   C506    1.390   .     A
C505   H535    1.083   .     S
C506   C13     1.393   1_556 S
C506   H647    1.081   1_455 S
C507   C514    1.420   .     A
C507   C13     1.413   1_556 S
C507   C20     1.426   1_556 S
C508   H536    1.081   .     S
C509   N541    1.158   .     T
C509   N649    1.386   1_455 S
C510   C511    1.540   .     S
C510   H529    1.110   .     S
C510   H530    1.108   .     S
C510   C519    1.531   .     S
C511   H528    1.110   .     S
C511   H527    1.111   .     S
C511   C512    1.528   .     S
C512   H854    1.111   1_545 S
C512   H855    1.111   1_545 S
C512   H856    1.111   1_545 S
C513   N542    1.156   .     T
C513   C518    1.442   .     S
C514   C518    1.418   .     A
C515   C516    1.421   .     A
C515   C519    1.424   .     A
C517   C518    1.390   .     A
C517   H533    1.086   .     S
C517   C21     1.392   1_556 S
C520   H523    1.084   .     S
Cu521  O547    1.948   .     S
Cu521  O543    1.949   .     S
Cu521  Cu522   2.696   .     S
Cu521  O549    1.912   .     S
Cu521  O545    1.931   .     S
Cu521  N540    2.026   .     S
Cu522  O548    1.949   .     S
Cu522  O546    1.912   .     S
Cu522  O550    1.931   .     S
Cu522  N539    2.026   .     S
Cu522  O544    1.948   .     S
H524   C677    1.111   .     S
H525   C677    1.111   .     S
H526   C677    1.111   .     S
H531   C665    1.087   .     S
H532   N595    1.029   .     S
H537   C561    1.081   .     S
H538   C828    1.088   1_545 S
N539   C564    1.386   .     S
N539   N595    1.280   .     S
N540   N649    1.280   1_455 S
N540   H642    1.029   1_455 S
C551   O598    1.292   .     A
C551   O599    1.291   .     A
C551   C553    1.428   .     S
C552   C554    1.479   .     S
C552   C560    1.403   .     A
C552   C569    1.423   .     A
C553   C720    1.330   .     S
C553   H758    1.088   .     S
C554   O601    1.302   .     A
C554   O600    1.305   .     A
C555   C556    1.427   .     S
C555   C883    1.330   1_545 S
C555   H916    1.087   1_545 S
C556   O602    1.290   .     A
C556   O603    1.293   .     A
C557   O604    1.299   .     A
C557   O605    1.300   .     A
C557   C559    1.462   .     S
C558   H589    1.084   .     S
C558   C571    1.400   .     A
C558   C575    1.386   .     A
C559   C575    1.398   .     A
C559   C574    1.412   .     A
C560   C561    1.390   .     A
C560   H590    1.083   .     S
C561   C68     1.393   1_556 S
C562   C569    1.420   .     A
C562   C68     1.413   1_556 S
C562   C75     1.426   1_556 S
C563   H591    1.081   .     S
C564   N596    1.158   .     T
C565   C566    1.540   .     S
C565   H584    1.110   .     S
C565   H585    1.108   .     S
C565   C574    1.531   .     S
C566   H583    1.110   .     S
C566   H582    1.111   .     S
C566   C567    1.528   .     S
C567   H909    1.111   1_545 S
C567   H910    1.111   1_545 S
C567   H911    1.111   1_545 S
C568   N597    1.156   .     T
C568   C573    1.442   .     S
C569   C573    1.418   .     A
C570   C571    1.421   .     A
C570   C574    1.424   .     A
C572   C573    1.390   .     A
C572   H588    1.086   .     S
C572   C76     1.392   1_556 S
C575   H578    1.084   .     S
Cu576  O602    1.948   .     S
Cu576  O598    1.949   .     S
Cu576  Cu577   2.696   .     S
Cu576  O604    1.912   .     S
Cu576  O600    1.931   .     S
Cu576  N595    2.026   .     S
Cu577  O603    1.949   .     S
Cu577  O601    1.912   .     S
Cu577  O605    1.931   .     S
Cu577  N594    2.026   .     S
Cu577  O599    1.948   .     S
H579   C732    1.111   .     S
H580   C732    1.111   .     S
H581   C732    1.111   .     S
H586   C720    1.087   .     S
H587   N650    1.029   .     S
H592   C616    1.081   .     S
H593   C883    1.088   1_545 S
N594   C619    1.386   .     S
N594   N650    1.280   .     S
C606   O653    1.292   .     A
C606   O654    1.291   .     A
C606   C608    1.428   .     S
C607   C609    1.479   .     S
C607   C615    1.403   .     A
C607   C624    1.423   .     A
C608   C775    1.330   .     S
C608   H813    1.088   .     S
C609   O656    1.302   .     A
C609   O655    1.305   .     A
C610   C611    1.427   .     S
C610   C938    1.330   1_545 S
C610   H971    1.087   1_545 S
C611   O657    1.290   .     A
C611   O658    1.293   .     A
C612   O659    1.299   .     A
C612   O660    1.300   .     A
C612   C614    1.462   .     S
C613   H644    1.084   .     S
C613   C626    1.400   .     A
C613   C630    1.386   .     A
C614   C630    1.398   .     A
C614   C629    1.412   .     A
C615   C616    1.390   .     A
C615   H645    1.083   .     S
C616   C123    1.393   1_556 S
C617   C624    1.420   .     A
C617   C123    1.413   1_556 S
C617   C130    1.426   1_556 S
C618   H646    1.081   .     S
C619   N651    1.158   .     T
C620   C621    1.540   .     S
C620   H639    1.110   .     S
C620   H640    1.108   .     S
C620   C629    1.531   .     S
C621   H638    1.110   .     S
C621   H637    1.111   .     S
C621   C622    1.528   .     S
C622   H964    1.111   1_545 S
C622   H965    1.111   1_545 S
C622   H966    1.111   1_545 S
C623   N652    1.156   .     T
C623   C628    1.442   .     S
C624   C628    1.418   .     A
C625   C626    1.421   .     A
C625   C629    1.424   .     A
C627   C628    1.390   .     A
C627   H643    1.086   .     S
C627   C131    1.392   1_556 S
C630   H633    1.084   .     S
Cu631  O657    1.948   .     S
Cu631  O653    1.949   .     S
Cu631  Cu632   2.696   .     S
Cu631  O659    1.912   .     S
Cu631  O655    1.931   .     S
Cu631  N650    2.026   .     S
Cu632  O658    1.949   .     S
Cu632  O656    1.912   .     S
Cu632  O660    1.931   .     S
Cu632  N649    2.026   .     S
Cu632  O654    1.948   .     S
H634   C787    1.111   .     S
H635   C787    1.111   .     S
H636   C787    1.111   .     S
H641   C775    1.087   .     S
H642   N540    1.029   1_655 S
H647   C506    1.081   1_655 S
H648   C938    1.088   1_545 S
N649   C509    1.386   1_655 S
N649   N540    1.280   1_655 S
C661   O708    1.292   .     A
C661   O709    1.291   .     A
C661   C663    1.428   .     S
C662   C664    1.479   .     S
C662   C670    1.403   .     A
C662   C679    1.423   .     A
C663   C830    1.330   .     S
C663   H868    1.088   .     S
C664   O711    1.302   .     A
C664   O710    1.305   .     A
C665   C666    1.427   .     S
C666   O712    1.290   .     A
C666   O713    1.293   .     A
C667   O714    1.299   .     A
C667   O715    1.300   .     A
C667   C669    1.462   .     S
C668   H699    1.084   .     S
C668   C681    1.400   .     A
C668   C685    1.386   .     A
C669   C685    1.398   .     A
C669   C684    1.412   .     A
C670   C671    1.390   .     A
C670   H700    1.083   .     S
C671   C178    1.393   1_556 S
C671   H812    1.081   1_455 S
C672   C679    1.420   .     A
C672   C178    1.413   1_556 S
C672   C185    1.426   1_556 S
C673   H701    1.081   .     S
C674   N706    1.158   .     T
C674   N814    1.386   1_455 S
C675   C676    1.540   .     S
C675   H694    1.110   .     S
C675   H695    1.108   .     S
C675   C684    1.531   .     S
C676   H693    1.110   .     S
C676   H692    1.111   .     S
C676   C677    1.528   .     S
C678   N707    1.156   .     T
C678   C683    1.442   .     S
C679   C683    1.418   .     A
C680   C681    1.421   .     A
C680   C684    1.424   .     A
C682   C683    1.390   .     A
C682   H698    1.086   .     S
C682   C186    1.392   1_556 S
C685   H688    1.084   .     S
Cu686  O712    1.948   .     S
Cu686  O708    1.949   .     S
Cu686  Cu687   2.696   .     S
Cu686  O714    1.912   .     S
Cu686  O710    1.931   .     S
Cu686  N705    2.026   .     S
Cu687  O713    1.949   .     S
Cu687  O711    1.912   .     S
Cu687  O715    1.931   .     S
Cu687  N704    2.026   .     S
Cu687  O709    1.948   .     S
H689   C842    1.111   .     S
H690   C842    1.111   .     S
H691   C842    1.111   .     S
H696   C830    1.087   .     S
H697   N760    1.029   .     S
H702   C726    1.081   .     S
N704   C729    1.386   .     S
N704   N760    1.280   .     S
N705   N814    1.280   1_455 S
N705   H807    1.029   1_455 S
C716   O763    1.292   .     A
C716   O764    1.291   .     A
C716   C718    1.428   .     S
C717   C719    1.479   .     S
C717   C725    1.403   .     A
C717   C734    1.423   .     A
C718   C885    1.330   .     S
C718   H923    1.088   .     S
C719   O766    1.302   .     A
C719   O765    1.305   .     A
C720   C721    1.427   .     S
C721   O767    1.290   .     A
C721   O768    1.293   .     A
C722   O769    1.299   .     A
C722   O770    1.300   .     A
C722   C724    1.462   .     S
C723   H754    1.084   .     S
C723   C736    1.400   .     A
C723   C740    1.386   .     A
C724   C740    1.398   .     A
C724   C739    1.412   .     A
C725   C726    1.390   .     A
C725   H755    1.083   .     S
C726   C233    1.393   1_556 S
C727   C734    1.420   .     A
C727   C233    1.413   1_556 S
C727   C240    1.426   1_556 S
C728   H756    1.081   .     S
C729   N761    1.158   .     T
C730   C731    1.540   .     S
C730   H749    1.110   .     S
C730   H750    1.108   .     S
C730   C739    1.531   .     S
C731   H748    1.110   .     S
C731   H747    1.111   .     S
C731   C732    1.528   .     S
C733   N762    1.156   .     T
C733   C738    1.442   .     S
C734   C738    1.418   .     A
C735   C736    1.421   .     A
C735   C739    1.424   .     A
C737   C738    1.390   .     A
C737   H753    1.086   .     S
C737   C241    1.392   1_556 S
C740   H743    1.084   .     S
Cu741  O767    1.948   .     S
Cu741  O763    1.949   .     S
Cu741  Cu742   2.696   .     S
Cu741  O769    1.912   .     S
Cu741  O765    1.931   .     S
Cu741  N760    2.026   .     S
Cu742  O768    1.949   .     S
Cu742  O766    1.912   .     S
Cu742  O770    1.931   .     S
Cu742  N759    2.026   .     S
Cu742  O764    1.948   .     S
H744   C897    1.111   .     S
H745   C897    1.111   .     S
H746   C897    1.111   .     S
H751   C885    1.087   .     S
H752   N815    1.029   .     S
H757   C781    1.081   .     S
N759   C784    1.386   .     S
N759   N815    1.280   .     S
C771   O818    1.292   .     A
C771   O819    1.291   .     A
C771   C773    1.428   .     S
C772   C774    1.479   .     S
C772   C780    1.403   .     A
C772   C789    1.423   .     A
C773   C940    1.330   .     S
C773   H978    1.088   .     S
C774   O821    1.302   .     A
C774   O820    1.305   .     A
C775   C776    1.427   .     S
C776   O822    1.290   .     A
C776   O823    1.293   .     A
C777   O824    1.299   .     A
C777   O825    1.300   .     A
C777   C779    1.462   .     S
C778   H809    1.084   .     S
C778   C791    1.400   .     A
C778   C795    1.386   .     A
C779   C795    1.398   .     A
C779   C794    1.412   .     A
C780   C781    1.390   .     A
C780   H810    1.083   .     S
C781   C288    1.393   1_556 S
C782   C789    1.420   .     A
C782   C288    1.413   1_556 S
C782   C295    1.426   1_556 S
C783   H811    1.081   .     S
C784   N816    1.158   .     T
C785   C786    1.540   .     S
C785   H804    1.110   .     S
C785   H805    1.108   .     S
C785   C794    1.531   .     S
C786   H803    1.110   .     S
C786   H802    1.111   .     S
C786   C787    1.528   .     S
C788   N817    1.156   .     T
C788   C793    1.442   .     S
C789   C793    1.418   .     A
C790   C791    1.421   .     A
C790   C794    1.424   .     A
C792   C793    1.390   .     A
C792   H808    1.086   .     S
C792   C296    1.392   1_556 S
C795   H798    1.084   .     S
Cu796  O822    1.948   .     S
Cu796  O818    1.949   .     S
Cu796  Cu797   2.696   .     S
Cu796  O824    1.912   .     S
Cu796  O820    1.931   .     S
Cu796  N815    2.026   .     S
Cu797  O823    1.949   .     S
Cu797  O821    1.912   .     S
Cu797  O825    1.931   .     S
Cu797  N814    2.026   .     S
Cu797  O819    1.948   .     S
H799   C952    1.111   .     S
H800   C952    1.111   .     S
H801   C952    1.111   .     S
H806   C940    1.087   .     S
H807   N705    1.029   1_655 S
H812   C671    1.081   1_655 S
N814   C674    1.386   1_655 S
N814   N705    1.280   1_655 S
C826   O873    1.292   .     A
C826   O874    1.291   .     A
C826   C828    1.428   .     S
C827   C829    1.479   .     S
C827   C835    1.403   .     A
C827   C844    1.423   .     A
C828   C500    1.330   1_565 S
C828   H538    1.088   1_565 S
C829   O876    1.302   .     A
C829   O875    1.305   .     A
C830   C831    1.427   .     S
C831   O877    1.290   .     A
C831   O878    1.293   .     A
C832   O879    1.299   .     A
C832   O880    1.300   .     A
C832   C834    1.462   .     S
C833   H864    1.084   .     S
C833   C846    1.400   .     A
C833   C850    1.386   .     A
C834   C850    1.398   .     A
C834   C849    1.412   .     A
C835   C836    1.390   .     A
C835   H865    1.083   .     S
C836   C343    1.393   1_556 S
C836   H977    1.081   1_455 S
C837   C844    1.420   .     A
C837   C343    1.413   1_556 S
C837   C350    1.426   1_556 S
C838   H866    1.081   .     S
C839   N871    1.158   .     T
C839   N979    1.386   1_455 S
C840   C841    1.540   .     S
C840   H859    1.110   .     S
C840   H860    1.108   .     S
C840   C849    1.531   .     S
C841   H858    1.110   .     S
C841   H857    1.111   .     S
C841   C842    1.528   .     S
C843   N872    1.156   .     T
C843   C848    1.442   .     S
C844   C848    1.418   .     A
C845   C846    1.421   .     A
C845   C849    1.424   .     A
C847   C848    1.390   .     A
C847   H863    1.086   .     S
C847   C351    1.392   1_556 S
C850   H853    1.084   .     S
Cu851  O877    1.948   .     S
Cu851  O873    1.949   .     S
Cu851  Cu852   2.696   .     S
Cu851  O879    1.912   .     S
Cu851  O875    1.931   .     S
Cu851  N870    2.026   .     S
Cu852  O878    1.949   .     S
Cu852  O876    1.912   .     S
Cu852  O880    1.931   .     S
Cu852  N869    2.026   .     S
Cu852  O874    1.948   .     S
H854   C512    1.111   1_565 S
H855   C512    1.111   1_565 S
H856   C512    1.111   1_565 S
H861   C500    1.087   1_565 S
H862   N925    1.029   .     S
H867   C891    1.081   .     S
N869   C894    1.386   .     S
N869   N925    1.280   .     S
N870   N979    1.280   1_455 S
N870   H972    1.029   1_455 S
C881   O928    1.292   .     A
C881   O929    1.291   .     A
C881   C883    1.428   .     S
C882   C884    1.479   .     S
C882   C890    1.403   .     A
C882   C899    1.423   .     A
C883   C555    1.330   1_565 S
C883   H593    1.088   1_565 S
C884   O931    1.302   .     A
C884   O930    1.305   .     A
C885   C886    1.427   .     S
C886   O932    1.290   .     A
C886   O933    1.293   .     A
C887   O934    1.299   .     A
C887   O935    1.300   .     A
C887   C889    1.462   .     S
C888   H919    1.084   .     S
C888   C901    1.400   .     A
C888   C905    1.386   .     A
C889   C905    1.398   .     A
C889   C904    1.412   .     A
C890   C891    1.390   .     A
C890   H920    1.083   .     S
C891   C398    1.393   1_556 S
C892   C899    1.420   .     A
C892   C398    1.413   1_556 S
C892   C405    1.426   1_556 S
C893   H921    1.081   .     S
C894   N926    1.158   .     T
C895   C896    1.540   .     S
C895   H914    1.110   .     S
C895   H915    1.108   .     S
C895   C904    1.531   .     S
C896   H913    1.110   .     S
C896   H912    1.111   .     S
C896   C897    1.528   .     S
C898   N927    1.156   .     T
C898   C903    1.442   .     S
C899   C903    1.418   .     A
C900   C901    1.421   .     A
C900   C904    1.424   .     A
C902   C903    1.390   .     A
C902   H918    1.086   .     S
C902   C406    1.392   1_556 S
C905   H908    1.084   .     S
Cu906  O932    1.948   .     S
Cu906  O928    1.949   .     S
Cu906  Cu907   2.696   .     S
Cu906  O934    1.912   .     S
Cu906  O930    1.931   .     S
Cu906  N925    2.026   .     S
Cu907  O933    1.949   .     S
Cu907  O931    1.912   .     S
Cu907  O935    1.931   .     S
Cu907  N924    2.026   .     S
Cu907  O929    1.948   .     S
H909   C567    1.111   1_565 S
H910   C567    1.111   1_565 S
H911   C567    1.111   1_565 S
H916   C555    1.087   1_565 S
H917   N980    1.029   .     S
H922   C946    1.081   .     S
N924   C949    1.386   .     S
N924   N980    1.280   .     S
C936   O983    1.292   .     A
C936   O984    1.291   .     A
C936   C938    1.428   .     S
C937   C939    1.479   .     S
C937   C945    1.403   .     A
C937   C954    1.423   .     A
C938   C610    1.330   1_565 S
C938   H648    1.088   1_565 S
C939   O986    1.302   .     A
C939   O985    1.305   .     A
C940   C941    1.427   .     S
C941   O987    1.290   .     A
C941   O988    1.293   .     A
C942   O989    1.299   .     A
C942   O990    1.300   .     A
C942   C944    1.462   .     S
C943   H974    1.084   .     S
C943   C956    1.400   .     A
C943   C960    1.386   .     A
C944   C960    1.398   .     A
C944   C959    1.412   .     A
C945   C946    1.390   .     A
C945   H975    1.083   .     S
C946   C453    1.393   1_556 S
C947   C954    1.420   .     A
C947   C453    1.413   1_556 S
C947   C460    1.426   1_556 S
C948   H976    1.081   .     S
C949   N981    1.158   .     T
C950   C951    1.540   .     S
C950   H969    1.110   .     S
C950   H970    1.108   .     S
C950   C959    1.531   .     S
C951   H968    1.110   .     S
C951   H967    1.111   .     S
C951   C952    1.528   .     S
C953   N982    1.156   .     T
C953   C958    1.442   .     S
C954   C958    1.418   .     A
C955   C956    1.421   .     A
C955   C959    1.424   .     A
C957   C958    1.390   .     A
C957   H973    1.086   .     S
C957   C461    1.392   1_556 S
C960   H963    1.084   .     S
Cu961  O987    1.948   .     S
Cu961  O983    1.949   .     S
Cu961  Cu962   2.696   .     S
Cu961  O989    1.912   .     S
Cu961  O985    1.931   .     S
Cu961  N980    2.026   .     S
Cu962  O988    1.949   .     S
Cu962  O986    1.912   .     S
Cu962  O990    1.931   .     S
Cu962  N979    2.026   .     S
Cu962  O984    1.948   .     S
H964   C622    1.111   1_565 S
H965   C622    1.111   1_565 S
H966   C622    1.111   1_565 S
H971   C610    1.087   1_565 S
H972   N870    1.029   1_655 S
H977   C836    1.081   1_655 S
N979   C839    1.386   1_655 S
N979   N870    1.280   1_655 S
