data_str_m2_o10_o17_pcu_sym.145
_audit_creation_date              2020-01-03
_audit_creation_method            'Materials Studio'
_symmetry_space_group_name_H-M    'P1'
_symmetry_Int_Tables_number       1
_symmetry_cell_setting            triclinic
loop_
_symmetry_equiv_pos_as_xyz
  x,y,z
_cell_length_a                    30.0171
_cell_length_b                    27.1371
_cell_length_c                    22.5500
_cell_angle_alpha                 103.4593
_cell_angle_beta                  95.7614
_cell_angle_gamma                 98.8494
loop_
_atom_site_label
_atom_site_type_symbol
_atom_site_fract_x
_atom_site_fract_y
_atom_site_fract_z
_atom_site_U_iso_or_equiv
_atom_site_adp_type
_atom_site_occupancy
C1     C     0.24781   0.06658   0.15102   0.00000  Uiso   1.00
C2     C     0.25160   0.26666   0.18235   0.00000  Uiso   1.00
C3     C     0.00932   0.07815   0.17712   0.00000  Uiso   1.00
C4     C     0.49122   0.25517   0.15976   0.00000  Uiso   1.00
C5     C     0.24482   0.01062   0.14225   0.00000  Uiso   1.00
C6     C     0.25318   0.32243   0.19136   0.00000  Uiso   1.00
C7     C     0.16409   0.16330   0.16567   0.00000  Uiso   1.00
C8     C     0.33609   0.16950   0.16769   0.00000  Uiso   1.00
C9     C     0.41305   0.20835   0.15086   0.00000  Uiso   1.00
C10    C     0.08672   0.12090   0.17363   0.00000  Uiso   1.00
C11    C     0.38506   0.17034   0.17007   0.00000  Uiso   1.00
C12    C     0.11570   0.16341   0.16431   0.00000  Uiso   1.00
C13    C     0.40524   0.13618   0.19765   0.00000  Uiso   1.00
C14    C     0.09836   0.20617   0.15344   0.00000  Uiso   1.00
C15    C     0.44861   0.12778   0.18488   0.00000  Uiso   1.00
C16    C     0.05378   0.21031   0.16445   0.00000  Uiso   1.00
C17    C     0.47755   0.16802   0.17068   0.00000  Uiso   1.00
C18    C     0.02386   0.16643   0.16933   0.00000  Uiso   1.00
C19    C     0.46037   0.21058   0.15874   0.00000  Uiso   1.00
C20    C     0.04011   0.12145   0.17349   0.00000  Uiso   1.00
C21    C     0.46377   0.08102   0.18512   0.00000  Uiso   1.00
C22    C     0.03810   0.25733   0.17325   0.00000  Uiso   1.00
Cu23   Cu    0.25501   0.17246   0.22813   0.00000  Uiso   1.00
Cu24   Cu    0.24500   0.16087   0.10521   0.00000  Uiso   1.00
H25    H     0.39859   0.23829   0.13566   0.00000  Uiso   1.00
H26    H     0.10036   0.08738   0.17967   0.00000  Uiso   1.00
H27    H     0.02020   0.04175   0.17068   0.00000  Uiso   1.00
H28    H     0.47943   0.28939   0.15590   0.00000  Uiso   1.00
N29    N     0.23745   0.15214   0.01284   0.00000  Uiso   1.00
N30    N     0.26256   0.18119   0.32049   0.00000  Uiso   1.00
O31    O     0.25326   0.09538   0.20659   0.00000  Uiso   1.00
O32    O     0.24675   0.23796   0.12674   0.00000  Uiso   1.00
O33    O     0.24480   0.08559   0.10279   0.00000  Uiso   1.00
O34    O     0.25520   0.24774   0.23055   0.00000  Uiso   1.00
O35    O     0.18936   0.17155   0.21857   0.00000  Uiso   1.00
O36    O     0.31065   0.16179   0.11476   0.00000  Uiso   1.00
O37    O     0.18090   0.16176   0.11477   0.00000  Uiso   1.00
O38    O     0.31910   0.17157   0.21857   0.00000  Uiso   1.00
C39    C     0.38709   0.12096   0.25209   0.00000  Uiso   1.00
H40    H     0.35616   0.09083   0.23666   0.00000  Uiso   1.00
H41    H     0.41325   0.10855   0.28025   0.00000  Uiso   1.00
H42    H     0.37971   0.15523   0.28435   0.00000  Uiso   1.00
C43    C     0.12553   0.24380   0.12443   0.00000  Uiso   1.00
H44    H     0.10445   0.26847   0.10614   0.00000  Uiso   1.00
H45    H     0.15472   0.26805   0.15788   0.00000  Uiso   1.00
H46    H     0.13794   0.22237   0.08316   0.00000  Uiso   1.00
C47    C     0.43056   0.03194   0.18246   0.00000  Uiso   1.00
C48    C     0.43887   0.01124   0.23971   0.00000  Uiso   1.00
H49    H     0.47539   0.01092   0.25210   0.00000  Uiso   1.00
H50    H     0.42720   0.03423   0.28038   0.00000  Uiso   1.00
H51    H     0.41939   0.30486   0.23090   0.00000  Uiso   1.00
H52    H     0.39455   0.03639   0.17571   0.00000  Uiso   1.00
H53    H     0.43278   0.00301   0.13983   0.00000  Uiso   1.00
C54    C     0.06803   0.30778   0.21114   0.00000  Uiso   1.00
C55    C     0.09738   0.30190   0.26793   0.00000  Uiso   1.00
H56    H     0.07614   0.28070   0.29487   0.00000  Uiso   1.00
H57    H     0.12560   0.28150   0.25520   0.00000  Uiso   1.00
H58    H     0.11285   0.00732   0.29789   0.00000  Uiso   1.00
H59    H     0.08942   0.32693   0.18280   0.00000  Uiso   1.00
H60    H     0.04615   0.00129   0.23083   0.00000  Uiso   1.00
C61    C     0.23132   0.31219   0.07563   0.00000  Uiso   1.00
H62    H     0.22118   0.00150   0.04320   0.00000  Uiso   1.00
H63    H     0.26039   0.29524   0.05869   0.00000  Uiso   1.00
H64    H     0.20104   0.28198   0.07137   0.00000  Uiso   1.00
C65    C     0.26418   0.02047   0.25841   0.00000  Uiso   1.00
H66    H     0.27251   0.33107   0.29154   0.00000  Uiso   1.00
H67    H     0.29468   0.05078   0.26521   0.00000  Uiso   1.00
H68    H     0.23433   0.03710   0.27279   0.00000  Uiso   1.00
C69    C     0.19265   0.12673   0.31484   0.00000  Uiso   1.00
H70    H     0.17828   0.09893   0.00678   0.00000  Uiso   1.00
H71    H     0.16976   0.15526   0.31554   0.00000  Uiso   1.00
H72    H     0.19352   0.10376   0.26789   0.00000  Uiso   1.00
C73    C     0.30704   0.20723   0.01894   0.00000  Uiso   1.00
H74    H     0.32993   0.17899   0.01987   0.00000  Uiso   1.00
H75    H     0.32172   0.23442   0.32644   0.00000  Uiso   1.00
H76    H     0.30567   0.23078   0.06539   0.00000  Uiso   1.00
C77    C     0.74781   0.06658   0.15102   0.00000  Uiso   1.00
C78    C     0.75160   0.26666   0.18235   0.00000  Uiso   1.00
C79    C     0.50932   0.07815   0.17712   0.00000  Uiso   1.00
C80    C     0.99122   0.25517   0.15976   0.00000  Uiso   1.00
C81    C     0.74482   0.01062   0.14225   0.00000  Uiso   1.00
C82    C     0.75318   0.32243   0.19136   0.00000  Uiso   1.00
C83    C     0.66409   0.16330   0.16567   0.00000  Uiso   1.00
C84    C     0.83609   0.16950   0.16769   0.00000  Uiso   1.00
C85    C     0.91305   0.20835   0.15086   0.00000  Uiso   1.00
C86    C     0.58672   0.12090   0.17363   0.00000  Uiso   1.00
C87    C     0.88506   0.17034   0.17007   0.00000  Uiso   1.00
C88    C     0.61570   0.16341   0.16431   0.00000  Uiso   1.00
C89    C     0.90524   0.13618   0.19765   0.00000  Uiso   1.00
C90    C     0.59836   0.20617   0.15344   0.00000  Uiso   1.00
C91    C     0.94861   0.12778   0.18488   0.00000  Uiso   1.00
C92    C     0.55378   0.21031   0.16445   0.00000  Uiso   1.00
C93    C     0.97755   0.16802   0.17068   0.00000  Uiso   1.00
C94    C     0.52386   0.16643   0.16933   0.00000  Uiso   1.00
C95    C     0.96037   0.21058   0.15874   0.00000  Uiso   1.00
C96    C     0.54011   0.12145   0.17349   0.00000  Uiso   1.00
C97    C     0.96377   0.08102   0.18512   0.00000  Uiso   1.00
C98    C     0.53810   0.25733   0.17325   0.00000  Uiso   1.00
Cu99   Cu    0.75501   0.17246   0.22813   0.00000  Uiso   1.00
Cu100  Cu    0.74500   0.16087   0.10521   0.00000  Uiso   1.00
H101   H     0.89859   0.23829   0.13566   0.00000  Uiso   1.00
H102   H     0.60036   0.08738   0.17967   0.00000  Uiso   1.00
H103   H     0.52020   0.04175   0.17068   0.00000  Uiso   1.00
H104   H     0.97943   0.28939   0.15590   0.00000  Uiso   1.00
N105   N     0.73745   0.15214   0.01284   0.00000  Uiso   1.00
N106   N     0.76256   0.18119   0.32049   0.00000  Uiso   1.00
O107   O     0.75326   0.09538   0.20659   0.00000  Uiso   1.00
O108   O     0.74675   0.23796   0.12674   0.00000  Uiso   1.00
O109   O     0.74480   0.08559   0.10279   0.00000  Uiso   1.00
O110   O     0.75520   0.24774   0.23055   0.00000  Uiso   1.00
O111   O     0.68936   0.17155   0.21857   0.00000  Uiso   1.00
O112   O     0.81065   0.16179   0.11476   0.00000  Uiso   1.00
O113   O     0.68090   0.16176   0.11477   0.00000  Uiso   1.00
O114   O     0.81910   0.17157   0.21857   0.00000  Uiso   1.00
C115   C     0.88709   0.12096   0.25209   0.00000  Uiso   1.00
H116   H     0.85616   0.09083   0.23666   0.00000  Uiso   1.00
H117   H     0.91325   0.10855   0.28025   0.00000  Uiso   1.00
H118   H     0.87971   0.15523   0.28435   0.00000  Uiso   1.00
C119   C     0.62553   0.24380   0.12443   0.00000  Uiso   1.00
H120   H     0.60445   0.26847   0.10614   0.00000  Uiso   1.00
H121   H     0.65472   0.26805   0.15788   0.00000  Uiso   1.00
H122   H     0.63794   0.22237   0.08316   0.00000  Uiso   1.00
C123   C     0.93056   0.03194   0.18246   0.00000  Uiso   1.00
C124   C     0.93887   0.01124   0.23971   0.00000  Uiso   1.00
H125   H     0.97539   0.01092   0.25210   0.00000  Uiso   1.00
H126   H     0.92720   0.03423   0.28038   0.00000  Uiso   1.00
H127   H     0.91939   0.30486   0.23090   0.00000  Uiso   1.00
H128   H     0.89455   0.03639   0.17571   0.00000  Uiso   1.00
H129   H     0.93278   0.00301   0.13983   0.00000  Uiso   1.00
C130   C     0.56803   0.30778   0.21114   0.00000  Uiso   1.00
C131   C     0.59738   0.30190   0.26793   0.00000  Uiso   1.00
H132   H     0.57614   0.28070   0.29487   0.00000  Uiso   1.00
H133   H     0.62560   0.28150   0.25520   0.00000  Uiso   1.00
H134   H     0.61285   0.00732   0.29789   0.00000  Uiso   1.00
H135   H     0.58942   0.32693   0.18280   0.00000  Uiso   1.00
H136   H     0.54615   0.00129   0.23083   0.00000  Uiso   1.00
C137   C     0.73132   0.31219   0.07563   0.00000  Uiso   1.00
H138   H     0.72118   0.00150   0.04320   0.00000  Uiso   1.00
H139   H     0.76039   0.29524   0.05869   0.00000  Uiso   1.00
H140   H     0.70104   0.28198   0.07137   0.00000  Uiso   1.00
C141   C     0.76418   0.02047   0.25841   0.00000  Uiso   1.00
H142   H     0.77251   0.33107   0.29154   0.00000  Uiso   1.00
H143   H     0.79468   0.05078   0.26521   0.00000  Uiso   1.00
H144   H     0.73433   0.03710   0.27279   0.00000  Uiso   1.00
C145   C     0.69265   0.12673   0.31484   0.00000  Uiso   1.00
H146   H     0.67828   0.09893   0.00678   0.00000  Uiso   1.00
H147   H     0.66976   0.15526   0.31554   0.00000  Uiso   1.00
H148   H     0.69352   0.10376   0.26789   0.00000  Uiso   1.00
C149   C     0.80704   0.20723   0.01894   0.00000  Uiso   1.00
H150   H     0.82993   0.17899   0.01987   0.00000  Uiso   1.00
H151   H     0.82172   0.23442   0.32644   0.00000  Uiso   1.00
H152   H     0.80567   0.23078   0.06539   0.00000  Uiso   1.00
C153   C     0.24781   0.39991   0.15102   0.00000  Uiso   1.00
C154   C     0.25160   0.60000   0.18235   0.00000  Uiso   1.00
C155   C     0.00932   0.41148   0.17712   0.00000  Uiso   1.00
C156   C     0.49122   0.58850   0.15976   0.00000  Uiso   1.00
C157   C     0.24482   0.34395   0.14225   0.00000  Uiso   1.00
C158   C     0.25318   0.65576   0.19136   0.00000  Uiso   1.00
C159   C     0.16409   0.49663   0.16567   0.00000  Uiso   1.00
C160   C     0.33609   0.50283   0.16769   0.00000  Uiso   1.00
C161   C     0.41305   0.54168   0.15086   0.00000  Uiso   1.00
C162   C     0.08672   0.45424   0.17363   0.00000  Uiso   1.00
C163   C     0.38506   0.50368   0.17007   0.00000  Uiso   1.00
C164   C     0.11570   0.49674   0.16431   0.00000  Uiso   1.00
C165   C     0.40524   0.46951   0.19765   0.00000  Uiso   1.00
C166   C     0.09836   0.53951   0.15344   0.00000  Uiso   1.00
C167   C     0.44861   0.46111   0.18488   0.00000  Uiso   1.00
C168   C     0.05378   0.54364   0.16445   0.00000  Uiso   1.00
C169   C     0.47755   0.50135   0.17068   0.00000  Uiso   1.00
C170   C     0.02386   0.49976   0.16933   0.00000  Uiso   1.00
C171   C     0.46037   0.54391   0.15874   0.00000  Uiso   1.00
C172   C     0.04011   0.45478   0.17349   0.00000  Uiso   1.00
C173   C     0.46377   0.41435   0.18512   0.00000  Uiso   1.00
C174   C     0.03810   0.59067   0.17325   0.00000  Uiso   1.00
Cu175  Cu    0.25501   0.50579   0.22813   0.00000  Uiso   1.00
Cu176  Cu    0.24500   0.49421   0.10521   0.00000  Uiso   1.00
H177   H     0.39859   0.57163   0.13566   0.00000  Uiso   1.00
H178   H     0.10036   0.42071   0.17967   0.00000  Uiso   1.00
H179   H     0.02020   0.37508   0.17068   0.00000  Uiso   1.00
H180   H     0.47943   0.62273   0.15590   0.00000  Uiso   1.00
N181   N     0.23745   0.48547   0.01284   0.00000  Uiso   1.00
N182   N     0.26256   0.51453   0.32049   0.00000  Uiso   1.00
O183   O     0.25326   0.42871   0.20659   0.00000  Uiso   1.00
O184   O     0.24675   0.57129   0.12674   0.00000  Uiso   1.00
O185   O     0.24480   0.41892   0.10279   0.00000  Uiso   1.00
O186   O     0.25520   0.58108   0.23055   0.00000  Uiso   1.00
O187   O     0.18936   0.50488   0.21857   0.00000  Uiso   1.00
O188   O     0.31065   0.49512   0.11476   0.00000  Uiso   1.00
O189   O     0.18090   0.49510   0.11477   0.00000  Uiso   1.00
O190   O     0.31910   0.50490   0.21857   0.00000  Uiso   1.00
C191   C     0.38709   0.45429   0.25209   0.00000  Uiso   1.00
H192   H     0.35616   0.42416   0.23666   0.00000  Uiso   1.00
H193   H     0.41325   0.44188   0.28025   0.00000  Uiso   1.00
H194   H     0.37971   0.48856   0.28435   0.00000  Uiso   1.00
C195   C     0.12553   0.57714   0.12443   0.00000  Uiso   1.00
H196   H     0.10445   0.60181   0.10614   0.00000  Uiso   1.00
H197   H     0.15472   0.60139   0.15788   0.00000  Uiso   1.00
H198   H     0.13794   0.55571   0.08316   0.00000  Uiso   1.00
C199   C     0.43056   0.36527   0.18246   0.00000  Uiso   1.00
C200   C     0.43887   0.34458   0.23971   0.00000  Uiso   1.00
H201   H     0.47539   0.34425   0.25210   0.00000  Uiso   1.00
H202   H     0.42720   0.36756   0.28038   0.00000  Uiso   1.00
H203   H     0.41939   0.63819   0.23090   0.00000  Uiso   1.00
H204   H     0.39455   0.36972   0.17571   0.00000  Uiso   1.00
H205   H     0.43278   0.33634   0.13983   0.00000  Uiso   1.00
C206   C     0.06803   0.64111   0.21114   0.00000  Uiso   1.00
C207   C     0.09738   0.63523   0.26793   0.00000  Uiso   1.00
H208   H     0.07614   0.61403   0.29487   0.00000  Uiso   1.00
H209   H     0.12560   0.61483   0.25520   0.00000  Uiso   1.00
H210   H     0.11285   0.34065   0.29789   0.00000  Uiso   1.00
H211   H     0.08942   0.66027   0.18280   0.00000  Uiso   1.00
H212   H     0.04615   0.33462   0.23083   0.00000  Uiso   1.00
C213   C     0.23132   0.64552   0.07563   0.00000  Uiso   1.00
H214   H     0.22118   0.33484   0.04320   0.00000  Uiso   1.00
H215   H     0.26039   0.62858   0.05869   0.00000  Uiso   1.00
H216   H     0.20104   0.61531   0.07137   0.00000  Uiso   1.00
C217   C     0.26418   0.35380   0.25841   0.00000  Uiso   1.00
H218   H     0.27251   0.66440   0.29154   0.00000  Uiso   1.00
H219   H     0.29468   0.38412   0.26521   0.00000  Uiso   1.00
H220   H     0.23433   0.37044   0.27279   0.00000  Uiso   1.00
C221   C     0.19265   0.46006   0.31484   0.00000  Uiso   1.00
H222   H     0.17828   0.43226   0.00678   0.00000  Uiso   1.00
H223   H     0.16976   0.48859   0.31554   0.00000  Uiso   1.00
H224   H     0.19352   0.43709   0.26789   0.00000  Uiso   1.00
C225   C     0.30704   0.54056   0.01894   0.00000  Uiso   1.00
H226   H     0.32993   0.51232   0.01987   0.00000  Uiso   1.00
H227   H     0.32172   0.56775   0.32644   0.00000  Uiso   1.00
H228   H     0.30567   0.56411   0.06539   0.00000  Uiso   1.00
C229   C     0.74781   0.39991   0.15102   0.00000  Uiso   1.00
C230   C     0.75160   0.60000   0.18235   0.00000  Uiso   1.00
C231   C     0.50932   0.41148   0.17712   0.00000  Uiso   1.00
C232   C     0.99122   0.58850   0.15976   0.00000  Uiso   1.00
C233   C     0.74482   0.34395   0.14225   0.00000  Uiso   1.00
C234   C     0.75318   0.65576   0.19136   0.00000  Uiso   1.00
C235   C     0.66409   0.49663   0.16567   0.00000  Uiso   1.00
C236   C     0.83609   0.50283   0.16769   0.00000  Uiso   1.00
C237   C     0.91305   0.54168   0.15086   0.00000  Uiso   1.00
C238   C     0.58672   0.45424   0.17363   0.00000  Uiso   1.00
C239   C     0.88506   0.50368   0.17007   0.00000  Uiso   1.00
C240   C     0.61570   0.49674   0.16431   0.00000  Uiso   1.00
C241   C     0.90524   0.46951   0.19765   0.00000  Uiso   1.00
C242   C     0.59836   0.53951   0.15344   0.00000  Uiso   1.00
C243   C     0.94861   0.46111   0.18488   0.00000  Uiso   1.00
C244   C     0.55378   0.54364   0.16445   0.00000  Uiso   1.00
C245   C     0.97755   0.50135   0.17068   0.00000  Uiso   1.00
C246   C     0.52386   0.49976   0.16933   0.00000  Uiso   1.00
C247   C     0.96037   0.54391   0.15874   0.00000  Uiso   1.00
C248   C     0.54011   0.45478   0.17349   0.00000  Uiso   1.00
C249   C     0.96377   0.41435   0.18512   0.00000  Uiso   1.00
C250   C     0.53810   0.59067   0.17325   0.00000  Uiso   1.00
Cu251  Cu    0.75501   0.50579   0.22813   0.00000  Uiso   1.00
Cu252  Cu    0.74500   0.49421   0.10521   0.00000  Uiso   1.00
H253   H     0.89859   0.57163   0.13566   0.00000  Uiso   1.00
H254   H     0.60036   0.42071   0.17967   0.00000  Uiso   1.00
H255   H     0.52020   0.37508   0.17068   0.00000  Uiso   1.00
H256   H     0.97943   0.62273   0.15590   0.00000  Uiso   1.00
N257   N     0.73745   0.48547   0.01284   0.00000  Uiso   1.00
N258   N     0.76256   0.51453   0.32049   0.00000  Uiso   1.00
O259   O     0.75326   0.42871   0.20659   0.00000  Uiso   1.00
O260   O     0.74675   0.57129   0.12674   0.00000  Uiso   1.00
O261   O     0.74480   0.41892   0.10279   0.00000  Uiso   1.00
O262   O     0.75520   0.58108   0.23055   0.00000  Uiso   1.00
O263   O     0.68936   0.50488   0.21857   0.00000  Uiso   1.00
O264   O     0.81065   0.49512   0.11476   0.00000  Uiso   1.00
O265   O     0.68090   0.49510   0.11477   0.00000  Uiso   1.00
O266   O     0.81910   0.50490   0.21857   0.00000  Uiso   1.00
C267   C     0.88709   0.45429   0.25209   0.00000  Uiso   1.00
H268   H     0.85616   0.42416   0.23666   0.00000  Uiso   1.00
H269   H     0.91325   0.44188   0.28025   0.00000  Uiso   1.00
H270   H     0.87971   0.48856   0.28435   0.00000  Uiso   1.00
C271   C     0.62553   0.57714   0.12443   0.00000  Uiso   1.00
H272   H     0.60445   0.60181   0.10614   0.00000  Uiso   1.00
H273   H     0.65472   0.60139   0.15788   0.00000  Uiso   1.00
H274   H     0.63794   0.55571   0.08316   0.00000  Uiso   1.00
C275   C     0.93056   0.36527   0.18246   0.00000  Uiso   1.00
C276   C     0.93887   0.34458   0.23971   0.00000  Uiso   1.00
H277   H     0.97539   0.34425   0.25210   0.00000  Uiso   1.00
H278   H     0.92720   0.36756   0.28038   0.00000  Uiso   1.00
H279   H     0.91939   0.63819   0.23090   0.00000  Uiso   1.00
H280   H     0.89455   0.36972   0.17571   0.00000  Uiso   1.00
H281   H     0.93278   0.33634   0.13983   0.00000  Uiso   1.00
C282   C     0.56803   0.64111   0.21114   0.00000  Uiso   1.00
C283   C     0.59738   0.63523   0.26793   0.00000  Uiso   1.00
H284   H     0.57614   0.61403   0.29487   0.00000  Uiso   1.00
H285   H     0.62560   0.61483   0.25520   0.00000  Uiso   1.00
H286   H     0.61285   0.34065   0.29789   0.00000  Uiso   1.00
H287   H     0.58942   0.66027   0.18280   0.00000  Uiso   1.00
H288   H     0.54615   0.33462   0.23083   0.00000  Uiso   1.00
C289   C     0.73132   0.64552   0.07563   0.00000  Uiso   1.00
H290   H     0.72118   0.33484   0.04320   0.00000  Uiso   1.00
H291   H     0.76039   0.62858   0.05869   0.00000  Uiso   1.00
H292   H     0.70104   0.61531   0.07137   0.00000  Uiso   1.00
C293   C     0.76418   0.35380   0.25841   0.00000  Uiso   1.00
H294   H     0.77251   0.66440   0.29154   0.00000  Uiso   1.00
H295   H     0.79468   0.38412   0.26521   0.00000  Uiso   1.00
H296   H     0.73433   0.37044   0.27279   0.00000  Uiso   1.00
C297   C     0.69265   0.46006   0.31484   0.00000  Uiso   1.00
H298   H     0.67828   0.43226   0.00678   0.00000  Uiso   1.00
H299   H     0.66976   0.48859   0.31554   0.00000  Uiso   1.00
H300   H     0.69352   0.43709   0.26789   0.00000  Uiso   1.00
C301   C     0.80704   0.54056   0.01894   0.00000  Uiso   1.00
H302   H     0.82993   0.51232   0.01987   0.00000  Uiso   1.00
H303   H     0.82172   0.56775   0.32644   0.00000  Uiso   1.00
H304   H     0.80567   0.56411   0.06539   0.00000  Uiso   1.00
C305   C     0.24781   0.73324   0.15102   0.00000  Uiso   1.00
C306   C     0.25160   0.93333   0.18235   0.00000  Uiso   1.00
C307   C     0.00932   0.74482   0.17712   0.00000  Uiso   1.00
C308   C     0.49122   0.92184   0.15976   0.00000  Uiso   1.00
C309   C     0.24482   0.67728   0.14225   0.00000  Uiso   1.00
C310   C     0.25318   0.98910   0.19136   0.00000  Uiso   1.00
C311   C     0.16409   0.82996   0.16567   0.00000  Uiso   1.00
C312   C     0.33609   0.83616   0.16769   0.00000  Uiso   1.00
C313   C     0.41305   0.87501   0.15086   0.00000  Uiso   1.00
C314   C     0.08672   0.78757   0.17363   0.00000  Uiso   1.00
C315   C     0.38506   0.83701   0.17007   0.00000  Uiso   1.00
C316   C     0.11570   0.83008   0.16431   0.00000  Uiso   1.00
C317   C     0.40524   0.80285   0.19765   0.00000  Uiso   1.00
C318   C     0.09836   0.87284   0.15344   0.00000  Uiso   1.00
C319   C     0.44861   0.79444   0.18488   0.00000  Uiso   1.00
C320   C     0.05378   0.87698   0.16445   0.00000  Uiso   1.00
C321   C     0.47755   0.83469   0.17068   0.00000  Uiso   1.00
C322   C     0.02386   0.83309   0.16933   0.00000  Uiso   1.00
C323   C     0.46037   0.87725   0.15874   0.00000  Uiso   1.00
C324   C     0.04011   0.78811   0.17349   0.00000  Uiso   1.00
C325   C     0.46377   0.74769   0.18512   0.00000  Uiso   1.00
C326   C     0.03810   0.92400   0.17325   0.00000  Uiso   1.00
Cu327  Cu    0.25501   0.83913   0.22813   0.00000  Uiso   1.00
Cu328  Cu    0.24500   0.82754   0.10521   0.00000  Uiso   1.00
H329   H     0.39859   0.90496   0.13566   0.00000  Uiso   1.00
H330   H     0.10036   0.75404   0.17967   0.00000  Uiso   1.00
H331   H     0.02020   0.70842   0.17068   0.00000  Uiso   1.00
H332   H     0.47943   0.95606   0.15590   0.00000  Uiso   1.00
N333   N     0.23745   0.81881   0.01284   0.00000  Uiso   1.00
N334   N     0.26256   0.84786   0.32049   0.00000  Uiso   1.00
O335   O     0.25326   0.76204   0.20659   0.00000  Uiso   1.00
O336   O     0.24675   0.90462   0.12674   0.00000  Uiso   1.00
O337   O     0.24480   0.75226   0.10279   0.00000  Uiso   1.00
O338   O     0.25520   0.91441   0.23055   0.00000  Uiso   1.00
O339   O     0.18936   0.83821   0.21857   0.00000  Uiso   1.00
O340   O     0.31065   0.82845   0.11476   0.00000  Uiso   1.00
O341   O     0.18090   0.82843   0.11477   0.00000  Uiso   1.00
O342   O     0.31910   0.83824   0.21857   0.00000  Uiso   1.00
C343   C     0.38709   0.78762   0.25209   0.00000  Uiso   1.00
H344   H     0.35616   0.75749   0.23666   0.00000  Uiso   1.00
H345   H     0.41325   0.77521   0.28025   0.00000  Uiso   1.00
H346   H     0.37971   0.82190   0.28435   0.00000  Uiso   1.00
C347   C     0.12553   0.91047   0.12443   0.00000  Uiso   1.00
H348   H     0.10445   0.93514   0.10614   0.00000  Uiso   1.00
H349   H     0.15472   0.93472   0.15788   0.00000  Uiso   1.00
H350   H     0.13794   0.88904   0.08316   0.00000  Uiso   1.00
C351   C     0.43056   0.69860   0.18246   0.00000  Uiso   1.00
C352   C     0.43887   0.67791   0.23971   0.00000  Uiso   1.00
H353   H     0.47539   0.67759   0.25210   0.00000  Uiso   1.00
H354   H     0.42720   0.70090   0.28038   0.00000  Uiso   1.00
H355   H     0.41939   0.97153   0.23090   0.00000  Uiso   1.00
H356   H     0.39455   0.70305   0.17571   0.00000  Uiso   1.00
H357   H     0.43278   0.66968   0.13983   0.00000  Uiso   1.00
C358   C     0.06803   0.97445   0.21114   0.00000  Uiso   1.00
C359   C     0.09738   0.96857   0.26793   0.00000  Uiso   1.00
H360   H     0.07614   0.94736   0.29487   0.00000  Uiso   1.00
H361   H     0.12560   0.94816   0.25520   0.00000  Uiso   1.00
H362   H     0.11285   0.67398   0.29789   0.00000  Uiso   1.00
H363   H     0.08942   0.99360   0.18280   0.00000  Uiso   1.00
H364   H     0.04615   0.66795   0.23083   0.00000  Uiso   1.00
C365   C     0.23132   0.97886   0.07563   0.00000  Uiso   1.00
H366   H     0.22118   0.66817   0.04320   0.00000  Uiso   1.00
H367   H     0.26039   0.96191   0.05869   0.00000  Uiso   1.00
H368   H     0.20104   0.94865   0.07137   0.00000  Uiso   1.00
C369   C     0.26418   0.68713   0.25841   0.00000  Uiso   1.00
H370   H     0.27251   0.99774   0.29154   0.00000  Uiso   1.00
H371   H     0.29468   0.71745   0.26521   0.00000  Uiso   1.00
H372   H     0.23433   0.70377   0.27279   0.00000  Uiso   1.00
C373   C     0.19265   0.79339   0.31484   0.00000  Uiso   1.00
H374   H     0.17828   0.76560   0.00678   0.00000  Uiso   1.00
H375   H     0.16976   0.82193   0.31554   0.00000  Uiso   1.00
H376   H     0.19352   0.77042   0.26789   0.00000  Uiso   1.00
C377   C     0.30704   0.87390   0.01894   0.00000  Uiso   1.00
H378   H     0.32993   0.84565   0.01987   0.00000  Uiso   1.00
H379   H     0.32172   0.90109   0.32644   0.00000  Uiso   1.00
H380   H     0.30567   0.89744   0.06539   0.00000  Uiso   1.00
C381   C     0.74781   0.73324   0.15102   0.00000  Uiso   1.00
C382   C     0.75160   0.93333   0.18235   0.00000  Uiso   1.00
C383   C     0.50932   0.74482   0.17712   0.00000  Uiso   1.00
C384   C     0.99122   0.92184   0.15976   0.00000  Uiso   1.00
C385   C     0.74482   0.67728   0.14225   0.00000  Uiso   1.00
C386   C     0.75318   0.98910   0.19136   0.00000  Uiso   1.00
C387   C     0.66409   0.82996   0.16567   0.00000  Uiso   1.00
C388   C     0.83609   0.83616   0.16769   0.00000  Uiso   1.00
C389   C     0.91305   0.87501   0.15086   0.00000  Uiso   1.00
C390   C     0.58672   0.78757   0.17363   0.00000  Uiso   1.00
C391   C     0.88506   0.83701   0.17007   0.00000  Uiso   1.00
C392   C     0.61570   0.83008   0.16431   0.00000  Uiso   1.00
C393   C     0.90524   0.80285   0.19765   0.00000  Uiso   1.00
C394   C     0.59836   0.87284   0.15344   0.00000  Uiso   1.00
C395   C     0.94861   0.79444   0.18488   0.00000  Uiso   1.00
C396   C     0.55378   0.87698   0.16445   0.00000  Uiso   1.00
C397   C     0.97755   0.83469   0.17068   0.00000  Uiso   1.00
C398   C     0.52386   0.83309   0.16933   0.00000  Uiso   1.00
C399   C     0.96037   0.87725   0.15874   0.00000  Uiso   1.00
C400   C     0.54011   0.78811   0.17349   0.00000  Uiso   1.00
C401   C     0.96377   0.74769   0.18512   0.00000  Uiso   1.00
C402   C     0.53810   0.92400   0.17325   0.00000  Uiso   1.00
Cu403  Cu    0.75501   0.83913   0.22813   0.00000  Uiso   1.00
Cu404  Cu    0.74500   0.82754   0.10521   0.00000  Uiso   1.00
H405   H     0.89859   0.90496   0.13566   0.00000  Uiso   1.00
H406   H     0.60036   0.75404   0.17967   0.00000  Uiso   1.00
H407   H     0.52020   0.70842   0.17068   0.00000  Uiso   1.00
H408   H     0.97943   0.95606   0.15590   0.00000  Uiso   1.00
N409   N     0.73745   0.81881   0.01284   0.00000  Uiso   1.00
N410   N     0.76256   0.84786   0.32049   0.00000  Uiso   1.00
O411   O     0.75326   0.76204   0.20659   0.00000  Uiso   1.00
O412   O     0.74675   0.90462   0.12674   0.00000  Uiso   1.00
O413   O     0.74480   0.75226   0.10279   0.00000  Uiso   1.00
O414   O     0.75520   0.91441   0.23055   0.00000  Uiso   1.00
O415   O     0.68936   0.83821   0.21857   0.00000  Uiso   1.00
O416   O     0.81065   0.82845   0.11476   0.00000  Uiso   1.00
O417   O     0.68090   0.82843   0.11477   0.00000  Uiso   1.00
O418   O     0.81910   0.83824   0.21857   0.00000  Uiso   1.00
C419   C     0.88709   0.78762   0.25209   0.00000  Uiso   1.00
H420   H     0.85616   0.75749   0.23666   0.00000  Uiso   1.00
H421   H     0.91325   0.77521   0.28025   0.00000  Uiso   1.00
H422   H     0.87971   0.82190   0.28435   0.00000  Uiso   1.00
C423   C     0.62553   0.91047   0.12443   0.00000  Uiso   1.00
H424   H     0.60445   0.93514   0.10614   0.00000  Uiso   1.00
H425   H     0.65472   0.93472   0.15788   0.00000  Uiso   1.00
H426   H     0.63794   0.88904   0.08316   0.00000  Uiso   1.00
C427   C     0.93056   0.69860   0.18246   0.00000  Uiso   1.00
C428   C     0.93887   0.67791   0.23971   0.00000  Uiso   1.00
H429   H     0.97539   0.67759   0.25210   0.00000  Uiso   1.00
H430   H     0.92720   0.70090   0.28038   0.00000  Uiso   1.00
H431   H     0.91939   0.97153   0.23090   0.00000  Uiso   1.00
H432   H     0.89455   0.70305   0.17571   0.00000  Uiso   1.00
H433   H     0.93278   0.66968   0.13983   0.00000  Uiso   1.00
C434   C     0.56803   0.97445   0.21114   0.00000  Uiso   1.00
C435   C     0.59738   0.96857   0.26793   0.00000  Uiso   1.00
H436   H     0.57614   0.94736   0.29487   0.00000  Uiso   1.00
H437   H     0.62560   0.94816   0.25520   0.00000  Uiso   1.00
H438   H     0.61285   0.67398   0.29789   0.00000  Uiso   1.00
H439   H     0.58942   0.99360   0.18280   0.00000  Uiso   1.00
H440   H     0.54615   0.66795   0.23083   0.00000  Uiso   1.00
C441   C     0.73132   0.97886   0.07563   0.00000  Uiso   1.00
H442   H     0.72118   0.66817   0.04320   0.00000  Uiso   1.00
H443   H     0.76039   0.96191   0.05869   0.00000  Uiso   1.00
H444   H     0.70104   0.94865   0.07137   0.00000  Uiso   1.00
C445   C     0.76418   0.68713   0.25841   0.00000  Uiso   1.00
H446   H     0.77251   0.99774   0.29154   0.00000  Uiso   1.00
H447   H     0.79468   0.71745   0.26521   0.00000  Uiso   1.00
H448   H     0.73433   0.70377   0.27279   0.00000  Uiso   1.00
C449   C     0.69265   0.79339   0.31484   0.00000  Uiso   1.00
H450   H     0.67828   0.76560   0.00678   0.00000  Uiso   1.00
H451   H     0.66976   0.82193   0.31554   0.00000  Uiso   1.00
H452   H     0.69352   0.77042   0.26789   0.00000  Uiso   1.00
C453   C     0.80704   0.87390   0.01894   0.00000  Uiso   1.00
H454   H     0.82993   0.84565   0.01987   0.00000  Uiso   1.00
H455   H     0.82172   0.90109   0.32644   0.00000  Uiso   1.00
H456   H     0.80567   0.89744   0.06539   0.00000  Uiso   1.00
C457   C     0.24781   0.06658   0.48436   0.00000  Uiso   1.00
C458   C     0.25160   0.26666   0.51568   0.00000  Uiso   1.00
C459   C     0.00932   0.07815   0.51045   0.00000  Uiso   1.00
C460   C     0.49122   0.25517   0.49309   0.00000  Uiso   1.00
C461   C     0.24482   0.01062   0.47558   0.00000  Uiso   1.00
C462   C     0.25318   0.32243   0.52469   0.00000  Uiso   1.00
C463   C     0.16409   0.16330   0.49901   0.00000  Uiso   1.00
C464   C     0.33609   0.16950   0.50102   0.00000  Uiso   1.00
C465   C     0.41305   0.20835   0.48419   0.00000  Uiso   1.00
C466   C     0.08672   0.12090   0.50696   0.00000  Uiso   1.00
C467   C     0.38506   0.17034   0.50341   0.00000  Uiso   1.00
C468   C     0.11570   0.16341   0.49764   0.00000  Uiso   1.00
C469   C     0.40524   0.13618   0.53098   0.00000  Uiso   1.00
C470   C     0.09836   0.20617   0.48678   0.00000  Uiso   1.00
C471   C     0.44861   0.12778   0.51821   0.00000  Uiso   1.00
C472   C     0.05378   0.21031   0.49778   0.00000  Uiso   1.00
C473   C     0.47755   0.16802   0.50402   0.00000  Uiso   1.00
C474   C     0.02386   0.16643   0.50266   0.00000  Uiso   1.00
C475   C     0.46037   0.21058   0.49207   0.00000  Uiso   1.00
C476   C     0.04011   0.12145   0.50683   0.00000  Uiso   1.00
C477   C     0.46377   0.08102   0.51845   0.00000  Uiso   1.00
C478   C     0.03810   0.25733   0.50659   0.00000  Uiso   1.00
Cu479  Cu    0.25501   0.17246   0.56146   0.00000  Uiso   1.00
Cu480  Cu    0.24500   0.16087   0.43854   0.00000  Uiso   1.00
H481   H     0.39859   0.23829   0.46899   0.00000  Uiso   1.00
H482   H     0.10036   0.08738   0.51301   0.00000  Uiso   1.00
H483   H     0.02020   0.04175   0.50401   0.00000  Uiso   1.00
H484   H     0.47943   0.28939   0.48924   0.00000  Uiso   1.00
N485   N     0.23745   0.15214   0.34617   0.00000  Uiso   1.00
N486   N     0.26256   0.18119   0.65383   0.00000  Uiso   1.00
O487   O     0.25326   0.09538   0.53992   0.00000  Uiso   1.00
O488   O     0.24675   0.23796   0.46008   0.00000  Uiso   1.00
O489   O     0.24480   0.08559   0.43612   0.00000  Uiso   1.00
O490   O     0.25520   0.24774   0.56388   0.00000  Uiso   1.00
O491   O     0.18936   0.17155   0.55191   0.00000  Uiso   1.00
O492   O     0.31065   0.16179   0.44809   0.00000  Uiso   1.00
O493   O     0.18090   0.16176   0.44810   0.00000  Uiso   1.00
O494   O     0.31910   0.17157   0.55190   0.00000  Uiso   1.00
C495   C     0.38709   0.12096   0.58542   0.00000  Uiso   1.00
H496   H     0.35616   0.09083   0.56999   0.00000  Uiso   1.00
H497   H     0.41325   0.10855   0.61359   0.00000  Uiso   1.00
H498   H     0.37971   0.15523   0.61769   0.00000  Uiso   1.00
C499   C     0.12553   0.24380   0.45776   0.00000  Uiso   1.00
H500   H     0.10445   0.26847   0.43948   0.00000  Uiso   1.00
H501   H     0.15472   0.26805   0.49122   0.00000  Uiso   1.00
H502   H     0.13794   0.22237   0.41649   0.00000  Uiso   1.00
C503   C     0.43056   0.03194   0.51579   0.00000  Uiso   1.00
C504   C     0.43887   0.01124   0.57304   0.00000  Uiso   1.00
H505   H     0.47539   0.01092   0.58543   0.00000  Uiso   1.00
H506   H     0.42720   0.03423   0.61371   0.00000  Uiso   1.00
H507   H     0.41939   0.30486   0.56423   0.00000  Uiso   1.00
H508   H     0.39455   0.03639   0.50904   0.00000  Uiso   1.00
H509   H     0.43278   0.00301   0.47316   0.00000  Uiso   1.00
C510   C     0.06803   0.30778   0.54447   0.00000  Uiso   1.00
C511   C     0.09738   0.30190   0.60127   0.00000  Uiso   1.00
H512   H     0.07614   0.28070   0.62821   0.00000  Uiso   1.00
H513   H     0.12560   0.28150   0.58853   0.00000  Uiso   1.00
H514   H     0.11285   0.00732   0.63122   0.00000  Uiso   1.00
H515   H     0.08942   0.32693   0.51613   0.00000  Uiso   1.00
H516   H     0.04615   0.00129   0.56416   0.00000  Uiso   1.00
C517   C     0.23132   0.31219   0.40897   0.00000  Uiso   1.00
H518   H     0.22118   0.00150   0.37653   0.00000  Uiso   1.00
H519   H     0.26039   0.29524   0.39203   0.00000  Uiso   1.00
H520   H     0.20104   0.28198   0.40471   0.00000  Uiso   1.00
C521   C     0.26418   0.02047   0.59174   0.00000  Uiso   1.00
H522   H     0.27251   0.33107   0.62487   0.00000  Uiso   1.00
H523   H     0.29468   0.05078   0.59854   0.00000  Uiso   1.00
H524   H     0.23433   0.03710   0.60612   0.00000  Uiso   1.00
C525   C     0.19265   0.12673   0.64818   0.00000  Uiso   1.00
H526   H     0.17828   0.09893   0.34011   0.00000  Uiso   1.00
H527   H     0.16976   0.15526   0.64887   0.00000  Uiso   1.00
H528   H     0.19352   0.10376   0.60122   0.00000  Uiso   1.00
C529   C     0.30704   0.20723   0.35227   0.00000  Uiso   1.00
H530   H     0.32993   0.17899   0.35320   0.00000  Uiso   1.00
H531   H     0.32172   0.23442   0.65978   0.00000  Uiso   1.00
H532   H     0.30567   0.23078   0.39873   0.00000  Uiso   1.00
C533   C     0.74781   0.06658   0.48436   0.00000  Uiso   1.00
C534   C     0.75160   0.26666   0.51568   0.00000  Uiso   1.00
C535   C     0.50932   0.07815   0.51045   0.00000  Uiso   1.00
C536   C     0.99122   0.25517   0.49309   0.00000  Uiso   1.00
C537   C     0.74482   0.01062   0.47558   0.00000  Uiso   1.00
C538   C     0.75318   0.32243   0.52469   0.00000  Uiso   1.00
C539   C     0.66409   0.16330   0.49901   0.00000  Uiso   1.00
C540   C     0.83609   0.16950   0.50102   0.00000  Uiso   1.00
C541   C     0.91305   0.20835   0.48419   0.00000  Uiso   1.00
C542   C     0.58672   0.12090   0.50696   0.00000  Uiso   1.00
C543   C     0.88506   0.17034   0.50341   0.00000  Uiso   1.00
C544   C     0.61570   0.16341   0.49764   0.00000  Uiso   1.00
C545   C     0.90524   0.13618   0.53098   0.00000  Uiso   1.00
C546   C     0.59836   0.20617   0.48678   0.00000  Uiso   1.00
C547   C     0.94861   0.12778   0.51821   0.00000  Uiso   1.00
C548   C     0.55378   0.21031   0.49778   0.00000  Uiso   1.00
C549   C     0.97755   0.16802   0.50402   0.00000  Uiso   1.00
C550   C     0.52386   0.16643   0.50266   0.00000  Uiso   1.00
C551   C     0.96037   0.21058   0.49207   0.00000  Uiso   1.00
C552   C     0.54011   0.12145   0.50683   0.00000  Uiso   1.00
C553   C     0.96377   0.08102   0.51845   0.00000  Uiso   1.00
C554   C     0.53810   0.25733   0.50659   0.00000  Uiso   1.00
Cu555  Cu    0.75501   0.17246   0.56146   0.00000  Uiso   1.00
Cu556  Cu    0.74500   0.16087   0.43854   0.00000  Uiso   1.00
H557   H     0.89859   0.23829   0.46899   0.00000  Uiso   1.00
H558   H     0.60036   0.08738   0.51301   0.00000  Uiso   1.00
H559   H     0.52020   0.04175   0.50401   0.00000  Uiso   1.00
H560   H     0.97943   0.28939   0.48924   0.00000  Uiso   1.00
N561   N     0.73745   0.15214   0.34617   0.00000  Uiso   1.00
N562   N     0.76256   0.18119   0.65383   0.00000  Uiso   1.00
O563   O     0.75326   0.09538   0.53992   0.00000  Uiso   1.00
O564   O     0.74675   0.23796   0.46008   0.00000  Uiso   1.00
O565   O     0.74480   0.08559   0.43612   0.00000  Uiso   1.00
O566   O     0.75520   0.24774   0.56388   0.00000  Uiso   1.00
O567   O     0.68936   0.17155   0.55191   0.00000  Uiso   1.00
O568   O     0.81065   0.16179   0.44809   0.00000  Uiso   1.00
O569   O     0.68090   0.16176   0.44810   0.00000  Uiso   1.00
O570   O     0.81910   0.17157   0.55190   0.00000  Uiso   1.00
C571   C     0.88709   0.12096   0.58542   0.00000  Uiso   1.00
H572   H     0.85616   0.09083   0.56999   0.00000  Uiso   1.00
H573   H     0.91325   0.10855   0.61359   0.00000  Uiso   1.00
H574   H     0.87971   0.15523   0.61769   0.00000  Uiso   1.00
C575   C     0.62553   0.24380   0.45776   0.00000  Uiso   1.00
H576   H     0.60445   0.26847   0.43948   0.00000  Uiso   1.00
H577   H     0.65472   0.26805   0.49122   0.00000  Uiso   1.00
H578   H     0.63794   0.22237   0.41649   0.00000  Uiso   1.00
C579   C     0.93056   0.03194   0.51579   0.00000  Uiso   1.00
C580   C     0.93887   0.01124   0.57304   0.00000  Uiso   1.00
H581   H     0.97539   0.01092   0.58543   0.00000  Uiso   1.00
H582   H     0.92720   0.03423   0.61371   0.00000  Uiso   1.00
H583   H     0.91939   0.30486   0.56423   0.00000  Uiso   1.00
H584   H     0.89455   0.03639   0.50904   0.00000  Uiso   1.00
H585   H     0.93278   0.00301   0.47316   0.00000  Uiso   1.00
C586   C     0.56803   0.30778   0.54447   0.00000  Uiso   1.00
C587   C     0.59738   0.30190   0.60127   0.00000  Uiso   1.00
H588   H     0.57614   0.28070   0.62821   0.00000  Uiso   1.00
H589   H     0.62560   0.28150   0.58853   0.00000  Uiso   1.00
H590   H     0.61285   0.00732   0.63122   0.00000  Uiso   1.00
H591   H     0.58942   0.32693   0.51613   0.00000  Uiso   1.00
H592   H     0.54615   0.00129   0.56416   0.00000  Uiso   1.00
C593   C     0.73132   0.31219   0.40897   0.00000  Uiso   1.00
H594   H     0.72118   0.00150   0.37653   0.00000  Uiso   1.00
H595   H     0.76039   0.29524   0.39203   0.00000  Uiso   1.00
H596   H     0.70104   0.28198   0.40471   0.00000  Uiso   1.00
C597   C     0.76418   0.02047   0.59174   0.00000  Uiso   1.00
H598   H     0.77251   0.33107   0.62487   0.00000  Uiso   1.00
H599   H     0.79468   0.05078   0.59854   0.00000  Uiso   1.00
H600   H     0.73433   0.03710   0.60612   0.00000  Uiso   1.00
C601   C     0.69265   0.12673   0.64818   0.00000  Uiso   1.00
H602   H     0.67828   0.09893   0.34011   0.00000  Uiso   1.00
H603   H     0.66976   0.15526   0.64887   0.00000  Uiso   1.00
H604   H     0.69352   0.10376   0.60122   0.00000  Uiso   1.00
C605   C     0.80704   0.20723   0.35227   0.00000  Uiso   1.00
H606   H     0.82993   0.17899   0.35320   0.00000  Uiso   1.00
H607   H     0.82172   0.23442   0.65978   0.00000  Uiso   1.00
H608   H     0.80567   0.23078   0.39873   0.00000  Uiso   1.00
C609   C     0.24781   0.39991   0.48436   0.00000  Uiso   1.00
C610   C     0.25160   0.60000   0.51568   0.00000  Uiso   1.00
C611   C     0.00932   0.41148   0.51045   0.00000  Uiso   1.00
C612   C     0.49122   0.58850   0.49309   0.00000  Uiso   1.00
C613   C     0.24482   0.34395   0.47558   0.00000  Uiso   1.00
C614   C     0.25318   0.65576   0.52469   0.00000  Uiso   1.00
C615   C     0.16409   0.49663   0.49901   0.00000  Uiso   1.00
C616   C     0.33609   0.50283   0.50102   0.00000  Uiso   1.00
C617   C     0.41305   0.54168   0.48419   0.00000  Uiso   1.00
C618   C     0.08672   0.45424   0.50696   0.00000  Uiso   1.00
C619   C     0.38506   0.50368   0.50341   0.00000  Uiso   1.00
C620   C     0.11570   0.49674   0.49764   0.00000  Uiso   1.00
C621   C     0.40524   0.46951   0.53098   0.00000  Uiso   1.00
C622   C     0.09836   0.53951   0.48678   0.00000  Uiso   1.00
C623   C     0.44861   0.46111   0.51821   0.00000  Uiso   1.00
C624   C     0.05378   0.54364   0.49778   0.00000  Uiso   1.00
C625   C     0.47755   0.50135   0.50402   0.00000  Uiso   1.00
C626   C     0.02386   0.49976   0.50266   0.00000  Uiso   1.00
C627   C     0.46037   0.54391   0.49207   0.00000  Uiso   1.00
C628   C     0.04011   0.45478   0.50683   0.00000  Uiso   1.00
C629   C     0.46377   0.41435   0.51845   0.00000  Uiso   1.00
C630   C     0.03810   0.59067   0.50659   0.00000  Uiso   1.00
Cu631  Cu    0.25501   0.50579   0.56146   0.00000  Uiso   1.00
Cu632  Cu    0.24500   0.49421   0.43854   0.00000  Uiso   1.00
H633   H     0.39859   0.57163   0.46899   0.00000  Uiso   1.00
H634   H     0.10036   0.42071   0.51301   0.00000  Uiso   1.00
H635   H     0.02020   0.37508   0.50401   0.00000  Uiso   1.00
H636   H     0.47943   0.62273   0.48924   0.00000  Uiso   1.00
N637   N     0.23745   0.48547   0.34617   0.00000  Uiso   1.00
N638   N     0.26256   0.51453   0.65383   0.00000  Uiso   1.00
O639   O     0.25326   0.42871   0.53992   0.00000  Uiso   1.00
O640   O     0.24675   0.57129   0.46008   0.00000  Uiso   1.00
O641   O     0.24480   0.41892   0.43612   0.00000  Uiso   1.00
O642   O     0.25520   0.58108   0.56388   0.00000  Uiso   1.00
O643   O     0.18936   0.50488   0.55191   0.00000  Uiso   1.00
O644   O     0.31065   0.49512   0.44809   0.00000  Uiso   1.00
O645   O     0.18090   0.49510   0.44810   0.00000  Uiso   1.00
O646   O     0.31910   0.50490   0.55190   0.00000  Uiso   1.00
C647   C     0.38709   0.45429   0.58542   0.00000  Uiso   1.00
H648   H     0.35616   0.42416   0.56999   0.00000  Uiso   1.00
H649   H     0.41325   0.44188   0.61359   0.00000  Uiso   1.00
H650   H     0.37971   0.48856   0.61769   0.00000  Uiso   1.00
C651   C     0.12553   0.57714   0.45776   0.00000  Uiso   1.00
H652   H     0.10445   0.60181   0.43948   0.00000  Uiso   1.00
H653   H     0.15472   0.60139   0.49122   0.00000  Uiso   1.00
H654   H     0.13794   0.55571   0.41649   0.00000  Uiso   1.00
C655   C     0.43056   0.36527   0.51579   0.00000  Uiso   1.00
C656   C     0.43887   0.34458   0.57304   0.00000  Uiso   1.00
H657   H     0.47539   0.34425   0.58543   0.00000  Uiso   1.00
H658   H     0.42720   0.36756   0.61371   0.00000  Uiso   1.00
H659   H     0.41939   0.63819   0.56423   0.00000  Uiso   1.00
H660   H     0.39455   0.36972   0.50904   0.00000  Uiso   1.00
H661   H     0.43278   0.33634   0.47316   0.00000  Uiso   1.00
C662   C     0.06803   0.64111   0.54447   0.00000  Uiso   1.00
C663   C     0.09738   0.63523   0.60127   0.00000  Uiso   1.00
H664   H     0.07614   0.61403   0.62821   0.00000  Uiso   1.00
H665   H     0.12560   0.61483   0.58853   0.00000  Uiso   1.00
H666   H     0.11285   0.34065   0.63122   0.00000  Uiso   1.00
H667   H     0.08942   0.66027   0.51613   0.00000  Uiso   1.00
H668   H     0.04615   0.33462   0.56416   0.00000  Uiso   1.00
C669   C     0.23132   0.64552   0.40897   0.00000  Uiso   1.00
H670   H     0.22118   0.33484   0.37653   0.00000  Uiso   1.00
H671   H     0.26039   0.62858   0.39203   0.00000  Uiso   1.00
H672   H     0.20104   0.61531   0.40471   0.00000  Uiso   1.00
C673   C     0.26418   0.35380   0.59174   0.00000  Uiso   1.00
H674   H     0.27251   0.66440   0.62487   0.00000  Uiso   1.00
H675   H     0.29468   0.38412   0.59854   0.00000  Uiso   1.00
H676   H     0.23433   0.37044   0.60612   0.00000  Uiso   1.00
C677   C     0.19265   0.46006   0.64818   0.00000  Uiso   1.00
H678   H     0.17828   0.43226   0.34011   0.00000  Uiso   1.00
H679   H     0.16976   0.48859   0.64887   0.00000  Uiso   1.00
H680   H     0.19352   0.43709   0.60122   0.00000  Uiso   1.00
C681   C     0.30704   0.54056   0.35227   0.00000  Uiso   1.00
H682   H     0.32993   0.51232   0.35320   0.00000  Uiso   1.00
H683   H     0.32172   0.56775   0.65978   0.00000  Uiso   1.00
H684   H     0.30567   0.56411   0.39873   0.00000  Uiso   1.00
C685   C     0.74781   0.39991   0.48436   0.00000  Uiso   1.00
C686   C     0.75160   0.60000   0.51568   0.00000  Uiso   1.00
C687   C     0.50932   0.41148   0.51045   0.00000  Uiso   1.00
C688   C     0.99122   0.58850   0.49309   0.00000  Uiso   1.00
C689   C     0.74482   0.34395   0.47558   0.00000  Uiso   1.00
C690   C     0.75318   0.65576   0.52469   0.00000  Uiso   1.00
C691   C     0.66409   0.49663   0.49901   0.00000  Uiso   1.00
C692   C     0.83609   0.50283   0.50102   0.00000  Uiso   1.00
C693   C     0.91305   0.54168   0.48419   0.00000  Uiso   1.00
C694   C     0.58672   0.45424   0.50696   0.00000  Uiso   1.00
C695   C     0.88506   0.50368   0.50341   0.00000  Uiso   1.00
C696   C     0.61570   0.49674   0.49764   0.00000  Uiso   1.00
C697   C     0.90524   0.46951   0.53098   0.00000  Uiso   1.00
C698   C     0.59836   0.53951   0.48678   0.00000  Uiso   1.00
C699   C     0.94861   0.46111   0.51821   0.00000  Uiso   1.00
C700   C     0.55378   0.54364   0.49778   0.00000  Uiso   1.00
C701   C     0.97755   0.50135   0.50402   0.00000  Uiso   1.00
C702   C     0.52386   0.49976   0.50266   0.00000  Uiso   1.00
C703   C     0.96037   0.54391   0.49207   0.00000  Uiso   1.00
C704   C     0.54011   0.45478   0.50683   0.00000  Uiso   1.00
C705   C     0.96377   0.41435   0.51845   0.00000  Uiso   1.00
C706   C     0.53810   0.59067   0.50659   0.00000  Uiso   1.00
Cu707  Cu    0.75501   0.50579   0.56146   0.00000  Uiso   1.00
Cu708  Cu    0.74500   0.49421   0.43854   0.00000  Uiso   1.00
H709   H     0.89859   0.57163   0.46899   0.00000  Uiso   1.00
H710   H     0.60036   0.42071   0.51301   0.00000  Uiso   1.00
H711   H     0.52020   0.37508   0.50401   0.00000  Uiso   1.00
H712   H     0.97943   0.62273   0.48924   0.00000  Uiso   1.00
N713   N     0.73745   0.48547   0.34617   0.00000  Uiso   1.00
N714   N     0.76256   0.51453   0.65383   0.00000  Uiso   1.00
O715   O     0.75326   0.42871   0.53992   0.00000  Uiso   1.00
O716   O     0.74675   0.57129   0.46008   0.00000  Uiso   1.00
O717   O     0.74480   0.41892   0.43612   0.00000  Uiso   1.00
O718   O     0.75520   0.58108   0.56388   0.00000  Uiso   1.00
O719   O     0.68936   0.50488   0.55191   0.00000  Uiso   1.00
O720   O     0.81065   0.49512   0.44809   0.00000  Uiso   1.00
O721   O     0.68090   0.49510   0.44810   0.00000  Uiso   1.00
O722   O     0.81910   0.50490   0.55190   0.00000  Uiso   1.00
C723   C     0.88709   0.45429   0.58542   0.00000  Uiso   1.00
H724   H     0.85616   0.42416   0.56999   0.00000  Uiso   1.00
H725   H     0.91325   0.44188   0.61359   0.00000  Uiso   1.00
H726   H     0.87971   0.48856   0.61769   0.00000  Uiso   1.00
C727   C     0.62553   0.57714   0.45776   0.00000  Uiso   1.00
H728   H     0.60445   0.60181   0.43948   0.00000  Uiso   1.00
H729   H     0.65472   0.60139   0.49122   0.00000  Uiso   1.00
H730   H     0.63794   0.55571   0.41649   0.00000  Uiso   1.00
C731   C     0.93056   0.36527   0.51579   0.00000  Uiso   1.00
C732   C     0.93887   0.34458   0.57304   0.00000  Uiso   1.00
H733   H     0.97539   0.34425   0.58543   0.00000  Uiso   1.00
H734   H     0.92720   0.36756   0.61371   0.00000  Uiso   1.00
H735   H     0.91939   0.63819   0.56423   0.00000  Uiso   1.00
H736   H     0.89455   0.36972   0.50904   0.00000  Uiso   1.00
H737   H     0.93278   0.33634   0.47316   0.00000  Uiso   1.00
C738   C     0.56803   0.64111   0.54447   0.00000  Uiso   1.00
C739   C     0.59738   0.63523   0.60127   0.00000  Uiso   1.00
H740   H     0.57614   0.61403   0.62821   0.00000  Uiso   1.00
H741   H     0.62560   0.61483   0.58853   0.00000  Uiso   1.00
H742   H     0.61285   0.34065   0.63122   0.00000  Uiso   1.00
H743   H     0.58942   0.66027   0.51613   0.00000  Uiso   1.00
H744   H     0.54615   0.33462   0.56416   0.00000  Uiso   1.00
C745   C     0.73132   0.64552   0.40897   0.00000  Uiso   1.00
H746   H     0.72118   0.33484   0.37653   0.00000  Uiso   1.00
H747   H     0.76039   0.62858   0.39203   0.00000  Uiso   1.00
H748   H     0.70104   0.61531   0.40471   0.00000  Uiso   1.00
C749   C     0.76418   0.35380   0.59174   0.00000  Uiso   1.00
H750   H     0.77251   0.66440   0.62487   0.00000  Uiso   1.00
H751   H     0.79468   0.38412   0.59854   0.00000  Uiso   1.00
H752   H     0.73433   0.37044   0.60612   0.00000  Uiso   1.00
C753   C     0.69265   0.46006   0.64818   0.00000  Uiso   1.00
H754   H     0.67828   0.43226   0.34011   0.00000  Uiso   1.00
H755   H     0.66976   0.48859   0.64887   0.00000  Uiso   1.00
H756   H     0.69352   0.43709   0.60122   0.00000  Uiso   1.00
C757   C     0.80704   0.54056   0.35227   0.00000  Uiso   1.00
H758   H     0.82993   0.51232   0.35320   0.00000  Uiso   1.00
H759   H     0.82172   0.56775   0.65978   0.00000  Uiso   1.00
H760   H     0.80567   0.56411   0.39873   0.00000  Uiso   1.00
C761   C     0.24781   0.73324   0.48436   0.00000  Uiso   1.00
C762   C     0.25160   0.93333   0.51568   0.00000  Uiso   1.00
C763   C     0.00932   0.74482   0.51045   0.00000  Uiso   1.00
C764   C     0.49122   0.92184   0.49309   0.00000  Uiso   1.00
C765   C     0.24482   0.67728   0.47558   0.00000  Uiso   1.00
C766   C     0.25318   0.98910   0.52469   0.00000  Uiso   1.00
C767   C     0.16409   0.82996   0.49901   0.00000  Uiso   1.00
C768   C     0.33609   0.83616   0.50102   0.00000  Uiso   1.00
C769   C     0.41305   0.87501   0.48419   0.00000  Uiso   1.00
C770   C     0.08672   0.78757   0.50696   0.00000  Uiso   1.00
C771   C     0.38506   0.83701   0.50341   0.00000  Uiso   1.00
C772   C     0.11570   0.83008   0.49764   0.00000  Uiso   1.00
C773   C     0.40524   0.80285   0.53098   0.00000  Uiso   1.00
C774   C     0.09836   0.87284   0.48678   0.00000  Uiso   1.00
C775   C     0.44861   0.79444   0.51821   0.00000  Uiso   1.00
C776   C     0.05378   0.87698   0.49778   0.00000  Uiso   1.00
C777   C     0.47755   0.83469   0.50402   0.00000  Uiso   1.00
C778   C     0.02386   0.83309   0.50266   0.00000  Uiso   1.00
C779   C     0.46037   0.87725   0.49207   0.00000  Uiso   1.00
C780   C     0.04011   0.78811   0.50683   0.00000  Uiso   1.00
C781   C     0.46377   0.74769   0.51845   0.00000  Uiso   1.00
C782   C     0.03810   0.92400   0.50659   0.00000  Uiso   1.00
Cu783  Cu    0.25501   0.83913   0.56146   0.00000  Uiso   1.00
Cu784  Cu    0.24500   0.82754   0.43854   0.00000  Uiso   1.00
H785   H     0.39859   0.90496   0.46899   0.00000  Uiso   1.00
H786   H     0.10036   0.75404   0.51301   0.00000  Uiso   1.00
H787   H     0.02020   0.70842   0.50401   0.00000  Uiso   1.00
H788   H     0.47943   0.95606   0.48924   0.00000  Uiso   1.00
N789   N     0.23745   0.81881   0.34617   0.00000  Uiso   1.00
N790   N     0.26256   0.84786   0.65383   0.00000  Uiso   1.00
O791   O     0.25326   0.76204   0.53992   0.00000  Uiso   1.00
O792   O     0.24675   0.90462   0.46008   0.00000  Uiso   1.00
O793   O     0.24480   0.75226   0.43612   0.00000  Uiso   1.00
O794   O     0.25520   0.91441   0.56388   0.00000  Uiso   1.00
O795   O     0.18936   0.83821   0.55191   0.00000  Uiso   1.00
O796   O     0.31065   0.82845   0.44809   0.00000  Uiso   1.00
O797   O     0.18090   0.82843   0.44810   0.00000  Uiso   1.00
O798   O     0.31910   0.83824   0.55190   0.00000  Uiso   1.00
C799   C     0.38709   0.78762   0.58542   0.00000  Uiso   1.00
H800   H     0.35616   0.75749   0.56999   0.00000  Uiso   1.00
H801   H     0.41325   0.77521   0.61359   0.00000  Uiso   1.00
H802   H     0.37971   0.82190   0.61769   0.00000  Uiso   1.00
C803   C     0.12553   0.91047   0.45776   0.00000  Uiso   1.00
H804   H     0.10445   0.93514   0.43948   0.00000  Uiso   1.00
H805   H     0.15472   0.93472   0.49122   0.00000  Uiso   1.00
H806   H     0.13794   0.88904   0.41649   0.00000  Uiso   1.00
C807   C     0.43056   0.69860   0.51579   0.00000  Uiso   1.00
C808   C     0.43887   0.67791   0.57304   0.00000  Uiso   1.00
H809   H     0.47539   0.67759   0.58543   0.00000  Uiso   1.00
H810   H     0.42720   0.70090   0.61371   0.00000  Uiso   1.00
H811   H     0.41939   0.97153   0.56423   0.00000  Uiso   1.00
H812   H     0.39455   0.70305   0.50904   0.00000  Uiso   1.00
H813   H     0.43278   0.66968   0.47316   0.00000  Uiso   1.00
C814   C     0.06803   0.97445   0.54447   0.00000  Uiso   1.00
C815   C     0.09738   0.96857   0.60127   0.00000  Uiso   1.00
H816   H     0.07614   0.94736   0.62821   0.00000  Uiso   1.00
H817   H     0.12560   0.94816   0.58853   0.00000  Uiso   1.00
H818   H     0.11285   0.67398   0.63122   0.00000  Uiso   1.00
H819   H     0.08942   0.99360   0.51613   0.00000  Uiso   1.00
H820   H     0.04615   0.66795   0.56416   0.00000  Uiso   1.00
C821   C     0.23132   0.97886   0.40897   0.00000  Uiso   1.00
H822   H     0.22118   0.66817   0.37653   0.00000  Uiso   1.00
H823   H     0.26039   0.96191   0.39203   0.00000  Uiso   1.00
H824   H     0.20104   0.94865   0.40471   0.00000  Uiso   1.00
C825   C     0.26418   0.68713   0.59174   0.00000  Uiso   1.00
H826   H     0.27251   0.99774   0.62487   0.00000  Uiso   1.00
H827   H     0.29468   0.71745   0.59854   0.00000  Uiso   1.00
H828   H     0.23433   0.70377   0.60612   0.00000  Uiso   1.00
C829   C     0.19265   0.79339   0.64818   0.00000  Uiso   1.00
H830   H     0.17828   0.76560   0.34011   0.00000  Uiso   1.00
H831   H     0.16976   0.82193   0.64887   0.00000  Uiso   1.00
H832   H     0.19352   0.77042   0.60122   0.00000  Uiso   1.00
C833   C     0.30704   0.87390   0.35227   0.00000  Uiso   1.00
H834   H     0.32993   0.84565   0.35320   0.00000  Uiso   1.00
H835   H     0.32172   0.90109   0.65978   0.00000  Uiso   1.00
H836   H     0.30567   0.89744   0.39873   0.00000  Uiso   1.00
C837   C     0.74781   0.73324   0.48436   0.00000  Uiso   1.00
C838   C     0.75160   0.93333   0.51568   0.00000  Uiso   1.00
C839   C     0.50932   0.74482   0.51045   0.00000  Uiso   1.00
C840   C     0.99122   0.92184   0.49309   0.00000  Uiso   1.00
C841   C     0.74482   0.67728   0.47558   0.00000  Uiso   1.00
C842   C     0.75318   0.98910   0.52469   0.00000  Uiso   1.00
C843   C     0.66409   0.82996   0.49901   0.00000  Uiso   1.00
C844   C     0.83609   0.83616   0.50102   0.00000  Uiso   1.00
C845   C     0.91305   0.87501   0.48419   0.00000  Uiso   1.00
C846   C     0.58672   0.78757   0.50696   0.00000  Uiso   1.00
C847   C     0.88506   0.83701   0.50341   0.00000  Uiso   1.00
C848   C     0.61570   0.83008   0.49764   0.00000  Uiso   1.00
C849   C     0.90524   0.80285   0.53098   0.00000  Uiso   1.00
C850   C     0.59836   0.87284   0.48678   0.00000  Uiso   1.00
C851   C     0.94861   0.79444   0.51821   0.00000  Uiso   1.00
C852   C     0.55378   0.87698   0.49778   0.00000  Uiso   1.00
C853   C     0.97755   0.83469   0.50402   0.00000  Uiso   1.00
C854   C     0.52386   0.83309   0.50266   0.00000  Uiso   1.00
C855   C     0.96037   0.87725   0.49207   0.00000  Uiso   1.00
C856   C     0.54011   0.78811   0.50683   0.00000  Uiso   1.00
C857   C     0.96377   0.74769   0.51845   0.00000  Uiso   1.00
C858   C     0.53810   0.92400   0.50659   0.00000  Uiso   1.00
Cu859  Cu    0.75501   0.83913   0.56146   0.00000  Uiso   1.00
Cu860  Cu    0.74500   0.82754   0.43854   0.00000  Uiso   1.00
H861   H     0.89859   0.90496   0.46899   0.00000  Uiso   1.00
H862   H     0.60036   0.75404   0.51301   0.00000  Uiso   1.00
H863   H     0.52020   0.70842   0.50401   0.00000  Uiso   1.00
H864   H     0.97943   0.95606   0.48924   0.00000  Uiso   1.00
N865   N     0.73745   0.81881   0.34617   0.00000  Uiso   1.00
N866   N     0.76256   0.84786   0.65383   0.00000  Uiso   1.00
O867   O     0.75326   0.76204   0.53992   0.00000  Uiso   1.00
O868   O     0.74675   0.90462   0.46008   0.00000  Uiso   1.00
O869   O     0.74480   0.75226   0.43612   0.00000  Uiso   1.00
O870   O     0.75520   0.91441   0.56388   0.00000  Uiso   1.00
O871   O     0.68936   0.83821   0.55191   0.00000  Uiso   1.00
O872   O     0.81065   0.82845   0.44809   0.00000  Uiso   1.00
O873   O     0.68090   0.82843   0.44810   0.00000  Uiso   1.00
O874   O     0.81910   0.83824   0.55190   0.00000  Uiso   1.00
C875   C     0.88709   0.78762   0.58542   0.00000  Uiso   1.00
H876   H     0.85616   0.75749   0.56999   0.00000  Uiso   1.00
H877   H     0.91325   0.77521   0.61359   0.00000  Uiso   1.00
H878   H     0.87971   0.82190   0.61769   0.00000  Uiso   1.00
C879   C     0.62553   0.91047   0.45776   0.00000  Uiso   1.00
H880   H     0.60445   0.93514   0.43948   0.00000  Uiso   1.00
H881   H     0.65472   0.93472   0.49122   0.00000  Uiso   1.00
H882   H     0.63794   0.88904   0.41649   0.00000  Uiso   1.00
C883   C     0.93056   0.69860   0.51579   0.00000  Uiso   1.00
C884   C     0.93887   0.67791   0.57304   0.00000  Uiso   1.00
H885   H     0.97539   0.67759   0.58543   0.00000  Uiso   1.00
H886   H     0.92720   0.70090   0.61371   0.00000  Uiso   1.00
H887   H     0.91939   0.97153   0.56423   0.00000  Uiso   1.00
H888   H     0.89455   0.70305   0.50904   0.00000  Uiso   1.00
H889   H     0.93278   0.66968   0.47316   0.00000  Uiso   1.00
C890   C     0.56803   0.97445   0.54447   0.00000  Uiso   1.00
C891   C     0.59738   0.96857   0.60127   0.00000  Uiso   1.00
H892   H     0.57614   0.94736   0.62821   0.00000  Uiso   1.00
H893   H     0.62560   0.94816   0.58853   0.00000  Uiso   1.00
H894   H     0.61285   0.67398   0.63122   0.00000  Uiso   1.00
H895   H     0.58942   0.99360   0.51613   0.00000  Uiso   1.00
H896   H     0.54615   0.66795   0.56416   0.00000  Uiso   1.00
C897   C     0.73132   0.97886   0.40897   0.00000  Uiso   1.00
H898   H     0.72118   0.66817   0.37653   0.00000  Uiso   1.00
H899   H     0.76039   0.96191   0.39203   0.00000  Uiso   1.00
H900   H     0.70104   0.94865   0.40471   0.00000  Uiso   1.00
C901   C     0.76418   0.68713   0.59174   0.00000  Uiso   1.00
H902   H     0.77251   0.99774   0.62487   0.00000  Uiso   1.00
H903   H     0.79468   0.71745   0.59854   0.00000  Uiso   1.00
H904   H     0.73433   0.70377   0.60612   0.00000  Uiso   1.00
C905   C     0.69265   0.79339   0.64818   0.00000  Uiso   1.00
H906   H     0.67828   0.76560   0.34011   0.00000  Uiso   1.00
H907   H     0.66976   0.82193   0.64887   0.00000  Uiso   1.00
H908   H     0.69352   0.77042   0.60122   0.00000  Uiso   1.00
C909   C     0.80704   0.87390   0.35227   0.00000  Uiso   1.00
H910   H     0.82993   0.84565   0.35320   0.00000  Uiso   1.00
H911   H     0.82172   0.90109   0.65978   0.00000  Uiso   1.00
H912   H     0.80567   0.89744   0.39873   0.00000  Uiso   1.00
C913   C     0.24781   0.06658   0.81769   0.00000  Uiso   1.00
C914   C     0.25160   0.26666   0.84901   0.00000  Uiso   1.00
C915   C     0.00932   0.07815   0.84379   0.00000  Uiso   1.00
C916   C     0.49122   0.25517   0.82643   0.00000  Uiso   1.00
C917   C     0.24482   0.01062   0.80891   0.00000  Uiso   1.00
C918   C     0.25318   0.32243   0.85803   0.00000  Uiso   1.00
C919   C     0.16409   0.16330   0.83234   0.00000  Uiso   1.00
C920   C     0.33609   0.16950   0.83436   0.00000  Uiso   1.00
C921   C     0.41305   0.20835   0.81752   0.00000  Uiso   1.00
C922   C     0.08672   0.12090   0.84030   0.00000  Uiso   1.00
C923   C     0.38506   0.17034   0.83674   0.00000  Uiso   1.00
C924   C     0.11570   0.16341   0.83097   0.00000  Uiso   1.00
C925   C     0.40524   0.13618   0.86431   0.00000  Uiso   1.00
C926   C     0.09836   0.20617   0.82011   0.00000  Uiso   1.00
C927   C     0.44861   0.12778   0.85154   0.00000  Uiso   1.00
C928   C     0.05378   0.21031   0.83112   0.00000  Uiso   1.00
C929   C     0.47755   0.16802   0.83735   0.00000  Uiso   1.00
C930   C     0.02386   0.16643   0.83600   0.00000  Uiso   1.00
C931   C     0.46037   0.21058   0.82540   0.00000  Uiso   1.00
C932   C     0.04011   0.12145   0.84016   0.00000  Uiso   1.00
C933   C     0.46377   0.08102   0.85179   0.00000  Uiso   1.00
C934   C     0.03810   0.25733   0.83992   0.00000  Uiso   1.00
Cu935  Cu    0.25501   0.17246   0.89479   0.00000  Uiso   1.00
Cu936  Cu    0.24500   0.16087   0.77187   0.00000  Uiso   1.00
H937   H     0.39859   0.23829   0.80232   0.00000  Uiso   1.00
H938   H     0.10036   0.08738   0.84634   0.00000  Uiso   1.00
H939   H     0.02020   0.04175   0.83735   0.00000  Uiso   1.00
H940   H     0.47943   0.28939   0.82257   0.00000  Uiso   1.00
N941   N     0.23745   0.15214   0.67951   0.00000  Uiso   1.00
N942   N     0.26256   0.18119   0.98716   0.00000  Uiso   1.00
O943   O     0.25326   0.09538   0.87326   0.00000  Uiso   1.00
O944   O     0.24675   0.23796   0.79341   0.00000  Uiso   1.00
O945   O     0.24480   0.08559   0.76945   0.00000  Uiso   1.00
O946   O     0.25520   0.24774   0.89721   0.00000  Uiso   1.00
O947   O     0.18936   0.17155   0.88524   0.00000  Uiso   1.00
O948   O     0.31065   0.16179   0.78143   0.00000  Uiso   1.00
O949   O     0.18090   0.16176   0.78143   0.00000  Uiso   1.00
O950   O     0.31910   0.17157   0.88523   0.00000  Uiso   1.00
C951   C     0.38709   0.12096   0.91876   0.00000  Uiso   1.00
H952   H     0.35616   0.09083   0.90333   0.00000  Uiso   1.00
H953   H     0.41325   0.10855   0.94692   0.00000  Uiso   1.00
H954   H     0.37971   0.15523   0.95102   0.00000  Uiso   1.00
C955   C     0.12553   0.24380   0.79110   0.00000  Uiso   1.00
H956   H     0.10445   0.26847   0.77281   0.00000  Uiso   1.00
H957   H     0.15472   0.26805   0.82455   0.00000  Uiso   1.00
H958   H     0.13794   0.22237   0.74983   0.00000  Uiso   1.00
C959   C     0.43056   0.03194   0.84912   0.00000  Uiso   1.00
C960   C     0.43887   0.01124   0.90637   0.00000  Uiso   1.00
H961   H     0.47539   0.01092   0.91877   0.00000  Uiso   1.00
H962   H     0.42720   0.03423   0.94704   0.00000  Uiso   1.00
H963   H     0.41939   0.30486   0.89757   0.00000  Uiso   1.00
H964   H     0.39455   0.03639   0.84238   0.00000  Uiso   1.00
H965   H     0.43278   0.00301   0.80650   0.00000  Uiso   1.00
C966   C     0.06803   0.30778   0.87780   0.00000  Uiso   1.00
C967   C     0.09738   0.30190   0.93460   0.00000  Uiso   1.00
H968   H     0.07614   0.28070   0.96154   0.00000  Uiso   1.00
H969   H     0.12560   0.28150   0.92186   0.00000  Uiso   1.00
H970   H     0.11285   0.00732   0.96456   0.00000  Uiso   1.00
H971   H     0.08942   0.32693   0.84946   0.00000  Uiso   1.00
H972   H     0.04615   0.00129   0.89749   0.00000  Uiso   1.00
C973   C     0.23132   0.31219   0.74230   0.00000  Uiso   1.00
H974   H     0.22118   0.00150   0.70986   0.00000  Uiso   1.00
H975   H     0.26039   0.29524   0.72536   0.00000  Uiso   1.00
H976   H     0.20104   0.28198   0.73804   0.00000  Uiso   1.00
C977   C     0.26418   0.02047   0.92507   0.00000  Uiso   1.00
H978   H     0.27251   0.33107   0.95821   0.00000  Uiso   1.00
H979   H     0.29468   0.05078   0.93187   0.00000  Uiso   1.00
H980   H     0.23433   0.03710   0.93945   0.00000  Uiso   1.00
C981   C     0.19265   0.12673   0.98151   0.00000  Uiso   1.00
H982   H     0.17828   0.09893   0.67345   0.00000  Uiso   1.00
H983   H     0.16976   0.15526   0.98221   0.00000  Uiso   1.00
H984   H     0.19352   0.10376   0.93456   0.00000  Uiso   1.00
C985   C     0.30704   0.20723   0.68561   0.00000  Uiso   1.00
H986   H     0.32993   0.17899   0.68653   0.00000  Uiso   1.00
H987   H     0.32172   0.23442   0.99311   0.00000  Uiso   1.00
H988   H     0.30567   0.23078   0.73206   0.00000  Uiso   1.00
C989   C     0.74781   0.06658   0.81769   0.00000  Uiso   1.00
C990   C     0.75160   0.26666   0.84901   0.00000  Uiso   1.00
C991   C     0.50932   0.07815   0.84379   0.00000  Uiso   1.00
C992   C     0.99122   0.25517   0.82643   0.00000  Uiso   1.00
C993   C     0.74482   0.01062   0.80891   0.00000  Uiso   1.00
C994   C     0.75318   0.32243   0.85803   0.00000  Uiso   1.00
C995   C     0.66409   0.16330   0.83234   0.00000  Uiso   1.00
C996   C     0.83609   0.16950   0.83436   0.00000  Uiso   1.00
C997   C     0.91305   0.20835   0.81752   0.00000  Uiso   1.00
C998   C     0.58672   0.12090   0.84030   0.00000  Uiso   1.00
C999   C     0.88506   0.17034   0.83674   0.00000  Uiso   1.00
C1000  C     0.61570   0.16341   0.83097   0.00000  Uiso   1.00
C1001  C     0.90524   0.13618   0.86431   0.00000  Uiso   1.00
C1002  C     0.59836   0.20617   0.82011   0.00000  Uiso   1.00
C1003  C     0.94861   0.12778   0.85154   0.00000  Uiso   1.00
C1004  C     0.55378   0.21031   0.83112   0.00000  Uiso   1.00
C1005  C     0.97755   0.16802   0.83735   0.00000  Uiso   1.00
C1006  C     0.52386   0.16643   0.83600   0.00000  Uiso   1.00
C1007  C     0.96037   0.21058   0.82540   0.00000  Uiso   1.00
C1008  C     0.54011   0.12145   0.84016   0.00000  Uiso   1.00
C1009  C     0.96377   0.08102   0.85179   0.00000  Uiso   1.00
C1010  C     0.53810   0.25733   0.83992   0.00000  Uiso   1.00
Cu1011 Cu    0.75501   0.17246   0.89479   0.00000  Uiso   1.00
Cu1012 Cu    0.74500   0.16087   0.77187   0.00000  Uiso   1.00
H1013  H     0.89859   0.23829   0.80232   0.00000  Uiso   1.00
H1014  H     0.60036   0.08738   0.84634   0.00000  Uiso   1.00
H1015  H     0.52020   0.04175   0.83735   0.00000  Uiso   1.00
H1016  H     0.97943   0.28939   0.82257   0.00000  Uiso   1.00
N1017  N     0.73745   0.15214   0.67951   0.00000  Uiso   1.00
N1018  N     0.76256   0.18119   0.98716   0.00000  Uiso   1.00
O1019  O     0.75326   0.09538   0.87326   0.00000  Uiso   1.00
O1020  O     0.74675   0.23796   0.79341   0.00000  Uiso   1.00
O1021  O     0.74480   0.08559   0.76945   0.00000  Uiso   1.00
O1022  O     0.75520   0.24774   0.89721   0.00000  Uiso   1.00
O1023  O     0.68936   0.17155   0.88524   0.00000  Uiso   1.00
O1024  O     0.81065   0.16179   0.78143   0.00000  Uiso   1.00
O1025  O     0.68090   0.16176   0.78143   0.00000  Uiso   1.00
O1026  O     0.81910   0.17157   0.88523   0.00000  Uiso   1.00
C1027  C     0.88709   0.12096   0.91876   0.00000  Uiso   1.00
H1028  H     0.85616   0.09083   0.90333   0.00000  Uiso   1.00
H1029  H     0.91325   0.10855   0.94692   0.00000  Uiso   1.00
H1030  H     0.87971   0.15523   0.95102   0.00000  Uiso   1.00
C1031  C     0.62553   0.24380   0.79110   0.00000  Uiso   1.00
H1032  H     0.60445   0.26847   0.77281   0.00000  Uiso   1.00
H1033  H     0.65472   0.26805   0.82455   0.00000  Uiso   1.00
H1034  H     0.63794   0.22237   0.74983   0.00000  Uiso   1.00
C1035  C     0.93056   0.03194   0.84912   0.00000  Uiso   1.00
C1036  C     0.93887   0.01124   0.90637   0.00000  Uiso   1.00
H1037  H     0.97539   0.01092   0.91877   0.00000  Uiso   1.00
H1038  H     0.92720   0.03423   0.94704   0.00000  Uiso   1.00
H1039  H     0.91939   0.30486   0.89757   0.00000  Uiso   1.00
H1040  H     0.89455   0.03639   0.84238   0.00000  Uiso   1.00
H1041  H     0.93278   0.00301   0.80650   0.00000  Uiso   1.00
C1042  C     0.56803   0.30778   0.87780   0.00000  Uiso   1.00
C1043  C     0.59738   0.30190   0.93460   0.00000  Uiso   1.00
H1044  H     0.57614   0.28070   0.96154   0.00000  Uiso   1.00
H1045  H     0.62560   0.28150   0.92186   0.00000  Uiso   1.00
H1046  H     0.61285   0.00732   0.96456   0.00000  Uiso   1.00
H1047  H     0.58942   0.32693   0.84946   0.00000  Uiso   1.00
H1048  H     0.54615   0.00129   0.89749   0.00000  Uiso   1.00
C1049  C     0.73132   0.31219   0.74230   0.00000  Uiso   1.00
H1050  H     0.72118   0.00150   0.70986   0.00000  Uiso   1.00
H1051  H     0.76039   0.29524   0.72536   0.00000  Uiso   1.00
H1052  H     0.70104   0.28198   0.73804   0.00000  Uiso   1.00
C1053  C     0.76418   0.02047   0.92507   0.00000  Uiso   1.00
H1054  H     0.77251   0.33107   0.95821   0.00000  Uiso   1.00
H1055  H     0.79468   0.05078   0.93187   0.00000  Uiso   1.00
H1056  H     0.73433   0.03710   0.93945   0.00000  Uiso   1.00
C1057  C     0.69265   0.12673   0.98151   0.00000  Uiso   1.00
H1058  H     0.67828   0.09893   0.67345   0.00000  Uiso   1.00
H1059  H     0.66976   0.15526   0.98221   0.00000  Uiso   1.00
H1060  H     0.69352   0.10376   0.93456   0.00000  Uiso   1.00
C1061  C     0.80704   0.20723   0.68561   0.00000  Uiso   1.00
H1062  H     0.82993   0.17899   0.68653   0.00000  Uiso   1.00
H1063  H     0.82172   0.23442   0.99311   0.00000  Uiso   1.00
H1064  H     0.80567   0.23078   0.73206   0.00000  Uiso   1.00
C1065  C     0.24781   0.39991   0.81769   0.00000  Uiso   1.00
C1066  C     0.25160   0.60000   0.84901   0.00000  Uiso   1.00
C1067  C     0.00932   0.41148   0.84379   0.00000  Uiso   1.00
C1068  C     0.49122   0.58850   0.82643   0.00000  Uiso   1.00
C1069  C     0.24482   0.34395   0.80891   0.00000  Uiso   1.00
C1070  C     0.25318   0.65576   0.85803   0.00000  Uiso   1.00
C1071  C     0.16409   0.49663   0.83234   0.00000  Uiso   1.00
C1072  C     0.33609   0.50283   0.83436   0.00000  Uiso   1.00
C1073  C     0.41305   0.54168   0.81752   0.00000  Uiso   1.00
C1074  C     0.08672   0.45424   0.84030   0.00000  Uiso   1.00
C1075  C     0.38506   0.50368   0.83674   0.00000  Uiso   1.00
C1076  C     0.11570   0.49674   0.83097   0.00000  Uiso   1.00
C1077  C     0.40524   0.46951   0.86431   0.00000  Uiso   1.00
C1078  C     0.09836   0.53951   0.82011   0.00000  Uiso   1.00
C1079  C     0.44861   0.46111   0.85154   0.00000  Uiso   1.00
C1080  C     0.05378   0.54364   0.83112   0.00000  Uiso   1.00
C1081  C     0.47755   0.50135   0.83735   0.00000  Uiso   1.00
C1082  C     0.02386   0.49976   0.83600   0.00000  Uiso   1.00
C1083  C     0.46037   0.54391   0.82540   0.00000  Uiso   1.00
C1084  C     0.04011   0.45478   0.84016   0.00000  Uiso   1.00
C1085  C     0.46377   0.41435   0.85179   0.00000  Uiso   1.00
C1086  C     0.03810   0.59067   0.83992   0.00000  Uiso   1.00
Cu1087 Cu    0.25501   0.50579   0.89479   0.00000  Uiso   1.00
Cu1088 Cu    0.24500   0.49421   0.77187   0.00000  Uiso   1.00
H1089  H     0.39859   0.57163   0.80232   0.00000  Uiso   1.00
H1090  H     0.10036   0.42071   0.84634   0.00000  Uiso   1.00
H1091  H     0.02020   0.37508   0.83735   0.00000  Uiso   1.00
H1092  H     0.47943   0.62273   0.82257   0.00000  Uiso   1.00
N1093  N     0.23745   0.48547   0.67951   0.00000  Uiso   1.00
N1094  N     0.26256   0.51453   0.98716   0.00000  Uiso   1.00
O1095  O     0.25326   0.42871   0.87326   0.00000  Uiso   1.00
O1096  O     0.24675   0.57129   0.79341   0.00000  Uiso   1.00
O1097  O     0.24480   0.41892   0.76945   0.00000  Uiso   1.00
O1098  O     0.25520   0.58108   0.89721   0.00000  Uiso   1.00
O1099  O     0.18936   0.50488   0.88524   0.00000  Uiso   1.00
O1100  O     0.31065   0.49512   0.78143   0.00000  Uiso   1.00
O1101  O     0.18090   0.49510   0.78143   0.00000  Uiso   1.00
O1102  O     0.31910   0.50490   0.88523   0.00000  Uiso   1.00
C1103  C     0.38709   0.45429   0.91876   0.00000  Uiso   1.00
H1104  H     0.35616   0.42416   0.90333   0.00000  Uiso   1.00
H1105  H     0.41325   0.44188   0.94692   0.00000  Uiso   1.00
H1106  H     0.37971   0.48856   0.95102   0.00000  Uiso   1.00
C1107  C     0.12553   0.57714   0.79110   0.00000  Uiso   1.00
H1108  H     0.10445   0.60181   0.77281   0.00000  Uiso   1.00
H1109  H     0.15472   0.60139   0.82455   0.00000  Uiso   1.00
H1110  H     0.13794   0.55571   0.74983   0.00000  Uiso   1.00
C1111  C     0.43056   0.36527   0.84912   0.00000  Uiso   1.00
C1112  C     0.43887   0.34458   0.90637   0.00000  Uiso   1.00
H1113  H     0.47539   0.34425   0.91877   0.00000  Uiso   1.00
H1114  H     0.42720   0.36756   0.94704   0.00000  Uiso   1.00
H1115  H     0.41939   0.63819   0.89757   0.00000  Uiso   1.00
H1116  H     0.39455   0.36972   0.84238   0.00000  Uiso   1.00
H1117  H     0.43278   0.33634   0.80650   0.00000  Uiso   1.00
C1118  C     0.06803   0.64111   0.87780   0.00000  Uiso   1.00
C1119  C     0.09738   0.63523   0.93460   0.00000  Uiso   1.00
H1120  H     0.07614   0.61403   0.96154   0.00000  Uiso   1.00
H1121  H     0.12560   0.61483   0.92186   0.00000  Uiso   1.00
H1122  H     0.11285   0.34065   0.96456   0.00000  Uiso   1.00
H1123  H     0.08942   0.66027   0.84946   0.00000  Uiso   1.00
H1124  H     0.04615   0.33462   0.89749   0.00000  Uiso   1.00
C1125  C     0.23132   0.64552   0.74230   0.00000  Uiso   1.00
H1126  H     0.22118   0.33484   0.70986   0.00000  Uiso   1.00
H1127  H     0.26039   0.62858   0.72536   0.00000  Uiso   1.00
H1128  H     0.20104   0.61531   0.73804   0.00000  Uiso   1.00
C1129  C     0.26418   0.35380   0.92507   0.00000  Uiso   1.00
H1130  H     0.27251   0.66440   0.95821   0.00000  Uiso   1.00
H1131  H     0.29468   0.38412   0.93187   0.00000  Uiso   1.00
H1132  H     0.23433   0.37044   0.93945   0.00000  Uiso   1.00
C1133  C     0.19265   0.46006   0.98151   0.00000  Uiso   1.00
H1134  H     0.17828   0.43226   0.67345   0.00000  Uiso   1.00
H1135  H     0.16976   0.48859   0.98221   0.00000  Uiso   1.00
H1136  H     0.19352   0.43709   0.93456   0.00000  Uiso   1.00
C1137  C     0.30704   0.54056   0.68561   0.00000  Uiso   1.00
H1138  H     0.32993   0.51232   0.68653   0.00000  Uiso   1.00
H1139  H     0.32172   0.56775   0.99311   0.00000  Uiso   1.00
H1140  H     0.30567   0.56411   0.73206   0.00000  Uiso   1.00
C1141  C     0.74781   0.39991   0.81769   0.00000  Uiso   1.00
C1142  C     0.75160   0.60000   0.84901   0.00000  Uiso   1.00
C1143  C     0.50932   0.41148   0.84379   0.00000  Uiso   1.00
C1144  C     0.99122   0.58850   0.82643   0.00000  Uiso   1.00
C1145  C     0.74482   0.34395   0.80891   0.00000  Uiso   1.00
C1146  C     0.75318   0.65576   0.85803   0.00000  Uiso   1.00
C1147  C     0.66409   0.49663   0.83234   0.00000  Uiso   1.00
C1148  C     0.83609   0.50283   0.83436   0.00000  Uiso   1.00
C1149  C     0.91305   0.54168   0.81752   0.00000  Uiso   1.00
C1150  C     0.58672   0.45424   0.84030   0.00000  Uiso   1.00
C1151  C     0.88506   0.50368   0.83674   0.00000  Uiso   1.00
C1152  C     0.61570   0.49674   0.83097   0.00000  Uiso   1.00
C1153  C     0.90524   0.46951   0.86431   0.00000  Uiso   1.00
C1154  C     0.59836   0.53951   0.82011   0.00000  Uiso   1.00
C1155  C     0.94861   0.46111   0.85154   0.00000  Uiso   1.00
C1156  C     0.55378   0.54364   0.83112   0.00000  Uiso   1.00
C1157  C     0.97755   0.50135   0.83735   0.00000  Uiso   1.00
C1158  C     0.52386   0.49976   0.83600   0.00000  Uiso   1.00
C1159  C     0.96037   0.54391   0.82540   0.00000  Uiso   1.00
C1160  C     0.54011   0.45478   0.84016   0.00000  Uiso   1.00
C1161  C     0.96377   0.41435   0.85179   0.00000  Uiso   1.00
C1162  C     0.53810   0.59067   0.83992   0.00000  Uiso   1.00
Cu1163 Cu    0.75501   0.50579   0.89479   0.00000  Uiso   1.00
Cu1164 Cu    0.74500   0.49421   0.77187   0.00000  Uiso   1.00
H1165  H     0.89859   0.57163   0.80232   0.00000  Uiso   1.00
H1166  H     0.60036   0.42071   0.84634   0.00000  Uiso   1.00
H1167  H     0.52020   0.37508   0.83735   0.00000  Uiso   1.00
H1168  H     0.97943   0.62273   0.82257   0.00000  Uiso   1.00
N1169  N     0.73745   0.48547   0.67951   0.00000  Uiso   1.00
N1170  N     0.76256   0.51453   0.98716   0.00000  Uiso   1.00
O1171  O     0.75326   0.42871   0.87326   0.00000  Uiso   1.00
O1172  O     0.74675   0.57129   0.79341   0.00000  Uiso   1.00
O1173  O     0.74480   0.41892   0.76945   0.00000  Uiso   1.00
O1174  O     0.75520   0.58108   0.89721   0.00000  Uiso   1.00
O1175  O     0.68936   0.50488   0.88524   0.00000  Uiso   1.00
O1176  O     0.81065   0.49512   0.78143   0.00000  Uiso   1.00
O1177  O     0.68090   0.49510   0.78143   0.00000  Uiso   1.00
O1178  O     0.81910   0.50490   0.88523   0.00000  Uiso   1.00
C1179  C     0.88709   0.45429   0.91876   0.00000  Uiso   1.00
H1180  H     0.85616   0.42416   0.90333   0.00000  Uiso   1.00
H1181  H     0.91325   0.44188   0.94692   0.00000  Uiso   1.00
H1182  H     0.87971   0.48856   0.95102   0.00000  Uiso   1.00
C1183  C     0.62553   0.57714   0.79110   0.00000  Uiso   1.00
H1184  H     0.60445   0.60181   0.77281   0.00000  Uiso   1.00
H1185  H     0.65472   0.60139   0.82455   0.00000  Uiso   1.00
H1186  H     0.63794   0.55571   0.74983   0.00000  Uiso   1.00
C1187  C     0.93056   0.36527   0.84912   0.00000  Uiso   1.00
C1188  C     0.93887   0.34458   0.90637   0.00000  Uiso   1.00
H1189  H     0.97539   0.34425   0.91877   0.00000  Uiso   1.00
H1190  H     0.92720   0.36756   0.94704   0.00000  Uiso   1.00
H1191  H     0.91939   0.63819   0.89757   0.00000  Uiso   1.00
H1192  H     0.89455   0.36972   0.84238   0.00000  Uiso   1.00
H1193  H     0.93278   0.33634   0.80650   0.00000  Uiso   1.00
C1194  C     0.56803   0.64111   0.87780   0.00000  Uiso   1.00
C1195  C     0.59738   0.63523   0.93460   0.00000  Uiso   1.00
H1196  H     0.57614   0.61403   0.96154   0.00000  Uiso   1.00
H1197  H     0.62560   0.61483   0.92186   0.00000  Uiso   1.00
H1198  H     0.61285   0.34065   0.96456   0.00000  Uiso   1.00
H1199  H     0.58942   0.66027   0.84946   0.00000  Uiso   1.00
H1200  H     0.54615   0.33462   0.89749   0.00000  Uiso   1.00
C1201  C     0.73132   0.64552   0.74230   0.00000  Uiso   1.00
H1202  H     0.72118   0.33484   0.70986   0.00000  Uiso   1.00
H1203  H     0.76039   0.62858   0.72536   0.00000  Uiso   1.00
H1204  H     0.70104   0.61531   0.73804   0.00000  Uiso   1.00
C1205  C     0.76418   0.35380   0.92507   0.00000  Uiso   1.00
H1206  H     0.77251   0.66440   0.95821   0.00000  Uiso   1.00
H1207  H     0.79468   0.38412   0.93187   0.00000  Uiso   1.00
H1208  H     0.73433   0.37044   0.93945   0.00000  Uiso   1.00
C1209  C     0.69265   0.46006   0.98151   0.00000  Uiso   1.00
H1210  H     0.67828   0.43226   0.67345   0.00000  Uiso   1.00
H1211  H     0.66976   0.48859   0.98221   0.00000  Uiso   1.00
H1212  H     0.69352   0.43709   0.93456   0.00000  Uiso   1.00
C1213  C     0.80704   0.54056   0.68561   0.00000  Uiso   1.00
H1214  H     0.82993   0.51232   0.68653   0.00000  Uiso   1.00
H1215  H     0.82172   0.56775   0.99311   0.00000  Uiso   1.00
H1216  H     0.80567   0.56411   0.73206   0.00000  Uiso   1.00
C1217  C     0.24781   0.73324   0.81769   0.00000  Uiso   1.00
C1218  C     0.25160   0.93333   0.84901   0.00000  Uiso   1.00
C1219  C     0.00932   0.74482   0.84379   0.00000  Uiso   1.00
C1220  C     0.49122   0.92184   0.82643   0.00000  Uiso   1.00
C1221  C     0.24482   0.67728   0.80891   0.00000  Uiso   1.00
C1222  C     0.25318   0.98910   0.85803   0.00000  Uiso   1.00
C1223  C     0.16409   0.82996   0.83234   0.00000  Uiso   1.00
C1224  C     0.33609   0.83616   0.83436   0.00000  Uiso   1.00
C1225  C     0.41305   0.87501   0.81752   0.00000  Uiso   1.00
C1226  C     0.08672   0.78757   0.84030   0.00000  Uiso   1.00
C1227  C     0.38506   0.83701   0.83674   0.00000  Uiso   1.00
C1228  C     0.11570   0.83008   0.83097   0.00000  Uiso   1.00
C1229  C     0.40524   0.80285   0.86431   0.00000  Uiso   1.00
C1230  C     0.09836   0.87284   0.82011   0.00000  Uiso   1.00
C1231  C     0.44861   0.79444   0.85154   0.00000  Uiso   1.00
C1232  C     0.05378   0.87698   0.83112   0.00000  Uiso   1.00
C1233  C     0.47755   0.83469   0.83735   0.00000  Uiso   1.00
C1234  C     0.02386   0.83309   0.83600   0.00000  Uiso   1.00
C1235  C     0.46037   0.87725   0.82540   0.00000  Uiso   1.00
C1236  C     0.04011   0.78811   0.84016   0.00000  Uiso   1.00
C1237  C     0.46377   0.74769   0.85179   0.00000  Uiso   1.00
C1238  C     0.03810   0.92400   0.83992   0.00000  Uiso   1.00
Cu1239 Cu    0.25501   0.83913   0.89479   0.00000  Uiso   1.00
Cu1240 Cu    0.24500   0.82754   0.77187   0.00000  Uiso   1.00
H1241  H     0.39859   0.90496   0.80232   0.00000  Uiso   1.00
H1242  H     0.10036   0.75404   0.84634   0.00000  Uiso   1.00
H1243  H     0.02020   0.70842   0.83735   0.00000  Uiso   1.00
H1244  H     0.47943   0.95606   0.82257   0.00000  Uiso   1.00
N1245  N     0.23745   0.81881   0.67951   0.00000  Uiso   1.00
N1246  N     0.26256   0.84786   0.98716   0.00000  Uiso   1.00
O1247  O     0.25326   0.76204   0.87326   0.00000  Uiso   1.00
O1248  O     0.24675   0.90462   0.79341   0.00000  Uiso   1.00
O1249  O     0.24480   0.75226   0.76945   0.00000  Uiso   1.00
O1250  O     0.25520   0.91441   0.89721   0.00000  Uiso   1.00
O1251  O     0.18936   0.83821   0.88524   0.00000  Uiso   1.00
O1252  O     0.31065   0.82845   0.78143   0.00000  Uiso   1.00
O1253  O     0.18090   0.82843   0.78143   0.00000  Uiso   1.00
O1254  O     0.31910   0.83824   0.88523   0.00000  Uiso   1.00
C1255  C     0.38709   0.78762   0.91876   0.00000  Uiso   1.00
H1256  H     0.35616   0.75749   0.90333   0.00000  Uiso   1.00
H1257  H     0.41325   0.77521   0.94692   0.00000  Uiso   1.00
H1258  H     0.37971   0.82190   0.95102   0.00000  Uiso   1.00
C1259  C     0.12553   0.91047   0.79110   0.00000  Uiso   1.00
H1260  H     0.10445   0.93514   0.77281   0.00000  Uiso   1.00
H1261  H     0.15472   0.93472   0.82455   0.00000  Uiso   1.00
H1262  H     0.13794   0.88904   0.74983   0.00000  Uiso   1.00
C1263  C     0.43056   0.69860   0.84912   0.00000  Uiso   1.00
C1264  C     0.43887   0.67791   0.90637   0.00000  Uiso   1.00
H1265  H     0.47539   0.67759   0.91877   0.00000  Uiso   1.00
H1266  H     0.42720   0.70090   0.94704   0.00000  Uiso   1.00
H1267  H     0.41939   0.97153   0.89757   0.00000  Uiso   1.00
H1268  H     0.39455   0.70305   0.84238   0.00000  Uiso   1.00
H1269  H     0.43278   0.66968   0.80650   0.00000  Uiso   1.00
C1270  C     0.06803   0.97445   0.87780   0.00000  Uiso   1.00
C1271  C     0.09738   0.96857   0.93460   0.00000  Uiso   1.00
H1272  H     0.07614   0.94736   0.96154   0.00000  Uiso   1.00
H1273  H     0.12560   0.94816   0.92186   0.00000  Uiso   1.00
H1274  H     0.11285   0.67398   0.96456   0.00000  Uiso   1.00
H1275  H     0.08942   0.99360   0.84946   0.00000  Uiso   1.00
H1276  H     0.04615   0.66795   0.89749   0.00000  Uiso   1.00
C1277  C     0.23132   0.97886   0.74230   0.00000  Uiso   1.00
H1278  H     0.22118   0.66817   0.70986   0.00000  Uiso   1.00
H1279  H     0.26039   0.96191   0.72536   0.00000  Uiso   1.00
H1280  H     0.20104   0.94865   0.73804   0.00000  Uiso   1.00
C1281  C     0.26418   0.68713   0.92507   0.00000  Uiso   1.00
H1282  H     0.27251   0.99774   0.95821   0.00000  Uiso   1.00
H1283  H     0.29468   0.71745   0.93187   0.00000  Uiso   1.00
H1284  H     0.23433   0.70377   0.93945   0.00000  Uiso   1.00
C1285  C     0.19265   0.79339   0.98151   0.00000  Uiso   1.00
H1286  H     0.17828   0.76560   0.67345   0.00000  Uiso   1.00
H1287  H     0.16976   0.82193   0.98221   0.00000  Uiso   1.00
H1288  H     0.19352   0.77042   0.93456   0.00000  Uiso   1.00
C1289  C     0.30704   0.87390   0.68561   0.00000  Uiso   1.00
H1290  H     0.32993   0.84565   0.68653   0.00000  Uiso   1.00
H1291  H     0.32172   0.90109   0.99311   0.00000  Uiso   1.00
H1292  H     0.30567   0.89744   0.73206   0.00000  Uiso   1.00
C1293  C     0.74781   0.73324   0.81769   0.00000  Uiso   1.00
C1294  C     0.75160   0.93333   0.84901   0.00000  Uiso   1.00
C1295  C     0.50932   0.74482   0.84379   0.00000  Uiso   1.00
C1296  C     0.99122   0.92184   0.82643   0.00000  Uiso   1.00
C1297  C     0.74482   0.67728   0.80891   0.00000  Uiso   1.00
C1298  C     0.75318   0.98910   0.85803   0.00000  Uiso   1.00
C1299  C     0.66409   0.82996   0.83234   0.00000  Uiso   1.00
C1300  C     0.83609   0.83616   0.83436   0.00000  Uiso   1.00
C1301  C     0.91305   0.87501   0.81752   0.00000  Uiso   1.00
C1302  C     0.58672   0.78757   0.84030   0.00000  Uiso   1.00
C1303  C     0.88506   0.83701   0.83674   0.00000  Uiso   1.00
C1304  C     0.61570   0.83008   0.83097   0.00000  Uiso   1.00
C1305  C     0.90524   0.80285   0.86431   0.00000  Uiso   1.00
C1306  C     0.59836   0.87284   0.82011   0.00000  Uiso   1.00
C1307  C     0.94861   0.79444   0.85154   0.00000  Uiso   1.00
C1308  C     0.55378   0.87698   0.83112   0.00000  Uiso   1.00
C1309  C     0.97755   0.83469   0.83735   0.00000  Uiso   1.00
C1310  C     0.52386   0.83309   0.83600   0.00000  Uiso   1.00
C1311  C     0.96037   0.87725   0.82540   0.00000  Uiso   1.00
C1312  C     0.54011   0.78811   0.84016   0.00000  Uiso   1.00
C1313  C     0.96377   0.74769   0.85179   0.00000  Uiso   1.00
C1314  C     0.53810   0.92400   0.83992   0.00000  Uiso   1.00
Cu1315 Cu    0.75501   0.83913   0.89479   0.00000  Uiso   1.00
Cu1316 Cu    0.74500   0.82754   0.77187   0.00000  Uiso   1.00
H1317  H     0.89859   0.90496   0.80232   0.00000  Uiso   1.00
H1318  H     0.60036   0.75404   0.84634   0.00000  Uiso   1.00
H1319  H     0.52020   0.70842   0.83735   0.00000  Uiso   1.00
H1320  H     0.97943   0.95606   0.82257   0.00000  Uiso   1.00
N1321  N     0.73745   0.81881   0.67951   0.00000  Uiso   1.00
N1322  N     0.76256   0.84786   0.98716   0.00000  Uiso   1.00
O1323  O     0.75326   0.76204   0.87326   0.00000  Uiso   1.00
O1324  O     0.74675   0.90462   0.79341   0.00000  Uiso   1.00
O1325  O     0.74480   0.75226   0.76945   0.00000  Uiso   1.00
O1326  O     0.75520   0.91441   0.89721   0.00000  Uiso   1.00
O1327  O     0.68936   0.83821   0.88524   0.00000  Uiso   1.00
O1328  O     0.81065   0.82845   0.78143   0.00000  Uiso   1.00
O1329  O     0.68090   0.82843   0.78143   0.00000  Uiso   1.00
O1330  O     0.81910   0.83824   0.88523   0.00000  Uiso   1.00
C1331  C     0.88709   0.78762   0.91876   0.00000  Uiso   1.00
H1332  H     0.85616   0.75749   0.90333   0.00000  Uiso   1.00
H1333  H     0.91325   0.77521   0.94692   0.00000  Uiso   1.00
H1334  H     0.87971   0.82190   0.95102   0.00000  Uiso   1.00
C1335  C     0.62553   0.91047   0.79110   0.00000  Uiso   1.00
H1336  H     0.60445   0.93514   0.77281   0.00000  Uiso   1.00
H1337  H     0.65472   0.93472   0.82455   0.00000  Uiso   1.00
H1338  H     0.63794   0.88904   0.74983   0.00000  Uiso   1.00
C1339  C     0.93056   0.69860   0.84912   0.00000  Uiso   1.00
C1340  C     0.93887   0.67791   0.90637   0.00000  Uiso   1.00
H1341  H     0.97539   0.67759   0.91877   0.00000  Uiso   1.00
H1342  H     0.92720   0.70090   0.94704   0.00000  Uiso   1.00
H1343  H     0.91939   0.97153   0.89757   0.00000  Uiso   1.00
H1344  H     0.89455   0.70305   0.84238   0.00000  Uiso   1.00
H1345  H     0.93278   0.66968   0.80650   0.00000  Uiso   1.00
C1346  C     0.56803   0.97445   0.87780   0.00000  Uiso   1.00
C1347  C     0.59738   0.96857   0.93460   0.00000  Uiso   1.00
H1348  H     0.57614   0.94736   0.96154   0.00000  Uiso   1.00
H1349  H     0.62560   0.94816   0.92186   0.00000  Uiso   1.00
H1350  H     0.61285   0.67398   0.96456   0.00000  Uiso   1.00
H1351  H     0.58942   0.99360   0.84946   0.00000  Uiso   1.00
H1352  H     0.54615   0.66795   0.89749   0.00000  Uiso   1.00
C1353  C     0.73132   0.97886   0.74230   0.00000  Uiso   1.00
H1354  H     0.72118   0.66817   0.70986   0.00000  Uiso   1.00
H1355  H     0.76039   0.96191   0.72536   0.00000  Uiso   1.00
H1356  H     0.70104   0.94865   0.73804   0.00000  Uiso   1.00
C1357  C     0.76418   0.68713   0.92507   0.00000  Uiso   1.00
H1358  H     0.77251   0.99774   0.95821   0.00000  Uiso   1.00
H1359  H     0.79468   0.71745   0.93187   0.00000  Uiso   1.00
H1360  H     0.73433   0.70377   0.93945   0.00000  Uiso   1.00
C1361  C     0.69265   0.79339   0.98151   0.00000  Uiso   1.00
H1362  H     0.67828   0.76560   0.67345   0.00000  Uiso   1.00
H1363  H     0.66976   0.82193   0.98221   0.00000  Uiso   1.00
H1364  H     0.69352   0.77042   0.93456   0.00000  Uiso   1.00
C1365  C     0.80704   0.87390   0.68561   0.00000  Uiso   1.00
H1366  H     0.82993   0.84565   0.68653   0.00000  Uiso   1.00
H1367  H     0.82172   0.90109   0.99311   0.00000  Uiso   1.00
H1368  H     0.80567   0.89744   0.73206   0.00000  Uiso   1.00
loop_
_geom_bond_atom_site_label_1
_geom_bond_atom_site_label_2
_geom_bond_distance
_geom_bond_site_symmetry_2
_ccdc_geom_bond_type
C1     C5      1.472   .     S
C1     O31     1.293   .     A
C1     O33     1.309   .     A
C2     O32     1.294   .     A
C2     C6      1.472   .     S
C2     O34     1.308   .     A
C3     C20     1.403   .     A
C3     H27     1.070   .     S
C3     C97     1.409   1_455 S
C4     C19     1.400   .     A
C4     H28     1.062   .     S
C4     C98     1.399   .     S
C5     C310    1.386   1_545 S
C5     C365    1.527   1_545 S
C6     C157    1.386   .     S
C6     C217    1.528   .     S
C7     C12     1.450   .     S
C7     O37     1.294   .     A
C7     O35     1.300   .     A
C8     O36     1.305   .     A
C8     O38     1.294   .     A
C8     C11     1.462   .     S
C9     H25     1.084   .     S
C9     C19     1.404   .     A
C9     C11     1.404   .     A
C10    C20     1.401   .     A
C10    H26     1.084   .     S
C10    C12     1.404   .     A
C11    C13     1.407   .     A
C12    C14     1.404   .     A
C13    C15     1.402   .     A
C13    C39     1.509   .     S
C14    C16     1.402   .     A
C14    C43     1.516   .     S
C15    C17     1.406   .     A
C15    C21     1.413   .     A
C16    C22     1.405   .     A
C16    C18     1.410   .     A
C17    C19     1.405   .     A
C17    C94     1.400   .     S
C18    C20     1.402   .     A
C18    C93     1.400   1_455 S
C21    C47     1.521   .     S
C21    C79     1.409   .     S
C22    C54     1.528   .     S
C22    C80     1.399   1_455 S
Cu23   Cu24    2.696   .     S
Cu23   N30     2.026   .     S
Cu23   O31     2.025   .     S
Cu23   O35     1.956   .     S
Cu23   O34     2.030   .     S
Cu23   O38     1.961   .     S
Cu24   O36     1.956   .     S
Cu24   N29     2.026   .     S
Cu24   O32     2.025   .     S
Cu24   O37     1.961   .     S
Cu24   O33     2.030   .     S
N29    N942    1.282   1_554 S
N29    C981    1.442   1_554 S
N30    N485    1.282   .     S
N30    C529    1.442   .     S
C39    H42     1.106   .     S
C39    H41     1.102   .     S
C39    H40     1.105   .     S
C43    H44     1.107   .     S
C43    H45     1.108   .     S
C43    H46     1.108   .     S
C47    H53     1.106   .     S
C47    C48     1.536   .     S
C47    H52     1.106   .     S
C48    H50     1.104   .     S
C48    H49     1.106   .     S
C48    H355    1.107   1_545 S
H51    C200    1.107   .     S
C54    H59     1.107   .     S
C54    C55     1.534   .     S
C54    H212    1.102   .     S
C55    H56     1.111   .     S
C55    H57     1.107   .     S
C55    H210    1.111   .     S
H58    C359    1.111   1_545 S
H60    C358    1.102   1_545 S
C61    H64     1.106   .     S
C61    H63     1.108   .     S
C61    C157    1.527   .     S
C61    H214    1.108   .     S
H62    C365    1.108   1_545 S
C65    H67     1.104   .     S
C65    H68     1.107   .     S
C65    C310    1.528   1_545 S
C65    H370    1.107   1_545 S
H66    C217    1.107   .     S
C69    H71     1.110   .     S
C69    H72     1.102   .     S
C69    N485    1.442   .     S
C69    H526    1.109   .     S
H70    C981    1.109   1_554 S
C73    H74     1.107   .     S
C73    H76     1.101   .     S
C73    N942    1.442   1_554 S
C73    H987    1.109   1_554 S
H75    C529    1.109   .     S
C77    C81     1.472   .     S
C77    O107    1.293   .     A
C77    O109    1.309   .     A
C78    O108    1.294   .     A
C78    C82     1.472   .     S
C78    O110    1.308   .     A
C79    C96     1.403   .     A
C79    H103    1.070   .     S
C80    C95     1.400   .     A
C80    H104    1.062   .     S
C80    C22     1.399   1_655 S
C81    C386    1.386   1_545 S
C81    C441    1.527   1_545 S
C82    C233    1.386   .     S
C82    C293    1.528   .     S
C83    C88     1.450   .     S
C83    O113    1.294   .     A
C83    O111    1.300   .     A
C84    O112    1.305   .     A
C84    O114    1.294   .     A
C84    C87     1.462   .     S
C85    H101    1.084   .     S
C85    C95     1.404   .     A
C85    C87     1.404   .     A
C86    C96     1.401   .     A
C86    H102    1.084   .     S
C86    C88     1.404   .     A
C87    C89     1.407   .     A
C88    C90     1.404   .     A
C89    C91     1.402   .     A
C89    C115    1.509   .     S
C90    C92     1.402   .     A
C90    C119    1.516   .     S
C91    C93     1.406   .     A
C91    C97     1.413   .     A
C92    C98     1.405   .     A
C92    C94     1.410   .     A
C93    C95     1.405   .     A
C93    C18     1.400   1_655 S
C94    C96     1.402   .     A
C97    C123    1.521   .     S
C97    C3      1.409   1_655 S
C98    C130    1.528   .     S
Cu99   Cu100   2.696   .     S
Cu99   N106    2.026   .     S
Cu99   O107    2.025   .     S
Cu99   O111    1.956   .     S
Cu99   O110    2.030   .     S
Cu99   O114    1.961   .     S
Cu100  O112    1.956   .     S
Cu100  N105    2.026   .     S
Cu100  O108    2.025   .     S
Cu100  O113    1.961   .     S
Cu100  O109    2.030   .     S
N105   N1018   1.282   1_554 S
N105   C1057   1.442   1_554 S
N106   N561    1.282   .     S
N106   C605    1.442   .     S
C115   H118    1.106   .     S
C115   H117    1.102   .     S
C115   H116    1.105   .     S
C119   H120    1.107   .     S
C119   H121    1.108   .     S
C119   H122    1.108   .     S
C123   H129    1.106   .     S
C123   C124    1.536   .     S
C123   H128    1.106   .     S
C124   H126    1.104   .     S
C124   H125    1.106   .     S
C124   H431    1.107   1_545 S
H127   C276    1.107   .     S
C130   H135    1.107   .     S
C130   C131    1.534   .     S
C130   H288    1.102   .     S
C131   H132    1.111   .     S
C131   H133    1.107   .     S
C131   H286    1.111   .     S
H134   C435    1.111   1_545 S
H136   C434    1.102   1_545 S
C137   H140    1.106   .     S
C137   H139    1.108   .     S
C137   C233    1.527   .     S
C137   H290    1.108   .     S
H138   C441    1.108   1_545 S
C141   H143    1.104   .     S
C141   H144    1.107   .     S
C141   C386    1.528   1_545 S
C141   H446    1.107   1_545 S
H142   C293    1.107   .     S
C145   H147    1.110   .     S
C145   H148    1.102   .     S
C145   N561    1.442   .     S
C145   H602    1.109   .     S
H146   C1057   1.109   1_554 S
C149   H150    1.107   .     S
C149   H152    1.101   .     S
C149   N1018   1.442   1_554 S
C149   H1063   1.109   1_554 S
H151   C605    1.109   .     S
C153   C157    1.472   .     S
C153   O183    1.293   .     A
C153   O185    1.309   .     A
C154   O184    1.294   .     A
C154   C158    1.472   .     S
C154   O186    1.308   .     A
C155   C172    1.403   .     A
C155   H179    1.070   .     S
C155   C249    1.409   1_455 S
C156   C171    1.400   .     A
C156   H180    1.062   .     S
C156   C250    1.399   .     S
C158   C309    1.386   .     S
C158   C369    1.528   .     S
C159   C164    1.450   .     S
C159   O189    1.294   .     A
C159   O187    1.300   .     A
C160   O188    1.305   .     A
C160   O190    1.294   .     A
C160   C163    1.462   .     S
C161   H177    1.084   .     S
C161   C171    1.404   .     A
C161   C163    1.404   .     A
C162   C172    1.401   .     A
C162   H178    1.084   .     S
C162   C164    1.404   .     A
C163   C165    1.407   .     A
C164   C166    1.404   .     A
C165   C167    1.402   .     A
C165   C191    1.509   .     S
C166   C168    1.402   .     A
C166   C195    1.516   .     S
C167   C169    1.406   .     A
C167   C173    1.413   .     A
C168   C174    1.405   .     A
C168   C170    1.410   .     A
C169   C171    1.405   .     A
C169   C246    1.400   .     S
C170   C172    1.402   .     A
C170   C245    1.400   1_455 S
C173   C199    1.521   .     S
C173   C231    1.409   .     S
C174   C206    1.528   .     S
C174   C232    1.399   1_455 S
Cu175  Cu176   2.696   .     S
Cu175  N182    2.026   .     S
Cu175  O183    2.025   .     S
Cu175  O187    1.956   .     S
Cu175  O186    2.030   .     S
Cu175  O190    1.961   .     S
Cu176  O188    1.956   .     S
Cu176  N181    2.026   .     S
Cu176  O184    2.025   .     S
Cu176  O189    1.961   .     S
Cu176  O185    2.030   .     S
N181   N1094   1.282   1_554 S
N181   C1133   1.442   1_554 S
N182   N637    1.282   .     S
N182   C681    1.442   .     S
C191   H194    1.106   .     S
C191   H193    1.102   .     S
C191   H192    1.105   .     S
C195   H196    1.107   .     S
C195   H197    1.108   .     S
C195   H198    1.108   .     S
C199   H205    1.106   .     S
C199   C200    1.536   .     S
C199   H204    1.106   .     S
C200   H202    1.104   .     S
C200   H201    1.106   .     S
H203   C352    1.107   .     S
C206   H211    1.107   .     S
C206   C207    1.534   .     S
C206   H364    1.102   .     S
C207   H208    1.111   .     S
C207   H209    1.107   .     S
C207   H362    1.111   .     S
C213   H216    1.106   .     S
C213   H215    1.108   .     S
C213   C309    1.527   .     S
C213   H366    1.108   .     S
C217   H219    1.104   .     S
C217   H220    1.107   .     S
H218   C369    1.107   .     S
C221   H223    1.110   .     S
C221   H224    1.102   .     S
C221   N637    1.442   .     S
C221   H678    1.109   .     S
H222   C1133   1.109   1_554 S
C225   H226    1.107   .     S
C225   H228    1.101   .     S
C225   N1094   1.442   1_554 S
C225   H1139   1.109   1_554 S
H227   C681    1.109   .     S
C229   C233    1.472   .     S
C229   O259    1.293   .     A
C229   O261    1.309   .     A
C230   O260    1.294   .     A
C230   C234    1.472   .     S
C230   O262    1.308   .     A
C231   C248    1.403   .     A
C231   H255    1.070   .     S
C232   C247    1.400   .     A
C232   H256    1.062   .     S
C232   C174    1.399   1_655 S
C234   C385    1.386   .     S
C234   C445    1.528   .     S
C235   C240    1.450   .     S
C235   O265    1.294   .     A
C235   O263    1.300   .     A
C236   O264    1.305   .     A
C236   O266    1.294   .     A
C236   C239    1.462   .     S
C237   H253    1.084   .     S
C237   C247    1.404   .     A
C237   C239    1.404   .     A
C238   C248    1.401   .     A
C238   H254    1.084   .     S
C238   C240    1.404   .     A
C239   C241    1.407   .     A
C240   C242    1.404   .     A
C241   C243    1.402   .     A
C241   C267    1.509   .     S
C242   C244    1.402   .     A
C242   C271    1.516   .     S
C243   C245    1.406   .     A
C243   C249    1.413   .     A
C244   C250    1.405   .     A
C244   C246    1.410   .     A
C245   C247    1.405   .     A
C245   C170    1.400   1_655 S
C246   C248    1.402   .     A
C249   C275    1.521   .     S
C249   C155    1.409   1_655 S
C250   C282    1.528   .     S
Cu251  Cu252   2.696   .     S
Cu251  N258    2.026   .     S
Cu251  O259    2.025   .     S
Cu251  O263    1.956   .     S
Cu251  O262    2.030   .     S
Cu251  O266    1.961   .     S
Cu252  O264    1.956   .     S
Cu252  N257    2.026   .     S
Cu252  O260    2.025   .     S
Cu252  O265    1.961   .     S
Cu252  O261    2.030   .     S
N257   N1170   1.282   1_554 S
N257   C1209   1.442   1_554 S
N258   N713    1.282   .     S
N258   C757    1.442   .     S
C267   H270    1.106   .     S
C267   H269    1.102   .     S
C267   H268    1.105   .     S
C271   H272    1.107   .     S
C271   H273    1.108   .     S
C271   H274    1.108   .     S
C275   H281    1.106   .     S
C275   C276    1.536   .     S
C275   H280    1.106   .     S
C276   H278    1.104   .     S
C276   H277    1.106   .     S
H279   C428    1.107   .     S
C282   H287    1.107   .     S
C282   C283    1.534   .     S
C282   H440    1.102   .     S
C283   H284    1.111   .     S
C283   H285    1.107   .     S
C283   H438    1.111   .     S
C289   H292    1.106   .     S
C289   H291    1.108   .     S
C289   C385    1.527   .     S
C289   H442    1.108   .     S
C293   H295    1.104   .     S
C293   H296    1.107   .     S
H294   C445    1.107   .     S
C297   H299    1.110   .     S
C297   H300    1.102   .     S
C297   N713    1.442   .     S
C297   H754    1.109   .     S
H298   C1209   1.109   1_554 S
C301   H302    1.107   .     S
C301   H304    1.101   .     S
C301   N1170   1.442   1_554 S
C301   H1215   1.109   1_554 S
H303   C757    1.109   .     S
C305   C309    1.472   .     S
C305   O335    1.293   .     A
C305   O337    1.309   .     A
C306   O336    1.294   .     A
C306   C310    1.472   .     S
C306   O338    1.308   .     A
C307   C324    1.403   .     A
C307   H331    1.070   .     S
C307   C401    1.409   1_455 S
C308   C323    1.400   .     A
C308   H332    1.062   .     S
C308   C402    1.399   .     S
C310   C5      1.386   1_565 S
C310   C65     1.528   1_565 S
C311   C316    1.450   .     S
C311   O341    1.294   .     A
C311   O339    1.300   .     A
C312   O340    1.305   .     A
C312   O342    1.294   .     A
C312   C315    1.462   .     S
C313   H329    1.084   .     S
C313   C323    1.404   .     A
C313   C315    1.404   .     A
C314   C324    1.401   .     A
C314   H330    1.084   .     S
C314   C316    1.404   .     A
C315   C317    1.407   .     A
C316   C318    1.404   .     A
C317   C319    1.402   .     A
C317   C343    1.509   .     S
C318   C320    1.402   .     A
C318   C347    1.516   .     S
C319   C321    1.406   .     A
C319   C325    1.413   .     A
C320   C326    1.405   .     A
C320   C322    1.410   .     A
C321   C323    1.405   .     A
C321   C398    1.400   .     S
C322   C324    1.402   .     A
C322   C397    1.400   1_455 S
C325   C351    1.521   .     S
C325   C383    1.409   .     S
C326   C358    1.528   .     S
C326   C384    1.399   1_455 S
Cu327  Cu328   2.696   .     S
Cu327  N334    2.026   .     S
Cu327  O335    2.025   .     S
Cu327  O339    1.956   .     S
Cu327  O338    2.030   .     S
Cu327  O342    1.961   .     S
Cu328  O340    1.956   .     S
Cu328  N333    2.026   .     S
Cu328  O336    2.025   .     S
Cu328  O341    1.961   .     S
Cu328  O337    2.030   .     S
N333   N1246   1.282   1_554 S
N333   C1285   1.442   1_554 S
N334   N789    1.282   .     S
N334   C833    1.442   .     S
C343   H346    1.106   .     S
C343   H345    1.102   .     S
C343   H344    1.105   .     S
C347   H348    1.107   .     S
C347   H349    1.108   .     S
C347   H350    1.108   .     S
C351   H357    1.106   .     S
C351   C352    1.536   .     S
C351   H356    1.106   .     S
C352   H354    1.104   .     S
C352   H353    1.106   .     S
H355   C48     1.107   1_565 S
C358   H363    1.107   .     S
C358   C359    1.534   .     S
C358   H60     1.102   1_565 S
C359   H360    1.111   .     S
C359   H361    1.107   .     S
C359   H58     1.111   1_565 S
C365   H368    1.106   .     S
C365   H367    1.108   .     S
C365   C5      1.527   1_565 S
C365   H62     1.108   1_565 S
C369   H371    1.104   .     S
C369   H372    1.107   .     S
H370   C65     1.107   1_565 S
C373   H375    1.110   .     S
C373   H376    1.102   .     S
C373   N789    1.442   .     S
C373   H830    1.109   .     S
H374   C1285   1.109   1_554 S
C377   H378    1.107   .     S
C377   H380    1.101   .     S
C377   N1246   1.442   1_554 S
C377   H1291   1.109   1_554 S
H379   C833    1.109   .     S
C381   C385    1.472   .     S
C381   O411    1.293   .     A
C381   O413    1.309   .     A
C382   O412    1.294   .     A
C382   C386    1.472   .     S
C382   O414    1.308   .     A
C383   C400    1.403   .     A
C383   H407    1.070   .     S
C384   C399    1.400   .     A
C384   H408    1.062   .     S
C384   C326    1.399   1_655 S
C386   C81     1.386   1_565 S
C386   C141    1.528   1_565 S
C387   C392    1.450   .     S
C387   O417    1.294   .     A
C387   O415    1.300   .     A
C388   O416    1.305   .     A
C388   O418    1.294   .     A
C388   C391    1.462   .     S
C389   H405    1.084   .     S
C389   C399    1.404   .     A
C389   C391    1.404   .     A
C390   C400    1.401   .     A
C390   H406    1.084   .     S
C390   C392    1.404   .     A
C391   C393    1.407   .     A
C392   C394    1.404   .     A
C393   C395    1.402   .     A
C393   C419    1.509   .     S
C394   C396    1.402   .     A
C394   C423    1.516   .     S
C395   C397    1.406   .     A
C395   C401    1.413   .     A
C396   C402    1.405   .     A
C396   C398    1.410   .     A
C397   C399    1.405   .     A
C397   C322    1.400   1_655 S
C398   C400    1.402   .     A
C401   C427    1.521   .     S
C401   C307    1.409   1_655 S
C402   C434    1.528   .     S
Cu403  Cu404   2.696   .     S
Cu403  N410    2.026   .     S
Cu403  O411    2.025   .     S
Cu403  O415    1.956   .     S
Cu403  O414    2.030   .     S
Cu403  O418    1.961   .     S
Cu404  O416    1.956   .     S
Cu404  N409    2.026   .     S
Cu404  O412    2.025   .     S
Cu404  O417    1.961   .     S
Cu404  O413    2.030   .     S
N409   N1322   1.282   1_554 S
N409   C1361   1.442   1_554 S
N410   N865    1.282   .     S
N410   C909    1.442   .     S
C419   H422    1.106   .     S
C419   H421    1.102   .     S
C419   H420    1.105   .     S
C423   H424    1.107   .     S
C423   H425    1.108   .     S
C423   H426    1.108   .     S
C427   H433    1.106   .     S
C427   C428    1.536   .     S
C427   H432    1.106   .     S
C428   H430    1.104   .     S
C428   H429    1.106   .     S
H431   C124    1.107   1_565 S
C434   H439    1.107   .     S
C434   C435    1.534   .     S
C434   H136    1.102   1_565 S
C435   H436    1.111   .     S
C435   H437    1.107   .     S
C435   H134    1.111   1_565 S
C441   H444    1.106   .     S
C441   H443    1.108   .     S
C441   C81     1.527   1_565 S
C441   H138    1.108   1_565 S
C445   H447    1.104   .     S
C445   H448    1.107   .     S
H446   C141    1.107   1_565 S
C449   H451    1.110   .     S
C449   H452    1.102   .     S
C449   N865    1.442   .     S
C449   H906    1.109   .     S
H450   C1361   1.109   1_554 S
C453   H454    1.107   .     S
C453   H456    1.101   .     S
C453   N1322   1.442   1_554 S
C453   H1367   1.109   1_554 S
H455   C909    1.109   .     S
C457   C461    1.472   .     S
C457   O487    1.293   .     A
C457   O489    1.309   .     A
C458   O488    1.294   .     A
C458   C462    1.472   .     S
C458   O490    1.308   .     A
C459   C476    1.403   .     A
C459   H483    1.070   .     S
C459   C553    1.409   1_455 S
C460   C475    1.400   .     A
C460   H484    1.062   .     S
C460   C554    1.399   .     S
C461   C766    1.386   1_545 S
C461   C821    1.527   1_545 S
C462   C613    1.386   .     S
C462   C673    1.528   .     S
C463   C468    1.450   .     S
C463   O493    1.294   .     A
C463   O491    1.300   .     A
C464   O492    1.305   .     A
C464   O494    1.294   .     A
C464   C467    1.462   .     S
C465   H481    1.084   .     S
C465   C475    1.404   .     A
C465   C467    1.404   .     A
C466   C476    1.401   .     A
C466   H482    1.084   .     S
C466   C468    1.404   .     A
C467   C469    1.407   .     A
C468   C470    1.404   .     A
C469   C471    1.402   .     A
C469   C495    1.509   .     S
C470   C472    1.402   .     A
C470   C499    1.516   .     S
C471   C473    1.406   .     A
C471   C477    1.413   .     A
C472   C478    1.405   .     A
C472   C474    1.410   .     A
C473   C475    1.405   .     A
C473   C550    1.400   .     S
C474   C476    1.402   .     A
C474   C549    1.400   1_455 S
C477   C503    1.521   .     S
C477   C535    1.409   .     S
C478   C510    1.528   .     S
C478   C536    1.399   1_455 S
Cu479  Cu480   2.696   .     S
Cu479  N486    2.026   .     S
Cu479  O487    2.025   .     S
Cu479  O491    1.956   .     S
Cu479  O490    2.030   .     S
Cu479  O494    1.961   .     S
Cu480  O492    1.956   .     S
Cu480  N485    2.026   .     S
Cu480  O488    2.025   .     S
Cu480  O493    1.961   .     S
Cu480  O489    2.030   .     S
N486   N941    1.282   .     S
N486   C985    1.442   .     S
C495   H498    1.106   .     S
C495   H497    1.102   .     S
C495   H496    1.105   .     S
C499   H500    1.107   .     S
C499   H501    1.108   .     S
C499   H502    1.108   .     S
C503   H509    1.106   .     S
C503   C504    1.536   .     S
C503   H508    1.106   .     S
C504   H506    1.104   .     S
C504   H505    1.106   .     S
C504   H811    1.107   1_545 S
H507   C656    1.107   .     S
C510   H515    1.107   .     S
C510   C511    1.534   .     S
C510   H668    1.102   .     S
C511   H512    1.111   .     S
C511   H513    1.107   .     S
C511   H666    1.111   .     S
H514   C815    1.111   1_545 S
H516   C814    1.102   1_545 S
C517   H520    1.106   .     S
C517   H519    1.108   .     S
C517   C613    1.527   .     S
C517   H670    1.108   .     S
H518   C821    1.108   1_545 S
C521   H523    1.104   .     S
C521   H524    1.107   .     S
C521   C766    1.528   1_545 S
C521   H826    1.107   1_545 S
H522   C673    1.107   .     S
C525   H527    1.110   .     S
C525   H528    1.102   .     S
C525   N941    1.442   .     S
C525   H982    1.109   .     S
C529   H530    1.107   .     S
C529   H532    1.101   .     S
H531   C985    1.109   .     S
C533   C537    1.472   .     S
C533   O563    1.293   .     A
C533   O565    1.309   .     A
C534   O564    1.294   .     A
C534   C538    1.472   .     S
C534   O566    1.308   .     A
C535   C552    1.403   .     A
C535   H559    1.070   .     S
C536   C551    1.400   .     A
C536   H560    1.062   .     S
C536   C478    1.399   1_655 S
C537   C842    1.386   1_545 S
C537   C897    1.527   1_545 S
C538   C689    1.386   .     S
C538   C749    1.528   .     S
C539   C544    1.450   .     S
C539   O569    1.294   .     A
C539   O567    1.300   .     A
C540   O568    1.305   .     A
C540   O570    1.294   .     A
C540   C543    1.462   .     S
C541   H557    1.084   .     S
C541   C551    1.404   .     A
C541   C543    1.404   .     A
C542   C552    1.401   .     A
C542   H558    1.084   .     S
C542   C544    1.404   .     A
C543   C545    1.407   .     A
C544   C546    1.404   .     A
C545   C547    1.402   .     A
C545   C571    1.509   .     S
C546   C548    1.402   .     A
C546   C575    1.516   .     S
C547   C549    1.406   .     A
C547   C553    1.413   .     A
C548   C554    1.405   .     A
C548   C550    1.410   .     A
C549   C551    1.405   .     A
C549   C474    1.400   1_655 S
C550   C552    1.402   .     A
C553   C579    1.521   .     S
C553   C459    1.409   1_655 S
C554   C586    1.528   .     S
Cu555  Cu556   2.696   .     S
Cu555  N562    2.026   .     S
Cu555  O563    2.025   .     S
Cu555  O567    1.956   .     S
Cu555  O566    2.030   .     S
Cu555  O570    1.961   .     S
Cu556  O568    1.956   .     S
Cu556  N561    2.026   .     S
Cu556  O564    2.025   .     S
Cu556  O569    1.961   .     S
Cu556  O565    2.030   .     S
N562   N1017   1.282   .     S
N562   C1061   1.442   .     S
C571   H574    1.106   .     S
C571   H573    1.102   .     S
C571   H572    1.105   .     S
C575   H576    1.107   .     S
C575   H577    1.108   .     S
C575   H578    1.108   .     S
C579   H585    1.106   .     S
C579   C580    1.536   .     S
C579   H584    1.106   .     S
C580   H582    1.104   .     S
C580   H581    1.106   .     S
C580   H887    1.107   1_545 S
H583   C732    1.107   .     S
C586   H591    1.107   .     S
C586   C587    1.534   .     S
C586   H744    1.102   .     S
C587   H588    1.111   .     S
C587   H589    1.107   .     S
C587   H742    1.111   .     S
H590   C891    1.111   1_545 S
H592   C890    1.102   1_545 S
C593   H596    1.106   .     S
C593   H595    1.108   .     S
C593   C689    1.527   .     S
C593   H746    1.108   .     S
H594   C897    1.108   1_545 S
C597   H599    1.104   .     S
C597   H600    1.107   .     S
C597   C842    1.528   1_545 S
C597   H902    1.107   1_545 S
H598   C749    1.107   .     S
C601   H603    1.110   .     S
C601   H604    1.102   .     S
C601   N1017   1.442   .     S
C601   H1058   1.109   .     S
C605   H606    1.107   .     S
C605   H608    1.101   .     S
H607   C1061   1.109   .     S
C609   C613    1.472   .     S
C609   O639    1.293   .     A
C609   O641    1.309   .     A
C610   O640    1.294   .     A
C610   C614    1.472   .     S
C610   O642    1.308   .     A
C611   C628    1.403   .     A
C611   H635    1.070   .     S
C611   C705    1.409   1_455 S
C612   C627    1.400   .     A
C612   H636    1.062   .     S
C612   C706    1.399   .     S
C614   C765    1.386   .     S
C614   C825    1.528   .     S
C615   C620    1.450   .     S
C615   O645    1.294   .     A
C615   O643    1.300   .     A
C616   O644    1.305   .     A
C616   O646    1.294   .     A
C616   C619    1.462   .     S
C617   H633    1.084   .     S
C617   C627    1.404   .     A
C617   C619    1.404   .     A
C618   C628    1.401   .     A
C618   H634    1.084   .     S
C618   C620    1.404   .     A
C619   C621    1.407   .     A
C620   C622    1.404   .     A
C621   C623    1.402   .     A
C621   C647    1.509   .     S
C622   C624    1.402   .     A
C622   C651    1.516   .     S
C623   C625    1.406   .     A
C623   C629    1.413   .     A
C624   C630    1.405   .     A
C624   C626    1.410   .     A
C625   C627    1.405   .     A
C625   C702    1.400   .     S
C626   C628    1.402   .     A
C626   C701    1.400   1_455 S
C629   C655    1.521   .     S
C629   C687    1.409   .     S
C630   C662    1.528   .     S
C630   C688    1.399   1_455 S
Cu631  Cu632   2.696   .     S
Cu631  N638    2.026   .     S
Cu631  O639    2.025   .     S
Cu631  O643    1.956   .     S
Cu631  O642    2.030   .     S
Cu631  O646    1.961   .     S
Cu632  O644    1.956   .     S
Cu632  N637    2.026   .     S
Cu632  O640    2.025   .     S
Cu632  O645    1.961   .     S
Cu632  O641    2.030   .     S
N638   N1093   1.282   .     S
N638   C1137   1.442   .     S
C647   H650    1.106   .     S
C647   H649    1.102   .     S
C647   H648    1.105   .     S
C651   H652    1.107   .     S
C651   H653    1.108   .     S
C651   H654    1.108   .     S
C655   H661    1.106   .     S
C655   C656    1.536   .     S
C655   H660    1.106   .     S
C656   H658    1.104   .     S
C656   H657    1.106   .     S
H659   C808    1.107   .     S
C662   H667    1.107   .     S
C662   C663    1.534   .     S
C662   H820    1.102   .     S
C663   H664    1.111   .     S
C663   H665    1.107   .     S
C663   H818    1.111   .     S
C669   H672    1.106   .     S
C669   H671    1.108   .     S
C669   C765    1.527   .     S
C669   H822    1.108   .     S
C673   H675    1.104   .     S
C673   H676    1.107   .     S
H674   C825    1.107   .     S
C677   H679    1.110   .     S
C677   H680    1.102   .     S
C677   N1093   1.442   .     S
C677   H1134   1.109   .     S
C681   H682    1.107   .     S
C681   H684    1.101   .     S
H683   C1137   1.109   .     S
C685   C689    1.472   .     S
C685   O715    1.293   .     A
C685   O717    1.309   .     A
C686   O716    1.294   .     A
C686   C690    1.472   .     S
C686   O718    1.308   .     A
C687   C704    1.403   .     A
C687   H711    1.070   .     S
C688   C703    1.400   .     A
C688   H712    1.062   .     S
C688   C630    1.399   1_655 S
C690   C841    1.386   .     S
C690   C901    1.528   .     S
C691   C696    1.450   .     S
C691   O721    1.294   .     A
C691   O719    1.300   .     A
C692   O720    1.305   .     A
C692   O722    1.294   .     A
C692   C695    1.462   .     S
C693   H709    1.084   .     S
C693   C703    1.404   .     A
C693   C695    1.404   .     A
C694   C704    1.401   .     A
C694   H710    1.084   .     S
C694   C696    1.404   .     A
C695   C697    1.407   .     A
C696   C698    1.404   .     A
C697   C699    1.402   .     A
C697   C723    1.509   .     S
C698   C700    1.402   .     A
C698   C727    1.516   .     S
C699   C701    1.406   .     A
C699   C705    1.413   .     A
C700   C706    1.405   .     A
C700   C702    1.410   .     A
C701   C703    1.405   .     A
C701   C626    1.400   1_655 S
C702   C704    1.402   .     A
C705   C731    1.521   .     S
C705   C611    1.409   1_655 S
C706   C738    1.528   .     S
Cu707  Cu708   2.696   .     S
Cu707  N714    2.026   .     S
Cu707  O715    2.025   .     S
Cu707  O719    1.956   .     S
Cu707  O718    2.030   .     S
Cu707  O722    1.961   .     S
Cu708  O720    1.956   .     S
Cu708  N713    2.026   .     S
Cu708  O716    2.025   .     S
Cu708  O721    1.961   .     S
Cu708  O717    2.030   .     S
N714   N1169   1.282   .     S
N714   C1213   1.442   .     S
C723   H726    1.106   .     S
C723   H725    1.102   .     S
C723   H724    1.105   .     S
C727   H728    1.107   .     S
C727   H729    1.108   .     S
C727   H730    1.108   .     S
C731   H737    1.106   .     S
C731   C732    1.536   .     S
C731   H736    1.106   .     S
C732   H734    1.104   .     S
C732   H733    1.106   .     S
H735   C884    1.107   .     S
C738   H743    1.107   .     S
C738   C739    1.534   .     S
C738   H896    1.102   .     S
C739   H740    1.111   .     S
C739   H741    1.107   .     S
C739   H894    1.111   .     S
C745   H748    1.106   .     S
C745   H747    1.108   .     S
C745   C841    1.527   .     S
C745   H898    1.108   .     S
C749   H751    1.104   .     S
C749   H752    1.107   .     S
H750   C901    1.107   .     S
C753   H755    1.110   .     S
C753   H756    1.102   .     S
C753   N1169   1.442   .     S
C753   H1210   1.109   .     S
C757   H758    1.107   .     S
C757   H760    1.101   .     S
H759   C1213   1.109   .     S
C761   C765    1.472   .     S
C761   O791    1.293   .     A
C761   O793    1.309   .     A
C762   O792    1.294   .     A
C762   C766    1.472   .     S
C762   O794    1.308   .     A
C763   C780    1.403   .     A
C763   H787    1.070   .     S
C763   C857    1.409   1_455 S
C764   C779    1.400   .     A
C764   H788    1.062   .     S
C764   C858    1.399   .     S
C766   C461    1.386   1_565 S
C766   C521    1.528   1_565 S
C767   C772    1.450   .     S
C767   O797    1.294   .     A
C767   O795    1.300   .     A
C768   O796    1.305   .     A
C768   O798    1.294   .     A
C768   C771    1.462   .     S
C769   H785    1.084   .     S
C769   C779    1.404   .     A
C769   C771    1.404   .     A
C770   C780    1.401   .     A
C770   H786    1.084   .     S
C770   C772    1.404   .     A
C771   C773    1.407   .     A
C772   C774    1.404   .     A
C773   C775    1.402   .     A
C773   C799    1.509   .     S
C774   C776    1.402   .     A
C774   C803    1.516   .     S
C775   C777    1.406   .     A
C775   C781    1.413   .     A
C776   C782    1.405   .     A
C776   C778    1.410   .     A
C777   C779    1.405   .     A
C777   C854    1.400   .     S
C778   C780    1.402   .     A
C778   C853    1.400   1_455 S
C781   C807    1.521   .     S
C781   C839    1.409   .     S
C782   C814    1.528   .     S
C782   C840    1.399   1_455 S
Cu783  Cu784   2.696   .     S
Cu783  N790    2.026   .     S
Cu783  O791    2.025   .     S
Cu783  O795    1.956   .     S
Cu783  O794    2.030   .     S
Cu783  O798    1.961   .     S
Cu784  O796    1.956   .     S
Cu784  N789    2.026   .     S
Cu784  O792    2.025   .     S
Cu784  O797    1.961   .     S
Cu784  O793    2.030   .     S
N790   N1245   1.282   .     S
N790   C1289   1.442   .     S
C799   H802    1.106   .     S
C799   H801    1.102   .     S
C799   H800    1.105   .     S
C803   H804    1.107   .     S
C803   H805    1.108   .     S
C803   H806    1.108   .     S
C807   H813    1.106   .     S
C807   C808    1.536   .     S
C807   H812    1.106   .     S
C808   H810    1.104   .     S
C808   H809    1.106   .     S
H811   C504    1.107   1_565 S
C814   H819    1.107   .     S
C814   C815    1.534   .     S
C814   H516    1.102   1_565 S
C815   H816    1.111   .     S
C815   H817    1.107   .     S
C815   H514    1.111   1_565 S
C821   H824    1.106   .     S
C821   H823    1.108   .     S
C821   C461    1.527   1_565 S
C821   H518    1.108   1_565 S
C825   H827    1.104   .     S
C825   H828    1.107   .     S
H826   C521    1.107   1_565 S
C829   H831    1.110   .     S
C829   H832    1.102   .     S
C829   N1245   1.442   .     S
C829   H1286   1.109   .     S
C833   H834    1.107   .     S
C833   H836    1.101   .     S
H835   C1289   1.109   .     S
C837   C841    1.472   .     S
C837   O867    1.293   .     A
C837   O869    1.309   .     A
C838   O868    1.294   .     A
C838   C842    1.472   .     S
C838   O870    1.308   .     A
C839   C856    1.403   .     A
C839   H863    1.070   .     S
C840   C855    1.400   .     A
C840   H864    1.062   .     S
C840   C782    1.399   1_655 S
C842   C537    1.386   1_565 S
C842   C597    1.528   1_565 S
C843   C848    1.450   .     S
C843   O873    1.294   .     A
C843   O871    1.300   .     A
C844   O872    1.305   .     A
C844   O874    1.294   .     A
C844   C847    1.462   .     S
C845   H861    1.084   .     S
C845   C855    1.404   .     A
C845   C847    1.404   .     A
C846   C856    1.401   .     A
C846   H862    1.084   .     S
C846   C848    1.404   .     A
C847   C849    1.407   .     A
C848   C850    1.404   .     A
C849   C851    1.402   .     A
C849   C875    1.509   .     S
C850   C852    1.402   .     A
C850   C879    1.516   .     S
C851   C853    1.406   .     A
C851   C857    1.413   .     A
C852   C858    1.405   .     A
C852   C854    1.410   .     A
C853   C855    1.405   .     A
C853   C778    1.400   1_655 S
C854   C856    1.402   .     A
C857   C883    1.521   .     S
C857   C763    1.409   1_655 S
C858   C890    1.528   .     S
Cu859  Cu860   2.696   .     S
Cu859  N866    2.026   .     S
Cu859  O867    2.025   .     S
Cu859  O871    1.956   .     S
Cu859  O870    2.030   .     S
Cu859  O874    1.961   .     S
Cu860  O872    1.956   .     S
Cu860  N865    2.026   .     S
Cu860  O868    2.025   .     S
Cu860  O873    1.961   .     S
Cu860  O869    2.030   .     S
N866   N1321   1.282   .     S
N866   C1365   1.442   .     S
C875   H878    1.106   .     S
C875   H877    1.102   .     S
C875   H876    1.105   .     S
C879   H880    1.107   .     S
C879   H881    1.108   .     S
C879   H882    1.108   .     S
C883   H889    1.106   .     S
C883   C884    1.536   .     S
C883   H888    1.106   .     S
C884   H886    1.104   .     S
C884   H885    1.106   .     S
H887   C580    1.107   1_565 S
C890   H895    1.107   .     S
C890   C891    1.534   .     S
C890   H592    1.102   1_565 S
C891   H892    1.111   .     S
C891   H893    1.107   .     S
C891   H590    1.111   1_565 S
C897   H900    1.106   .     S
C897   H899    1.108   .     S
C897   C537    1.527   1_565 S
C897   H594    1.108   1_565 S
C901   H903    1.104   .     S
C901   H904    1.107   .     S
H902   C597    1.107   1_565 S
C905   H907    1.110   .     S
C905   H908    1.102   .     S
C905   N1321   1.442   .     S
C905   H1362   1.109   .     S
C909   H910    1.107   .     S
C909   H912    1.101   .     S
H911   C1365   1.109   .     S
C913   C917    1.472   .     S
C913   O943    1.293   .     A
C913   O945    1.309   .     A
C914   O944    1.294   .     A
C914   C918    1.472   .     S
C914   O946    1.308   .     A
C915   C932    1.403   .     A
C915   H939    1.070   .     S
C915   C1009   1.409   1_455 S
C916   C931    1.400   .     A
C916   H940    1.062   .     S
C916   C1010   1.399   .     S
C917   C1222   1.386   1_545 S
C917   C1277   1.527   1_545 S
C918   C1069   1.386   .     S
C918   C1129   1.528   .     S
C919   C924    1.450   .     S
C919   O949    1.294   .     A
C919   O947    1.300   .     A
C920   O948    1.305   .     A
C920   O950    1.294   .     A
C920   C923    1.462   .     S
C921   H937    1.084   .     S
C921   C931    1.404   .     A
C921   C923    1.404   .     A
C922   C932    1.401   .     A
C922   H938    1.084   .     S
C922   C924    1.404   .     A
C923   C925    1.407   .     A
C924   C926    1.404   .     A
C925   C927    1.402   .     A
C925   C951    1.509   .     S
C926   C928    1.402   .     A
C926   C955    1.516   .     S
C927   C929    1.406   .     A
C927   C933    1.413   .     A
C928   C934    1.405   .     A
C928   C930    1.410   .     A
C929   C931    1.405   .     A
C929   C1006   1.400   .     S
C930   C932    1.402   .     A
C930   C1005   1.400   1_455 S
C933   C959    1.521   .     S
C933   C991    1.409   .     S
C934   C966    1.528   .     S
C934   C992    1.399   1_455 S
Cu935  Cu936   2.696   .     S
Cu935  N942    2.026   .     S
Cu935  O943    2.025   .     S
Cu935  O947    1.956   .     S
Cu935  O946    2.030   .     S
Cu935  O950    1.961   .     S
Cu936  O948    1.956   .     S
Cu936  N941    2.026   .     S
Cu936  O944    2.025   .     S
Cu936  O949    1.961   .     S
Cu936  O945    2.030   .     S
N942   N29     1.282   1_556 S
N942   C73     1.442   1_556 S
C951   H954    1.106   .     S
C951   H953    1.102   .     S
C951   H952    1.105   .     S
C955   H956    1.107   .     S
C955   H957    1.108   .     S
C955   H958    1.108   .     S
C959   H965    1.106   .     S
C959   C960    1.536   .     S
C959   H964    1.106   .     S
C960   H962    1.104   .     S
C960   H961    1.106   .     S
C960   H1267   1.107   1_545 S
H963   C1112   1.107   .     S
C966   H971    1.107   .     S
C966   C967    1.534   .     S
C966   H1124   1.102   .     S
C967   H968    1.111   .     S
C967   H969    1.107   .     S
C967   H1122   1.111   .     S
H970   C1271   1.111   1_545 S
H972   C1270   1.102   1_545 S
C973   H976    1.106   .     S
C973   H975    1.108   .     S
C973   C1069   1.527   .     S
C973   H1126   1.108   .     S
H974   C1277   1.108   1_545 S
C977   H979    1.104   .     S
C977   H980    1.107   .     S
C977   C1222   1.528   1_545 S
C977   H1282   1.107   1_545 S
H978   C1129   1.107   .     S
C981   H983    1.110   .     S
C981   H984    1.102   .     S
C981   N29     1.442   1_556 S
C981   H70     1.109   1_556 S
C985   H986    1.107   .     S
C985   H988    1.101   .     S
H987   C73     1.109   1_556 S
C989   C993    1.472   .     S
C989   O1019   1.293   .     A
C989   O1021   1.309   .     A
C990   O1020   1.294   .     A
C990   C994    1.472   .     S
C990   O1022   1.308   .     A
C991   C1008   1.403   .     A
C991   H1015   1.070   .     S
C992   C1007   1.400   .     A
C992   H1016   1.062   .     S
C992   C934    1.399   1_655 S
C993   C1298   1.386   1_545 S
C993   C1353   1.527   1_545 S
C994   C1145   1.386   .     S
C994   C1205   1.528   .     S
C995   C1000   1.450   .     S
C995   O1025   1.294   .     A
C995   O1023   1.300   .     A
C996   O1024   1.305   .     A
C996   O1026   1.294   .     A
C996   C999    1.462   .     S
C997   H1013   1.084   .     S
C997   C1007   1.404   .     A
C997   C999    1.404   .     A
C998   C1008   1.401   .     A
C998   H1014   1.084   .     S
C998   C1000   1.404   .     A
C999   C1001   1.407   .     A
C1000  C1002   1.404   .     A
C1001  C1003   1.402   .     A
C1001  C1027   1.509   .     S
C1002  C1004   1.402   .     A
C1002  C1031   1.516   .     S
C1003  C1005   1.406   .     A
C1003  C1009   1.413   .     A
C1004  C1010   1.405   .     A
C1004  C1006   1.410   .     A
C1005  C1007   1.405   .     A
C1005  C930    1.400   1_655 S
C1006  C1008   1.402   .     A
C1009  C1035   1.521   .     S
C1009  C915    1.409   1_655 S
C1010  C1042   1.528   .     S
Cu1011 Cu1012  2.696   .     S
Cu1011 N1018   2.026   .     S
Cu1011 O1019   2.025   .     S
Cu1011 O1023   1.956   .     S
Cu1011 O1022   2.030   .     S
Cu1011 O1026   1.961   .     S
Cu1012 O1024   1.956   .     S
Cu1012 N1017   2.026   .     S
Cu1012 O1020   2.025   .     S
Cu1012 O1025   1.961   .     S
Cu1012 O1021   2.030   .     S
N1018  N105    1.282   1_556 S
N1018  C149    1.442   1_556 S
C1027  H1030   1.106   .     S
C1027  H1029   1.102   .     S
C1027  H1028   1.105   .     S
C1031  H1032   1.107   .     S
C1031  H1033   1.108   .     S
C1031  H1034   1.108   .     S
C1035  H1041   1.106   .     S
C1035  C1036   1.536   .     S
C1035  H1040   1.106   .     S
C1036  H1038   1.104   .     S
C1036  H1037   1.106   .     S
C1036  H1343   1.107   1_545 S
H1039  C1188   1.107   .     S
C1042  H1047   1.107   .     S
C1042  C1043   1.534   .     S
C1042  H1200   1.102   .     S
C1043  H1044   1.111   .     S
C1043  H1045   1.107   .     S
C1043  H1198   1.111   .     S
H1046  C1347   1.111   1_545 S
H1048  C1346   1.102   1_545 S
C1049  H1052   1.106   .     S
C1049  H1051   1.108   .     S
C1049  C1145   1.527   .     S
C1049  H1202   1.108   .     S
H1050  C1353   1.108   1_545 S
C1053  H1055   1.104   .     S
C1053  H1056   1.107   .     S
C1053  C1298   1.528   1_545 S
C1053  H1358   1.107   1_545 S
H1054  C1205   1.107   .     S
C1057  H1059   1.110   .     S
C1057  H1060   1.102   .     S
C1057  N105    1.442   1_556 S
C1057  H146    1.109   1_556 S
C1061  H1062   1.107   .     S
C1061  H1064   1.101   .     S
H1063  C149    1.109   1_556 S
C1065  C1069   1.472   .     S
C1065  O1095   1.293   .     A
C1065  O1097   1.309   .     A
C1066  O1096   1.294   .     A
C1066  C1070   1.472   .     S
C1066  O1098   1.308   .     A
C1067  C1084   1.403   .     A
C1067  H1091   1.070   .     S
C1067  C1161   1.409   1_455 S
C1068  C1083   1.400   .     A
C1068  H1092   1.062   .     S
C1068  C1162   1.399   .     S
C1070  C1221   1.386   .     S
C1070  C1281   1.528   .     S
C1071  C1076   1.450   .     S
C1071  O1101   1.294   .     A
C1071  O1099   1.300   .     A
C1072  O1100   1.305   .     A
C1072  O1102   1.294   .     A
C1072  C1075   1.462   .     S
C1073  H1089   1.084   .     S
C1073  C1083   1.404   .     A
C1073  C1075   1.404   .     A
C1074  C1084   1.401   .     A
C1074  H1090   1.084   .     S
C1074  C1076   1.404   .     A
C1075  C1077   1.407   .     A
C1076  C1078   1.404   .     A
C1077  C1079   1.402   .     A
C1077  C1103   1.509   .     S
C1078  C1080   1.402   .     A
C1078  C1107   1.516   .     S
C1079  C1081   1.406   .     A
C1079  C1085   1.413   .     A
C1080  C1086   1.405   .     A
C1080  C1082   1.410   .     A
C1081  C1083   1.405   .     A
C1081  C1158   1.400   .     S
C1082  C1084   1.402   .     A
C1082  C1157   1.400   1_455 S
C1085  C1111   1.521   .     S
C1085  C1143   1.409   .     S
C1086  C1118   1.528   .     S
C1086  C1144   1.399   1_455 S
Cu1087 Cu1088  2.696   .     S
Cu1087 N1094   2.026   .     S
Cu1087 O1095   2.025   .     S
Cu1087 O1099   1.956   .     S
Cu1087 O1098   2.030   .     S
Cu1087 O1102   1.961   .     S
Cu1088 O1100   1.956   .     S
Cu1088 N1093   2.026   .     S
Cu1088 O1096   2.025   .     S
Cu1088 O1101   1.961   .     S
Cu1088 O1097   2.030   .     S
N1094  N181    1.282   1_556 S
N1094  C225    1.442   1_556 S
C1103  H1106   1.106   .     S
C1103  H1105   1.102   .     S
C1103  H1104   1.105   .     S
C1107  H1108   1.107   .     S
C1107  H1109   1.108   .     S
C1107  H1110   1.108   .     S
C1111  H1117   1.106   .     S
C1111  C1112   1.536   .     S
C1111  H1116   1.106   .     S
C1112  H1114   1.104   .     S
C1112  H1113   1.106   .     S
H1115  C1264   1.107   .     S
C1118  H1123   1.107   .     S
C1118  C1119   1.534   .     S
C1118  H1276   1.102   .     S
C1119  H1120   1.111   .     S
C1119  H1121   1.107   .     S
C1119  H1274   1.111   .     S
C1125  H1128   1.106   .     S
C1125  H1127   1.108   .     S
C1125  C1221   1.527   .     S
C1125  H1278   1.108   .     S
C1129  H1131   1.104   .     S
C1129  H1132   1.107   .     S
H1130  C1281   1.107   .     S
C1133  H1135   1.110   .     S
C1133  H1136   1.102   .     S
C1133  N181    1.442   1_556 S
C1133  H222    1.109   1_556 S
C1137  H1138   1.107   .     S
C1137  H1140   1.101   .     S
H1139  C225    1.109   1_556 S
C1141  C1145   1.472   .     S
C1141  O1171   1.293   .     A
C1141  O1173   1.309   .     A
C1142  O1172   1.294   .     A
C1142  C1146   1.472   .     S
C1142  O1174   1.308   .     A
C1143  C1160   1.403   .     A
C1143  H1167   1.070   .     S
C1144  C1159   1.400   .     A
C1144  H1168   1.062   .     S
C1144  C1086   1.399   1_655 S
C1146  C1297   1.386   .     S
C1146  C1357   1.528   .     S
C1147  C1152   1.450   .     S
C1147  O1177   1.294   .     A
C1147  O1175   1.300   .     A
C1148  O1176   1.305   .     A
C1148  O1178   1.294   .     A
C1148  C1151   1.462   .     S
C1149  H1165   1.084   .     S
C1149  C1159   1.404   .     A
C1149  C1151   1.404   .     A
C1150  C1160   1.401   .     A
C1150  H1166   1.084   .     S
C1150  C1152   1.404   .     A
C1151  C1153   1.407   .     A
C1152  C1154   1.404   .     A
C1153  C1155   1.402   .     A
C1153  C1179   1.509   .     S
C1154  C1156   1.402   .     A
C1154  C1183   1.516   .     S
C1155  C1157   1.406   .     A
C1155  C1161   1.413   .     A
C1156  C1162   1.405   .     A
C1156  C1158   1.410   .     A
C1157  C1159   1.405   .     A
C1157  C1082   1.400   1_655 S
C1158  C1160   1.402   .     A
C1161  C1187   1.521   .     S
C1161  C1067   1.409   1_655 S
C1162  C1194   1.528   .     S
Cu1163 Cu1164  2.696   .     S
Cu1163 N1170   2.026   .     S
Cu1163 O1171   2.025   .     S
Cu1163 O1175   1.956   .     S
Cu1163 O1174   2.030   .     S
Cu1163 O1178   1.961   .     S
Cu1164 O1176   1.956   .     S
Cu1164 N1169   2.026   .     S
Cu1164 O1172   2.025   .     S
Cu1164 O1177   1.961   .     S
Cu1164 O1173   2.030   .     S
N1170  N257    1.282   1_556 S
N1170  C301    1.442   1_556 S
C1179  H1182   1.106   .     S
C1179  H1181   1.102   .     S
C1179  H1180   1.105   .     S
C1183  H1184   1.107   .     S
C1183  H1185   1.108   .     S
C1183  H1186   1.108   .     S
C1187  H1193   1.106   .     S
C1187  C1188   1.536   .     S
C1187  H1192   1.106   .     S
C1188  H1190   1.104   .     S
C1188  H1189   1.106   .     S
H1191  C1340   1.107   .     S
C1194  H1199   1.107   .     S
C1194  C1195   1.534   .     S
C1194  H1352   1.102   .     S
C1195  H1196   1.111   .     S
C1195  H1197   1.107   .     S
C1195  H1350   1.111   .     S
C1201  H1204   1.106   .     S
C1201  H1203   1.108   .     S
C1201  C1297   1.527   .     S
C1201  H1354   1.108   .     S
C1205  H1207   1.104   .     S
C1205  H1208   1.107   .     S
H1206  C1357   1.107   .     S
C1209  H1211   1.110   .     S
C1209  H1212   1.102   .     S
C1209  N257    1.442   1_556 S
C1209  H298    1.109   1_556 S
C1213  H1214   1.107   .     S
C1213  H1216   1.101   .     S
H1215  C301    1.109   1_556 S
C1217  C1221   1.472   .     S
C1217  O1247   1.293   .     A
C1217  O1249   1.309   .     A
C1218  O1248   1.294   .     A
C1218  C1222   1.472   .     S
C1218  O1250   1.308   .     A
C1219  C1236   1.403   .     A
C1219  H1243   1.070   .     S
C1219  C1313   1.409   1_455 S
C1220  C1235   1.400   .     A
C1220  H1244   1.062   .     S
C1220  C1314   1.399   .     S
C1222  C917    1.386   1_565 S
C1222  C977    1.528   1_565 S
C1223  C1228   1.450   .     S
C1223  O1253   1.294   .     A
C1223  O1251   1.300   .     A
C1224  O1252   1.305   .     A
C1224  O1254   1.294   .     A
C1224  C1227   1.462   .     S
C1225  H1241   1.084   .     S
C1225  C1235   1.404   .     A
C1225  C1227   1.404   .     A
C1226  C1236   1.401   .     A
C1226  H1242   1.084   .     S
C1226  C1228   1.404   .     A
C1227  C1229   1.407   .     A
C1228  C1230   1.404   .     A
C1229  C1231   1.402   .     A
C1229  C1255   1.509   .     S
C1230  C1232   1.402   .     A
C1230  C1259   1.516   .     S
C1231  C1233   1.406   .     A
C1231  C1237   1.413   .     A
C1232  C1238   1.405   .     A
C1232  C1234   1.410   .     A
C1233  C1235   1.405   .     A
C1233  C1310   1.400   .     S
C1234  C1236   1.402   .     A
C1234  C1309   1.400   1_455 S
C1237  C1263   1.521   .     S
C1237  C1295   1.409   .     S
C1238  C1270   1.528   .     S
C1238  C1296   1.399   1_455 S
Cu1239 Cu1240  2.696   .     S
Cu1239 N1246   2.026   .     S
Cu1239 O1247   2.025   .     S
Cu1239 O1251   1.956   .     S
Cu1239 O1250   2.030   .     S
Cu1239 O1254   1.961   .     S
Cu1240 O1252   1.956   .     S
Cu1240 N1245   2.026   .     S
Cu1240 O1248   2.025   .     S
Cu1240 O1253   1.961   .     S
Cu1240 O1249   2.030   .     S
N1246  N333    1.282   1_556 S
N1246  C377    1.442   1_556 S
C1255  H1258   1.106   .     S
C1255  H1257   1.102   .     S
C1255  H1256   1.105   .     S
C1259  H1260   1.107   .     S
C1259  H1261   1.108   .     S
C1259  H1262   1.108   .     S
C1263  H1269   1.106   .     S
C1263  C1264   1.536   .     S
C1263  H1268   1.106   .     S
C1264  H1266   1.104   .     S
C1264  H1265   1.106   .     S
H1267  C960    1.107   1_565 S
C1270  H1275   1.107   .     S
C1270  C1271   1.534   .     S
C1270  H972    1.102   1_565 S
C1271  H1272   1.111   .     S
C1271  H1273   1.107   .     S
C1271  H970    1.111   1_565 S
C1277  H1280   1.106   .     S
C1277  H1279   1.108   .     S
C1277  C917    1.527   1_565 S
C1277  H974    1.108   1_565 S
C1281  H1283   1.104   .     S
C1281  H1284   1.107   .     S
H1282  C977    1.107   1_565 S
C1285  H1287   1.110   .     S
C1285  H1288   1.102   .     S
C1285  N333    1.442   1_556 S
C1285  H374    1.109   1_556 S
C1289  H1290   1.107   .     S
C1289  H1292   1.101   .     S
H1291  C377    1.109   1_556 S
C1293  C1297   1.472   .     S
C1293  O1323   1.293   .     A
C1293  O1325   1.309   .     A
C1294  O1324   1.294   .     A
C1294  C1298   1.472   .     S
C1294  O1326   1.308   .     A
C1295  C1312   1.403   .     A
C1295  H1319   1.070   .     S
C1296  C1311   1.400   .     A
C1296  H1320   1.062   .     S
C1296  C1238   1.399   1_655 S
C1298  C993    1.386   1_565 S
C1298  C1053   1.528   1_565 S
C1299  C1304   1.450   .     S
C1299  O1329   1.294   .     A
C1299  O1327   1.300   .     A
C1300  O1328   1.305   .     A
C1300  O1330   1.294   .     A
C1300  C1303   1.462   .     S
C1301  H1317   1.084   .     S
C1301  C1311   1.404   .     A
C1301  C1303   1.404   .     A
C1302  C1312   1.401   .     A
C1302  H1318   1.084   .     S
C1302  C1304   1.404   .     A
C1303  C1305   1.407   .     A
C1304  C1306   1.404   .     A
C1305  C1307   1.402   .     A
C1305  C1331   1.509   .     S
C1306  C1308   1.402   .     A
C1306  C1335   1.516   .     S
C1307  C1309   1.406   .     A
C1307  C1313   1.413   .     A
C1308  C1314   1.405   .     A
C1308  C1310   1.410   .     A
C1309  C1311   1.405   .     A
C1309  C1234   1.400   1_655 S
C1310  C1312   1.402   .     A
C1313  C1339   1.521   .     S
C1313  C1219   1.409   1_655 S
C1314  C1346   1.528   .     S
Cu1315 Cu1316  2.696   .     S
Cu1315 N1322   2.026   .     S
Cu1315 O1323   2.025   .     S
Cu1315 O1327   1.956   .     S
Cu1315 O1326   2.030   .     S
Cu1315 O1330   1.961   .     S
Cu1316 O1328   1.956   .     S
Cu1316 N1321   2.026   .     S
Cu1316 O1324   2.025   .     S
Cu1316 O1329   1.961   .     S
Cu1316 O1325   2.030   .     S
N1322  N409    1.282   1_556 S
N1322  C453    1.442   1_556 S
C1331  H1334   1.106   .     S
C1331  H1333   1.102   .     S
C1331  H1332   1.105   .     S
C1335  H1336   1.107   .     S
C1335  H1337   1.108   .     S
C1335  H1338   1.108   .     S
C1339  H1345   1.106   .     S
C1339  C1340   1.536   .     S
C1339  H1344   1.106   .     S
C1340  H1342   1.104   .     S
C1340  H1341   1.106   .     S
H1343  C1036   1.107   1_565 S
C1346  H1351   1.107   .     S
C1346  C1347   1.534   .     S
C1346  H1048   1.102   1_565 S
C1347  H1348   1.111   .     S
C1347  H1349   1.107   .     S
C1347  H1046   1.111   1_565 S
C1353  H1356   1.106   .     S
C1353  H1355   1.108   .     S
C1353  C993    1.527   1_565 S
C1353  H1050   1.108   1_565 S
C1357  H1359   1.104   .     S
C1357  H1360   1.107   .     S
H1358  C1053   1.107   1_565 S
C1361  H1363   1.110   .     S
C1361  H1364   1.102   .     S
C1361  N409    1.442   1_556 S
C1361  H450    1.109   1_556 S
C1365  H1366   1.107   .     S
C1365  H1368   1.101   .     S
H1367  C453    1.109   1_556 S
