data_str_m2_o1_o16_pcu_sym.223
_audit_creation_date              2020-01-03
_audit_creation_method            'Materials Studio'
_symmetry_space_group_name_H-M    'P1'
_symmetry_Int_Tables_number       1
_symmetry_cell_setting            triclinic
loop_
_symmetry_equiv_pos_as_xyz
  x,y,z
_cell_length_a                    28.5168
_cell_length_b                    32.5372
_cell_length_c                    26.8215
_cell_angle_alpha                 90.1822
_cell_angle_beta                  73.0195
_cell_angle_gamma                 90.4900
loop_
_atom_site_label
_atom_site_type_symbol
_atom_site_fract_x
_atom_site_fract_y
_atom_site_fract_z
_atom_site_U_iso_or_equiv
_atom_site_adp_type
_atom_site_occupancy
C1     C     0.16678   0.24592   0.25025   0.00000  Uiso   1.00
C2     C     0.14256   0.15197   0.49076   0.00000  Uiso   1.00
C3     C     0.15662   0.14692   0.43589   0.00000  Uiso   1.00
C4     C     0.17939   0.14849   0.01664   0.00000  Uiso   1.00
C5     C     0.22570   0.13118   0.49032   0.00000  Uiso   1.00
C6     C     0.23528   0.11896   0.43814   0.00000  Uiso   1.00
C7     C     0.20124   0.12700   0.41151   0.00000  Uiso   1.00
C8     C     0.17280   0.16469   0.06665   0.00000  Uiso   1.00
C9     C     0.25174   0.13956   0.06840   0.00000  Uiso   1.00
C10    C     0.12478   0.16067   0.40741   0.00000  Uiso   1.00
C11    C     0.21064   0.31253   0.23880   0.00000  Uiso   1.00
C12    C     0.14062   0.16436   0.35009   0.00000  Uiso   1.00
C13    C     0.20984   0.02172   0.23921   0.00000  Uiso   1.00
C14    C     0.16496   0.04257   0.25252   0.00000  Uiso   1.00
C15    C     0.12036   0.02000   0.26643   0.00000  Uiso   1.00
C16    C     0.12174   0.31084   0.26534   0.00000  Uiso   1.00
C17    C     0.16656   0.29038   0.25136   0.00000  Uiso   1.00
C18    C     0.30088   0.19475   0.27882   0.00000  Uiso   1.00
C19    C     0.01719   0.19473   0.27882   0.00000  Uiso   1.00
C20    C     0.03227   0.13823   0.22181   0.00000  Uiso   1.00
C21    C     0.31601   0.13831   0.22167   0.00000  Uiso   1.00
C22    C     0.16599   0.08730   0.25121   0.00000  Uiso   1.00
C23    C     0.19271   0.16573   0.14993   0.00000  Uiso   1.00
C24    C     0.26137   0.12684   0.01681   0.00000  Uiso   1.00
C25    C     0.20713   0.15821   0.09366   0.00000  Uiso   1.00
C26    C     0.07706   0.17284   0.43443   0.00000  Uiso   1.00
C27    C     0.06050   0.17061   0.48832   0.00000  Uiso   1.00
C28    C     0.09213   0.15944   0.01681   0.00000  Uiso   1.00
Cu29   Cu    0.11978   0.16666   0.25000   0.00000  Uiso   1.00
Cu30   Cu    0.21355   0.16667   0.25000   0.00000  Uiso   1.00
H31    H     0.27875   0.13406   0.08878   0.00000  Uiso   1.00
H32    H     0.24448   0.03824   0.22848   0.00000  Uiso   1.00
H33    H     0.08746   0.29376   0.27611   0.00000  Uiso   1.00
H34    H     0.27604   0.21721   0.30194   0.00000  Uiso   1.00
H35    H     0.02978   0.21717   0.30196   0.00000  Uiso   1.00
H36    H     0.05699   0.11546   0.19921   0.00000  Uiso   1.00
H37    H     0.30336   0.11571   0.19878   0.00000  Uiso   1.00
H38    H     0.29661   0.11315   0.49837   0.00000  Uiso   1.00
H39    H     0.14136   0.18332   0.08497   0.00000  Uiso   1.00
H40    H     0.05176   0.18294   0.41378   0.00000  Uiso   1.00
H41    H     0.02235   0.17690   0.00804   0.00000  Uiso   1.00
H42    H     0.20984   0.11595   0.37193   0.00000  Uiso   1.00
H43    H     0.24566   0.29705   0.22795   0.00000  Uiso   1.00
N44    N     0.04931   0.16666   0.24999   0.00000  Uiso   1.00
N45    N     0.28402   0.16669   0.25000   0.00000  Uiso   1.00
O46    O     0.12708   0.22678   0.25001   0.00000  Uiso   1.00
O47    O     0.20627   0.22679   0.25001   0.00000  Uiso   1.00
O48    O     0.10775   0.16665   0.32549   0.00000  Uiso   1.00
O49    O     0.18694   0.16666   0.32549   0.00000  Uiso   1.00
O50    O     0.12706   0.10654   0.25000   0.00000  Uiso   1.00
O51    O     0.20625   0.10655   0.25000   0.00000  Uiso   1.00
O52    O     0.14640   0.16667   0.17451   0.00000  Uiso   1.00
O53    O     0.22559   0.16668   0.17451   0.00000  Uiso   1.00
Br54   Br    0.05597   0.04361   0.28935   0.00000  Uiso   1.00
Br55   Br    0.29551   0.09338   0.39962   0.00000  Uiso   1.00
Br56   Br    0.05985   0.14443   0.08789   0.00000  Uiso   1.00
C57    C     0.50011   0.24592   0.25025   0.00000  Uiso   1.00
C58    C     0.47589   0.15197   0.49076   0.00000  Uiso   1.00
C59    C     0.48995   0.14692   0.43589   0.00000  Uiso   1.00
C60    C     0.51272   0.14849   0.01664   0.00000  Uiso   1.00
C61    C     0.55903   0.13118   0.49032   0.00000  Uiso   1.00
C62    C     0.56861   0.11896   0.43814   0.00000  Uiso   1.00
C63    C     0.53457   0.12700   0.41151   0.00000  Uiso   1.00
C64    C     0.50613   0.16469   0.06665   0.00000  Uiso   1.00
C65    C     0.58507   0.13956   0.06840   0.00000  Uiso   1.00
C66    C     0.45811   0.16067   0.40741   0.00000  Uiso   1.00
C67    C     0.54398   0.31253   0.23880   0.00000  Uiso   1.00
C68    C     0.47396   0.16436   0.35009   0.00000  Uiso   1.00
C69    C     0.54317   0.02172   0.23921   0.00000  Uiso   1.00
C70    C     0.49829   0.04257   0.25252   0.00000  Uiso   1.00
C71    C     0.45370   0.02000   0.26643   0.00000  Uiso   1.00
C72    C     0.45507   0.31084   0.26534   0.00000  Uiso   1.00
C73    C     0.49989   0.29038   0.25136   0.00000  Uiso   1.00
C74    C     0.63421   0.19475   0.27882   0.00000  Uiso   1.00
C75    C     0.35052   0.19473   0.27882   0.00000  Uiso   1.00
C76    C     0.36560   0.13823   0.22181   0.00000  Uiso   1.00
C77    C     0.64934   0.13831   0.22167   0.00000  Uiso   1.00
C78    C     0.49933   0.08730   0.25121   0.00000  Uiso   1.00
C79    C     0.52604   0.16573   0.14993   0.00000  Uiso   1.00
C80    C     0.59470   0.12684   0.01681   0.00000  Uiso   1.00
C81    C     0.54046   0.15821   0.09366   0.00000  Uiso   1.00
C82    C     0.41039   0.17284   0.43443   0.00000  Uiso   1.00
C83    C     0.39383   0.17061   0.48832   0.00000  Uiso   1.00
C84    C     0.42546   0.15944   0.01681   0.00000  Uiso   1.00
Cu85   Cu    0.45311   0.16666   0.25000   0.00000  Uiso   1.00
Cu86   Cu    0.54689   0.16667   0.25000   0.00000  Uiso   1.00
H87    H     0.61208   0.13406   0.08878   0.00000  Uiso   1.00
H88    H     0.57782   0.03824   0.22848   0.00000  Uiso   1.00
H89    H     0.42079   0.29376   0.27611   0.00000  Uiso   1.00
H90    H     0.60937   0.21721   0.30194   0.00000  Uiso   1.00
H91    H     0.36311   0.21717   0.30196   0.00000  Uiso   1.00
H92    H     0.39032   0.11546   0.19921   0.00000  Uiso   1.00
H93    H     0.63669   0.11571   0.19878   0.00000  Uiso   1.00
H94    H     0.62994   0.11315   0.49837   0.00000  Uiso   1.00
H95    H     0.47469   0.18332   0.08497   0.00000  Uiso   1.00
H96    H     0.38510   0.18294   0.41378   0.00000  Uiso   1.00
H97    H     0.35568   0.17690   0.00804   0.00000  Uiso   1.00
H98    H     0.54318   0.11595   0.37193   0.00000  Uiso   1.00
H99    H     0.57900   0.29705   0.22795   0.00000  Uiso   1.00
N100   N     0.38265   0.16666   0.24999   0.00000  Uiso   1.00
N101   N     0.61735   0.16669   0.25000   0.00000  Uiso   1.00
O102   O     0.46042   0.22678   0.25001   0.00000  Uiso   1.00
O103   O     0.53961   0.22679   0.25001   0.00000  Uiso   1.00
O104   O     0.44108   0.16665   0.32549   0.00000  Uiso   1.00
O105   O     0.52027   0.16666   0.32549   0.00000  Uiso   1.00
O106   O     0.46039   0.10654   0.25000   0.00000  Uiso   1.00
O107   O     0.53958   0.10655   0.25000   0.00000  Uiso   1.00
O108   O     0.47973   0.16667   0.17451   0.00000  Uiso   1.00
O109   O     0.55892   0.16668   0.17451   0.00000  Uiso   1.00
Br110  Br    0.38930   0.04361   0.28935   0.00000  Uiso   1.00
Br111  Br    0.62885   0.09338   0.39962   0.00000  Uiso   1.00
Br112  Br    0.39319   0.14443   0.08789   0.00000  Uiso   1.00
C113   C     0.83345   0.24592   0.25025   0.00000  Uiso   1.00
C114   C     0.80922   0.15197   0.49076   0.00000  Uiso   1.00
C115   C     0.82329   0.14692   0.43589   0.00000  Uiso   1.00
C116   C     0.84606   0.14849   0.01664   0.00000  Uiso   1.00
C117   C     0.89236   0.13118   0.49032   0.00000  Uiso   1.00
C118   C     0.90194   0.11896   0.43814   0.00000  Uiso   1.00
C119   C     0.86790   0.12700   0.41151   0.00000  Uiso   1.00
C120   C     0.83946   0.16469   0.06665   0.00000  Uiso   1.00
C121   C     0.91841   0.13956   0.06840   0.00000  Uiso   1.00
C122   C     0.79144   0.16067   0.40741   0.00000  Uiso   1.00
C123   C     0.87731   0.31253   0.23880   0.00000  Uiso   1.00
C124   C     0.80729   0.16436   0.35009   0.00000  Uiso   1.00
C125   C     0.87650   0.02172   0.23921   0.00000  Uiso   1.00
C126   C     0.83162   0.04257   0.25252   0.00000  Uiso   1.00
C127   C     0.78703   0.02000   0.26643   0.00000  Uiso   1.00
C128   C     0.78841   0.31084   0.26534   0.00000  Uiso   1.00
C129   C     0.83323   0.29038   0.25136   0.00000  Uiso   1.00
C130   C     0.96755   0.19475   0.27882   0.00000  Uiso   1.00
C131   C     0.68385   0.19473   0.27882   0.00000  Uiso   1.00
C132   C     0.69893   0.13823   0.22181   0.00000  Uiso   1.00
C133   C     0.98267   0.13831   0.22167   0.00000  Uiso   1.00
C134   C     0.83266   0.08730   0.25121   0.00000  Uiso   1.00
C135   C     0.85937   0.16573   0.14993   0.00000  Uiso   1.00
C136   C     0.92804   0.12684   0.01681   0.00000  Uiso   1.00
C137   C     0.87379   0.15821   0.09366   0.00000  Uiso   1.00
C138   C     0.74373   0.17284   0.43443   0.00000  Uiso   1.00
C139   C     0.72717   0.17061   0.48832   0.00000  Uiso   1.00
C140   C     0.75879   0.15944   0.01681   0.00000  Uiso   1.00
Cu141  Cu    0.78645   0.16666   0.25000   0.00000  Uiso   1.00
Cu142  Cu    0.88022   0.16667   0.25000   0.00000  Uiso   1.00
H143   H     0.94541   0.13406   0.08878   0.00000  Uiso   1.00
H144   H     0.91115   0.03824   0.22848   0.00000  Uiso   1.00
H145   H     0.75413   0.29376   0.27611   0.00000  Uiso   1.00
H146   H     0.94270   0.21721   0.30194   0.00000  Uiso   1.00
H147   H     0.69645   0.21717   0.30196   0.00000  Uiso   1.00
H148   H     0.72365   0.11546   0.19921   0.00000  Uiso   1.00
H149   H     0.97003   0.11571   0.19878   0.00000  Uiso   1.00
H150   H     0.96328   0.11315   0.49837   0.00000  Uiso   1.00
H151   H     0.80802   0.18332   0.08497   0.00000  Uiso   1.00
H152   H     0.71843   0.18294   0.41378   0.00000  Uiso   1.00
H153   H     0.68902   0.17690   0.00804   0.00000  Uiso   1.00
H154   H     0.87651   0.11595   0.37193   0.00000  Uiso   1.00
H155   H     0.91233   0.29705   0.22795   0.00000  Uiso   1.00
N156   N     0.71598   0.16666   0.24999   0.00000  Uiso   1.00
N157   N     0.95069   0.16669   0.25000   0.00000  Uiso   1.00
O158   O     0.79375   0.22678   0.25001   0.00000  Uiso   1.00
O159   O     0.87294   0.22679   0.25001   0.00000  Uiso   1.00
O160   O     0.77441   0.16665   0.32549   0.00000  Uiso   1.00
O161   O     0.85360   0.16666   0.32549   0.00000  Uiso   1.00
O162   O     0.79373   0.10654   0.25000   0.00000  Uiso   1.00
O163   O     0.87292   0.10655   0.25000   0.00000  Uiso   1.00
O164   O     0.81306   0.16667   0.17451   0.00000  Uiso   1.00
O165   O     0.89225   0.16668   0.17451   0.00000  Uiso   1.00
Br166  Br    0.72263   0.04361   0.28935   0.00000  Uiso   1.00
Br167  Br    0.96218   0.09338   0.39962   0.00000  Uiso   1.00
Br168  Br    0.72652   0.14443   0.08789   0.00000  Uiso   1.00
C169   C     0.16678   0.57925   0.25025   0.00000  Uiso   1.00
C170   C     0.14256   0.48530   0.49076   0.00000  Uiso   1.00
C171   C     0.15662   0.48025   0.43589   0.00000  Uiso   1.00
C172   C     0.17939   0.48182   0.01664   0.00000  Uiso   1.00
C173   C     0.22570   0.46451   0.49032   0.00000  Uiso   1.00
C174   C     0.23528   0.45230   0.43814   0.00000  Uiso   1.00
C175   C     0.20124   0.46034   0.41151   0.00000  Uiso   1.00
C176   C     0.17280   0.49803   0.06665   0.00000  Uiso   1.00
C177   C     0.25174   0.47289   0.06840   0.00000  Uiso   1.00
C178   C     0.12478   0.49400   0.40741   0.00000  Uiso   1.00
C179   C     0.21064   0.64586   0.23880   0.00000  Uiso   1.00
C180   C     0.14062   0.49769   0.35009   0.00000  Uiso   1.00
C181   C     0.20984   0.35505   0.23921   0.00000  Uiso   1.00
C182   C     0.16496   0.37590   0.25252   0.00000  Uiso   1.00
C183   C     0.12036   0.35333   0.26643   0.00000  Uiso   1.00
C184   C     0.12174   0.64417   0.26534   0.00000  Uiso   1.00
C185   C     0.16656   0.62372   0.25136   0.00000  Uiso   1.00
C186   C     0.30088   0.52809   0.27882   0.00000  Uiso   1.00
C187   C     0.01719   0.52807   0.27882   0.00000  Uiso   1.00
C188   C     0.03227   0.47156   0.22181   0.00000  Uiso   1.00
C189   C     0.31601   0.47165   0.22167   0.00000  Uiso   1.00
C190   C     0.16599   0.42063   0.25121   0.00000  Uiso   1.00
C191   C     0.19271   0.49906   0.14993   0.00000  Uiso   1.00
C192   C     0.26137   0.46017   0.01681   0.00000  Uiso   1.00
C193   C     0.20713   0.49154   0.09366   0.00000  Uiso   1.00
C194   C     0.07706   0.50617   0.43443   0.00000  Uiso   1.00
C195   C     0.06050   0.50394   0.48832   0.00000  Uiso   1.00
C196   C     0.09213   0.49277   0.01681   0.00000  Uiso   1.00
Cu197  Cu    0.11978   0.49999   0.25000   0.00000  Uiso   1.00
Cu198  Cu    0.21355   0.50001   0.25000   0.00000  Uiso   1.00
H199   H     0.27875   0.46739   0.08878   0.00000  Uiso   1.00
H200   H     0.24448   0.37158   0.22848   0.00000  Uiso   1.00
H201   H     0.08746   0.62710   0.27611   0.00000  Uiso   1.00
H202   H     0.27604   0.55055   0.30194   0.00000  Uiso   1.00
H203   H     0.02978   0.55051   0.30196   0.00000  Uiso   1.00
H204   H     0.05699   0.44880   0.19921   0.00000  Uiso   1.00
H205   H     0.30336   0.44904   0.19878   0.00000  Uiso   1.00
H206   H     0.29661   0.44648   0.49837   0.00000  Uiso   1.00
H207   H     0.14136   0.51665   0.08497   0.00000  Uiso   1.00
H208   H     0.05176   0.51628   0.41378   0.00000  Uiso   1.00
H209   H     0.02235   0.51023   0.00804   0.00000  Uiso   1.00
H210   H     0.20984   0.44928   0.37193   0.00000  Uiso   1.00
H211   H     0.24566   0.63038   0.22795   0.00000  Uiso   1.00
N212   N     0.04931   0.49999   0.24999   0.00000  Uiso   1.00
N213   N     0.28402   0.50002   0.25000   0.00000  Uiso   1.00
O214   O     0.12708   0.56011   0.25001   0.00000  Uiso   1.00
O215   O     0.20627   0.56012   0.25001   0.00000  Uiso   1.00
O216   O     0.10775   0.49998   0.32549   0.00000  Uiso   1.00
O217   O     0.18694   0.49999   0.32549   0.00000  Uiso   1.00
O218   O     0.12706   0.43988   0.25000   0.00000  Uiso   1.00
O219   O     0.20625   0.43989   0.25000   0.00000  Uiso   1.00
O220   O     0.14640   0.50001   0.17451   0.00000  Uiso   1.00
O221   O     0.22559   0.50002   0.17451   0.00000  Uiso   1.00
Br222  Br    0.05597   0.37694   0.28935   0.00000  Uiso   1.00
Br223  Br    0.29551   0.42672   0.39962   0.00000  Uiso   1.00
Br224  Br    0.05985   0.47776   0.08789   0.00000  Uiso   1.00
C225   C     0.50011   0.57925   0.25025   0.00000  Uiso   1.00
C226   C     0.47589   0.48530   0.49076   0.00000  Uiso   1.00
C227   C     0.48995   0.48025   0.43589   0.00000  Uiso   1.00
C228   C     0.51272   0.48182   0.01664   0.00000  Uiso   1.00
C229   C     0.55903   0.46451   0.49032   0.00000  Uiso   1.00
C230   C     0.56861   0.45230   0.43814   0.00000  Uiso   1.00
C231   C     0.53457   0.46034   0.41151   0.00000  Uiso   1.00
C232   C     0.50613   0.49803   0.06665   0.00000  Uiso   1.00
C233   C     0.58507   0.47289   0.06840   0.00000  Uiso   1.00
C234   C     0.45811   0.49400   0.40741   0.00000  Uiso   1.00
C235   C     0.54398   0.64586   0.23880   0.00000  Uiso   1.00
C236   C     0.47396   0.49769   0.35009   0.00000  Uiso   1.00
C237   C     0.54317   0.35505   0.23921   0.00000  Uiso   1.00
C238   C     0.49829   0.37590   0.25252   0.00000  Uiso   1.00
C239   C     0.45370   0.35333   0.26643   0.00000  Uiso   1.00
C240   C     0.45507   0.64417   0.26534   0.00000  Uiso   1.00
C241   C     0.49989   0.62372   0.25136   0.00000  Uiso   1.00
C242   C     0.63421   0.52809   0.27882   0.00000  Uiso   1.00
C243   C     0.35052   0.52807   0.27882   0.00000  Uiso   1.00
C244   C     0.36560   0.47156   0.22181   0.00000  Uiso   1.00
C245   C     0.64934   0.47165   0.22167   0.00000  Uiso   1.00
C246   C     0.49933   0.42063   0.25121   0.00000  Uiso   1.00
C247   C     0.52604   0.49906   0.14993   0.00000  Uiso   1.00
C248   C     0.59470   0.46017   0.01681   0.00000  Uiso   1.00
C249   C     0.54046   0.49154   0.09366   0.00000  Uiso   1.00
C250   C     0.41039   0.50617   0.43443   0.00000  Uiso   1.00
C251   C     0.39383   0.50394   0.48832   0.00000  Uiso   1.00
C252   C     0.42546   0.49277   0.01681   0.00000  Uiso   1.00
Cu253  Cu    0.45311   0.49999   0.25000   0.00000  Uiso   1.00
Cu254  Cu    0.54689   0.50001   0.25000   0.00000  Uiso   1.00
H255   H     0.61208   0.46739   0.08878   0.00000  Uiso   1.00
H256   H     0.57782   0.37158   0.22848   0.00000  Uiso   1.00
H257   H     0.42079   0.62710   0.27611   0.00000  Uiso   1.00
H258   H     0.60937   0.55055   0.30194   0.00000  Uiso   1.00
H259   H     0.36311   0.55051   0.30196   0.00000  Uiso   1.00
H260   H     0.39032   0.44880   0.19921   0.00000  Uiso   1.00
H261   H     0.63669   0.44904   0.19878   0.00000  Uiso   1.00
H262   H     0.62994   0.44648   0.49837   0.00000  Uiso   1.00
H263   H     0.47469   0.51665   0.08497   0.00000  Uiso   1.00
H264   H     0.38510   0.51628   0.41378   0.00000  Uiso   1.00
H265   H     0.35568   0.51023   0.00804   0.00000  Uiso   1.00
H266   H     0.54318   0.44928   0.37193   0.00000  Uiso   1.00
H267   H     0.57900   0.63038   0.22795   0.00000  Uiso   1.00
N268   N     0.38265   0.49999   0.24999   0.00000  Uiso   1.00
N269   N     0.61735   0.50002   0.25000   0.00000  Uiso   1.00
O270   O     0.46042   0.56011   0.25001   0.00000  Uiso   1.00
O271   O     0.53961   0.56012   0.25001   0.00000  Uiso   1.00
O272   O     0.44108   0.49998   0.32549   0.00000  Uiso   1.00
O273   O     0.52027   0.49999   0.32549   0.00000  Uiso   1.00
O274   O     0.46039   0.43988   0.25000   0.00000  Uiso   1.00
O275   O     0.53958   0.43989   0.25000   0.00000  Uiso   1.00
O276   O     0.47973   0.50001   0.17451   0.00000  Uiso   1.00
O277   O     0.55892   0.50002   0.17451   0.00000  Uiso   1.00
Br278  Br    0.38930   0.37694   0.28935   0.00000  Uiso   1.00
Br279  Br    0.62885   0.42672   0.39962   0.00000  Uiso   1.00
Br280  Br    0.39319   0.47776   0.08789   0.00000  Uiso   1.00
C281   C     0.83345   0.57925   0.25025   0.00000  Uiso   1.00
C282   C     0.80922   0.48530   0.49076   0.00000  Uiso   1.00
C283   C     0.82329   0.48025   0.43589   0.00000  Uiso   1.00
C284   C     0.84606   0.48182   0.01664   0.00000  Uiso   1.00
C285   C     0.89236   0.46451   0.49032   0.00000  Uiso   1.00
C286   C     0.90194   0.45230   0.43814   0.00000  Uiso   1.00
C287   C     0.86790   0.46034   0.41151   0.00000  Uiso   1.00
C288   C     0.83946   0.49803   0.06665   0.00000  Uiso   1.00
C289   C     0.91841   0.47289   0.06840   0.00000  Uiso   1.00
C290   C     0.79144   0.49400   0.40741   0.00000  Uiso   1.00
C291   C     0.87731   0.64586   0.23880   0.00000  Uiso   1.00
C292   C     0.80729   0.49769   0.35009   0.00000  Uiso   1.00
C293   C     0.87650   0.35505   0.23921   0.00000  Uiso   1.00
C294   C     0.83162   0.37590   0.25252   0.00000  Uiso   1.00
C295   C     0.78703   0.35333   0.26643   0.00000  Uiso   1.00
C296   C     0.78841   0.64417   0.26534   0.00000  Uiso   1.00
C297   C     0.83323   0.62372   0.25136   0.00000  Uiso   1.00
C298   C     0.96755   0.52809   0.27882   0.00000  Uiso   1.00
C299   C     0.68385   0.52807   0.27882   0.00000  Uiso   1.00
C300   C     0.69893   0.47156   0.22181   0.00000  Uiso   1.00
C301   C     0.98267   0.47165   0.22167   0.00000  Uiso   1.00
C302   C     0.83266   0.42063   0.25121   0.00000  Uiso   1.00
C303   C     0.85937   0.49906   0.14993   0.00000  Uiso   1.00
C304   C     0.92804   0.46017   0.01681   0.00000  Uiso   1.00
C305   C     0.87379   0.49154   0.09366   0.00000  Uiso   1.00
C306   C     0.74373   0.50617   0.43443   0.00000  Uiso   1.00
C307   C     0.72717   0.50394   0.48832   0.00000  Uiso   1.00
C308   C     0.75879   0.49277   0.01681   0.00000  Uiso   1.00
Cu309  Cu    0.78645   0.49999   0.25000   0.00000  Uiso   1.00
Cu310  Cu    0.88022   0.50001   0.25000   0.00000  Uiso   1.00
H311   H     0.94541   0.46739   0.08878   0.00000  Uiso   1.00
H312   H     0.91115   0.37158   0.22848   0.00000  Uiso   1.00
H313   H     0.75413   0.62710   0.27611   0.00000  Uiso   1.00
H314   H     0.94270   0.55055   0.30194   0.00000  Uiso   1.00
H315   H     0.69645   0.55051   0.30196   0.00000  Uiso   1.00
H316   H     0.72365   0.44880   0.19921   0.00000  Uiso   1.00
H317   H     0.97003   0.44904   0.19878   0.00000  Uiso   1.00
H318   H     0.96328   0.44648   0.49837   0.00000  Uiso   1.00
H319   H     0.80802   0.51665   0.08497   0.00000  Uiso   1.00
H320   H     0.71843   0.51628   0.41378   0.00000  Uiso   1.00
H321   H     0.68902   0.51023   0.00804   0.00000  Uiso   1.00
H322   H     0.87651   0.44928   0.37193   0.00000  Uiso   1.00
H323   H     0.91233   0.63038   0.22795   0.00000  Uiso   1.00
N324   N     0.71598   0.49999   0.24999   0.00000  Uiso   1.00
N325   N     0.95069   0.50002   0.25000   0.00000  Uiso   1.00
O326   O     0.79375   0.56011   0.25001   0.00000  Uiso   1.00
O327   O     0.87294   0.56012   0.25001   0.00000  Uiso   1.00
O328   O     0.77441   0.49998   0.32549   0.00000  Uiso   1.00
O329   O     0.85360   0.49999   0.32549   0.00000  Uiso   1.00
O330   O     0.79373   0.43988   0.25000   0.00000  Uiso   1.00
O331   O     0.87292   0.43989   0.25000   0.00000  Uiso   1.00
O332   O     0.81306   0.50001   0.17451   0.00000  Uiso   1.00
O333   O     0.89225   0.50002   0.17451   0.00000  Uiso   1.00
Br334  Br    0.72263   0.37694   0.28935   0.00000  Uiso   1.00
Br335  Br    0.96218   0.42672   0.39962   0.00000  Uiso   1.00
Br336  Br    0.72652   0.47776   0.08789   0.00000  Uiso   1.00
C337   C     0.16678   0.91258   0.25025   0.00000  Uiso   1.00
C338   C     0.14256   0.81863   0.49076   0.00000  Uiso   1.00
C339   C     0.15662   0.81359   0.43589   0.00000  Uiso   1.00
C340   C     0.17939   0.81515   0.01664   0.00000  Uiso   1.00
C341   C     0.22570   0.79785   0.49032   0.00000  Uiso   1.00
C342   C     0.23528   0.78563   0.43814   0.00000  Uiso   1.00
C343   C     0.20124   0.79367   0.41151   0.00000  Uiso   1.00
C344   C     0.17280   0.83136   0.06665   0.00000  Uiso   1.00
C345   C     0.25174   0.80622   0.06840   0.00000  Uiso   1.00
C346   C     0.12478   0.82734   0.40741   0.00000  Uiso   1.00
C347   C     0.21064   0.97919   0.23880   0.00000  Uiso   1.00
C348   C     0.14062   0.83102   0.35009   0.00000  Uiso   1.00
C349   C     0.20984   0.68838   0.23921   0.00000  Uiso   1.00
C350   C     0.16496   0.70923   0.25252   0.00000  Uiso   1.00
C351   C     0.12036   0.68666   0.26643   0.00000  Uiso   1.00
C352   C     0.12174   0.97751   0.26534   0.00000  Uiso   1.00
C353   C     0.16656   0.95705   0.25136   0.00000  Uiso   1.00
C354   C     0.30088   0.86142   0.27882   0.00000  Uiso   1.00
C355   C     0.01719   0.86140   0.27882   0.00000  Uiso   1.00
C356   C     0.03227   0.80490   0.22181   0.00000  Uiso   1.00
C357   C     0.31601   0.80498   0.22167   0.00000  Uiso   1.00
C358   C     0.16599   0.75397   0.25121   0.00000  Uiso   1.00
C359   C     0.19271   0.83240   0.14993   0.00000  Uiso   1.00
C360   C     0.26137   0.79350   0.01681   0.00000  Uiso   1.00
C361   C     0.20713   0.82487   0.09366   0.00000  Uiso   1.00
C362   C     0.07706   0.83951   0.43443   0.00000  Uiso   1.00
C363   C     0.06050   0.83728   0.48832   0.00000  Uiso   1.00
C364   C     0.09213   0.82611   0.01681   0.00000  Uiso   1.00
Cu365  Cu    0.11978   0.83333   0.25000   0.00000  Uiso   1.00
Cu366  Cu    0.21355   0.83334   0.25000   0.00000  Uiso   1.00
H367   H     0.27875   0.80072   0.08878   0.00000  Uiso   1.00
H368   H     0.24448   0.70491   0.22848   0.00000  Uiso   1.00
H369   H     0.08746   0.96043   0.27611   0.00000  Uiso   1.00
H370   H     0.27604   0.88388   0.30194   0.00000  Uiso   1.00
H371   H     0.02978   0.88384   0.30196   0.00000  Uiso   1.00
H372   H     0.05699   0.78213   0.19921   0.00000  Uiso   1.00
H373   H     0.30336   0.78237   0.19878   0.00000  Uiso   1.00
H374   H     0.29661   0.77981   0.49837   0.00000  Uiso   1.00
H375   H     0.14136   0.84999   0.08497   0.00000  Uiso   1.00
H376   H     0.05176   0.84961   0.41378   0.00000  Uiso   1.00
H377   H     0.02235   0.84356   0.00804   0.00000  Uiso   1.00
H378   H     0.20984   0.78261   0.37193   0.00000  Uiso   1.00
H379   H     0.24566   0.96371   0.22795   0.00000  Uiso   1.00
N380   N     0.04931   0.83332   0.24999   0.00000  Uiso   1.00
N381   N     0.28402   0.83335   0.25000   0.00000  Uiso   1.00
O382   O     0.12708   0.89345   0.25001   0.00000  Uiso   1.00
O383   O     0.20627   0.89346   0.25001   0.00000  Uiso   1.00
O384   O     0.10775   0.83332   0.32549   0.00000  Uiso   1.00
O385   O     0.18694   0.83333   0.32549   0.00000  Uiso   1.00
O386   O     0.12706   0.77321   0.25000   0.00000  Uiso   1.00
O387   O     0.20625   0.77322   0.25000   0.00000  Uiso   1.00
O388   O     0.14640   0.83334   0.17451   0.00000  Uiso   1.00
O389   O     0.22559   0.83335   0.17451   0.00000  Uiso   1.00
Br390  Br    0.05597   0.71028   0.28935   0.00000  Uiso   1.00
Br391  Br    0.29551   0.76005   0.39962   0.00000  Uiso   1.00
Br392  Br    0.05985   0.81109   0.08789   0.00000  Uiso   1.00
C393   C     0.50011   0.91258   0.25025   0.00000  Uiso   1.00
C394   C     0.47589   0.81863   0.49076   0.00000  Uiso   1.00
C395   C     0.48995   0.81359   0.43589   0.00000  Uiso   1.00
C396   C     0.51272   0.81515   0.01664   0.00000  Uiso   1.00
C397   C     0.55903   0.79785   0.49032   0.00000  Uiso   1.00
C398   C     0.56861   0.78563   0.43814   0.00000  Uiso   1.00
C399   C     0.53457   0.79367   0.41151   0.00000  Uiso   1.00
C400   C     0.50613   0.83136   0.06665   0.00000  Uiso   1.00
C401   C     0.58507   0.80622   0.06840   0.00000  Uiso   1.00
C402   C     0.45811   0.82734   0.40741   0.00000  Uiso   1.00
C403   C     0.54398   0.97919   0.23880   0.00000  Uiso   1.00
C404   C     0.47396   0.83102   0.35009   0.00000  Uiso   1.00
C405   C     0.54317   0.68838   0.23921   0.00000  Uiso   1.00
C406   C     0.49829   0.70923   0.25252   0.00000  Uiso   1.00
C407   C     0.45370   0.68666   0.26643   0.00000  Uiso   1.00
C408   C     0.45507   0.97751   0.26534   0.00000  Uiso   1.00
C409   C     0.49989   0.95705   0.25136   0.00000  Uiso   1.00
C410   C     0.63421   0.86142   0.27882   0.00000  Uiso   1.00
C411   C     0.35052   0.86140   0.27882   0.00000  Uiso   1.00
C412   C     0.36560   0.80490   0.22181   0.00000  Uiso   1.00
C413   C     0.64934   0.80498   0.22167   0.00000  Uiso   1.00
C414   C     0.49933   0.75397   0.25121   0.00000  Uiso   1.00
C415   C     0.52604   0.83240   0.14993   0.00000  Uiso   1.00
C416   C     0.59470   0.79350   0.01681   0.00000  Uiso   1.00
C417   C     0.54046   0.82487   0.09366   0.00000  Uiso   1.00
C418   C     0.41039   0.83951   0.43443   0.00000  Uiso   1.00
C419   C     0.39383   0.83728   0.48832   0.00000  Uiso   1.00
C420   C     0.42546   0.82611   0.01681   0.00000  Uiso   1.00
Cu421  Cu    0.45311   0.83333   0.25000   0.00000  Uiso   1.00
Cu422  Cu    0.54689   0.83334   0.25000   0.00000  Uiso   1.00
H423   H     0.61208   0.80072   0.08878   0.00000  Uiso   1.00
H424   H     0.57782   0.70491   0.22848   0.00000  Uiso   1.00
H425   H     0.42079   0.96043   0.27611   0.00000  Uiso   1.00
H426   H     0.60937   0.88388   0.30194   0.00000  Uiso   1.00
H427   H     0.36311   0.88384   0.30196   0.00000  Uiso   1.00
H428   H     0.39032   0.78213   0.19921   0.00000  Uiso   1.00
H429   H     0.63669   0.78237   0.19878   0.00000  Uiso   1.00
H430   H     0.62994   0.77981   0.49837   0.00000  Uiso   1.00
H431   H     0.47469   0.84999   0.08497   0.00000  Uiso   1.00
H432   H     0.38510   0.84961   0.41378   0.00000  Uiso   1.00
H433   H     0.35568   0.84356   0.00804   0.00000  Uiso   1.00
H434   H     0.54318   0.78261   0.37193   0.00000  Uiso   1.00
H435   H     0.57900   0.96371   0.22795   0.00000  Uiso   1.00
N436   N     0.38265   0.83332   0.24999   0.00000  Uiso   1.00
N437   N     0.61735   0.83335   0.25000   0.00000  Uiso   1.00
O438   O     0.46042   0.89345   0.25001   0.00000  Uiso   1.00
O439   O     0.53961   0.89346   0.25001   0.00000  Uiso   1.00
O440   O     0.44108   0.83332   0.32549   0.00000  Uiso   1.00
O441   O     0.52027   0.83333   0.32549   0.00000  Uiso   1.00
O442   O     0.46039   0.77321   0.25000   0.00000  Uiso   1.00
O443   O     0.53958   0.77322   0.25000   0.00000  Uiso   1.00
O444   O     0.47973   0.83334   0.17451   0.00000  Uiso   1.00
O445   O     0.55892   0.83335   0.17451   0.00000  Uiso   1.00
Br446  Br    0.38930   0.71028   0.28935   0.00000  Uiso   1.00
Br447  Br    0.62885   0.76005   0.39962   0.00000  Uiso   1.00
Br448  Br    0.39319   0.81109   0.08789   0.00000  Uiso   1.00
C449   C     0.83345   0.91258   0.25025   0.00000  Uiso   1.00
C450   C     0.80922   0.81863   0.49076   0.00000  Uiso   1.00
C451   C     0.82329   0.81359   0.43589   0.00000  Uiso   1.00
C452   C     0.84606   0.81515   0.01664   0.00000  Uiso   1.00
C453   C     0.89236   0.79785   0.49032   0.00000  Uiso   1.00
C454   C     0.90194   0.78563   0.43814   0.00000  Uiso   1.00
C455   C     0.86790   0.79367   0.41151   0.00000  Uiso   1.00
C456   C     0.83946   0.83136   0.06665   0.00000  Uiso   1.00
C457   C     0.91841   0.80622   0.06840   0.00000  Uiso   1.00
C458   C     0.79144   0.82734   0.40741   0.00000  Uiso   1.00
C459   C     0.87731   0.97919   0.23880   0.00000  Uiso   1.00
C460   C     0.80729   0.83102   0.35009   0.00000  Uiso   1.00
C461   C     0.87650   0.68838   0.23921   0.00000  Uiso   1.00
C462   C     0.83162   0.70923   0.25252   0.00000  Uiso   1.00
C463   C     0.78703   0.68666   0.26643   0.00000  Uiso   1.00
C464   C     0.78841   0.97751   0.26534   0.00000  Uiso   1.00
C465   C     0.83323   0.95705   0.25136   0.00000  Uiso   1.00
C466   C     0.96755   0.86142   0.27882   0.00000  Uiso   1.00
C467   C     0.68385   0.86140   0.27882   0.00000  Uiso   1.00
C468   C     0.69893   0.80490   0.22181   0.00000  Uiso   1.00
C469   C     0.98267   0.80498   0.22167   0.00000  Uiso   1.00
C470   C     0.83266   0.75397   0.25121   0.00000  Uiso   1.00
C471   C     0.85937   0.83240   0.14993   0.00000  Uiso   1.00
C472   C     0.92804   0.79350   0.01681   0.00000  Uiso   1.00
C473   C     0.87379   0.82487   0.09366   0.00000  Uiso   1.00
C474   C     0.74373   0.83951   0.43443   0.00000  Uiso   1.00
C475   C     0.72717   0.83728   0.48832   0.00000  Uiso   1.00
C476   C     0.75879   0.82611   0.01681   0.00000  Uiso   1.00
Cu477  Cu    0.78645   0.83333   0.25000   0.00000  Uiso   1.00
Cu478  Cu    0.88022   0.83334   0.25000   0.00000  Uiso   1.00
H479   H     0.94541   0.80072   0.08878   0.00000  Uiso   1.00
H480   H     0.91115   0.70491   0.22848   0.00000  Uiso   1.00
H481   H     0.75413   0.96043   0.27611   0.00000  Uiso   1.00
H482   H     0.94270   0.88388   0.30194   0.00000  Uiso   1.00
H483   H     0.69645   0.88384   0.30196   0.00000  Uiso   1.00
H484   H     0.72365   0.78213   0.19921   0.00000  Uiso   1.00
H485   H     0.97003   0.78237   0.19878   0.00000  Uiso   1.00
H486   H     0.96328   0.77981   0.49837   0.00000  Uiso   1.00
H487   H     0.80802   0.84999   0.08497   0.00000  Uiso   1.00
H488   H     0.71843   0.84961   0.41378   0.00000  Uiso   1.00
H489   H     0.68902   0.84356   0.00804   0.00000  Uiso   1.00
H490   H     0.87651   0.78261   0.37193   0.00000  Uiso   1.00
H491   H     0.91233   0.96371   0.22795   0.00000  Uiso   1.00
N492   N     0.71598   0.83332   0.24999   0.00000  Uiso   1.00
N493   N     0.95069   0.83335   0.25000   0.00000  Uiso   1.00
O494   O     0.79375   0.89345   0.25001   0.00000  Uiso   1.00
O495   O     0.87294   0.89346   0.25001   0.00000  Uiso   1.00
O496   O     0.77441   0.83332   0.32549   0.00000  Uiso   1.00
O497   O     0.85360   0.83333   0.32549   0.00000  Uiso   1.00
O498   O     0.79373   0.77321   0.25000   0.00000  Uiso   1.00
O499   O     0.87292   0.77322   0.25000   0.00000  Uiso   1.00
O500   O     0.81306   0.83334   0.17451   0.00000  Uiso   1.00
O501   O     0.89225   0.83335   0.17451   0.00000  Uiso   1.00
Br502  Br    0.72263   0.71028   0.28935   0.00000  Uiso   1.00
Br503  Br    0.96218   0.76005   0.39962   0.00000  Uiso   1.00
Br504  Br    0.72652   0.81109   0.08789   0.00000  Uiso   1.00
C505   C     0.16678   0.24592   0.75025   0.00000  Uiso   1.00
C506   C     0.14256   0.15197   0.99076   0.00000  Uiso   1.00
C507   C     0.15662   0.14692   0.93589   0.00000  Uiso   1.00
C508   C     0.17939   0.14849   0.51664   0.00000  Uiso   1.00
C509   C     0.22570   0.13118   0.99032   0.00000  Uiso   1.00
C510   C     0.23528   0.11896   0.93814   0.00000  Uiso   1.00
C511   C     0.20124   0.12700   0.91151   0.00000  Uiso   1.00
C512   C     0.17280   0.16469   0.56665   0.00000  Uiso   1.00
C513   C     0.25174   0.13956   0.56840   0.00000  Uiso   1.00
C514   C     0.12478   0.16067   0.90741   0.00000  Uiso   1.00
C515   C     0.21064   0.31253   0.73880   0.00000  Uiso   1.00
C516   C     0.14062   0.16436   0.85009   0.00000  Uiso   1.00
C517   C     0.20984   0.02172   0.73921   0.00000  Uiso   1.00
C518   C     0.16496   0.04257   0.75252   0.00000  Uiso   1.00
C519   C     0.12036   0.02000   0.76643   0.00000  Uiso   1.00
C520   C     0.12174   0.31084   0.76534   0.00000  Uiso   1.00
C521   C     0.16656   0.29038   0.75136   0.00000  Uiso   1.00
C522   C     0.30088   0.19475   0.77882   0.00000  Uiso   1.00
C523   C     0.01719   0.19473   0.77882   0.00000  Uiso   1.00
C524   C     0.03227   0.13823   0.72181   0.00000  Uiso   1.00
C525   C     0.31601   0.13831   0.72167   0.00000  Uiso   1.00
C526   C     0.16599   0.08730   0.75121   0.00000  Uiso   1.00
C527   C     0.19271   0.16573   0.64993   0.00000  Uiso   1.00
C528   C     0.26137   0.12684   0.51681   0.00000  Uiso   1.00
C529   C     0.20713   0.15821   0.59366   0.00000  Uiso   1.00
C530   C     0.07706   0.17284   0.93443   0.00000  Uiso   1.00
C531   C     0.06050   0.17061   0.98832   0.00000  Uiso   1.00
C532   C     0.09213   0.15944   0.51681   0.00000  Uiso   1.00
Cu533  Cu    0.11978   0.16666   0.75000   0.00000  Uiso   1.00
Cu534  Cu    0.21355   0.16667   0.75000   0.00000  Uiso   1.00
H535   H     0.27875   0.13406   0.58878   0.00000  Uiso   1.00
H536   H     0.24448   0.03824   0.72848   0.00000  Uiso   1.00
H537   H     0.08746   0.29376   0.77611   0.00000  Uiso   1.00
H538   H     0.27604   0.21721   0.80194   0.00000  Uiso   1.00
H539   H     0.02978   0.21717   0.80196   0.00000  Uiso   1.00
H540   H     0.05699   0.11546   0.69921   0.00000  Uiso   1.00
H541   H     0.30336   0.11571   0.69878   0.00000  Uiso   1.00
H542   H     0.29661   0.11315   0.99837   0.00000  Uiso   1.00
H543   H     0.14136   0.18332   0.58497   0.00000  Uiso   1.00
H544   H     0.05176   0.18294   0.91378   0.00000  Uiso   1.00
H545   H     0.02235   0.17690   0.50804   0.00000  Uiso   1.00
H546   H     0.20984   0.11595   0.87193   0.00000  Uiso   1.00
H547   H     0.24566   0.29705   0.72795   0.00000  Uiso   1.00
N548   N     0.04931   0.16666   0.74999   0.00000  Uiso   1.00
N549   N     0.28402   0.16669   0.75000   0.00000  Uiso   1.00
O550   O     0.12708   0.22678   0.75001   0.00000  Uiso   1.00
O551   O     0.20627   0.22679   0.75001   0.00000  Uiso   1.00
O552   O     0.10775   0.16665   0.82549   0.00000  Uiso   1.00
O553   O     0.18694   0.16666   0.82549   0.00000  Uiso   1.00
O554   O     0.12706   0.10654   0.75000   0.00000  Uiso   1.00
O555   O     0.20625   0.10655   0.75000   0.00000  Uiso   1.00
O556   O     0.14640   0.16667   0.67451   0.00000  Uiso   1.00
O557   O     0.22559   0.16668   0.67451   0.00000  Uiso   1.00
Br558  Br    0.05597   0.04361   0.78935   0.00000  Uiso   1.00
Br559  Br    0.29551   0.09338   0.89962   0.00000  Uiso   1.00
Br560  Br    0.05985   0.14443   0.58789   0.00000  Uiso   1.00
C561   C     0.50011   0.24592   0.75025   0.00000  Uiso   1.00
C562   C     0.47589   0.15197   0.99076   0.00000  Uiso   1.00
C563   C     0.48995   0.14692   0.93589   0.00000  Uiso   1.00
C564   C     0.51272   0.14849   0.51664   0.00000  Uiso   1.00
C565   C     0.55903   0.13118   0.99032   0.00000  Uiso   1.00
C566   C     0.56861   0.11896   0.93814   0.00000  Uiso   1.00
C567   C     0.53457   0.12700   0.91151   0.00000  Uiso   1.00
C568   C     0.50613   0.16469   0.56665   0.00000  Uiso   1.00
C569   C     0.58507   0.13956   0.56840   0.00000  Uiso   1.00
C570   C     0.45811   0.16067   0.90741   0.00000  Uiso   1.00
C571   C     0.54398   0.31253   0.73880   0.00000  Uiso   1.00
C572   C     0.47396   0.16436   0.85009   0.00000  Uiso   1.00
C573   C     0.54317   0.02172   0.73921   0.00000  Uiso   1.00
C574   C     0.49829   0.04257   0.75252   0.00000  Uiso   1.00
C575   C     0.45370   0.02000   0.76643   0.00000  Uiso   1.00
C576   C     0.45507   0.31084   0.76534   0.00000  Uiso   1.00
C577   C     0.49989   0.29038   0.75136   0.00000  Uiso   1.00
C578   C     0.63421   0.19475   0.77882   0.00000  Uiso   1.00
C579   C     0.35052   0.19473   0.77882   0.00000  Uiso   1.00
C580   C     0.36560   0.13823   0.72181   0.00000  Uiso   1.00
C581   C     0.64934   0.13831   0.72167   0.00000  Uiso   1.00
C582   C     0.49933   0.08730   0.75121   0.00000  Uiso   1.00
C583   C     0.52604   0.16573   0.64993   0.00000  Uiso   1.00
C584   C     0.59470   0.12684   0.51681   0.00000  Uiso   1.00
C585   C     0.54046   0.15821   0.59366   0.00000  Uiso   1.00
C586   C     0.41039   0.17284   0.93443   0.00000  Uiso   1.00
C587   C     0.39383   0.17061   0.98832   0.00000  Uiso   1.00
C588   C     0.42546   0.15944   0.51681   0.00000  Uiso   1.00
Cu589  Cu    0.45311   0.16666   0.75000   0.00000  Uiso   1.00
Cu590  Cu    0.54689   0.16667   0.75000   0.00000  Uiso   1.00
H591   H     0.61208   0.13406   0.58878   0.00000  Uiso   1.00
H592   H     0.57782   0.03824   0.72848   0.00000  Uiso   1.00
H593   H     0.42079   0.29376   0.77611   0.00000  Uiso   1.00
H594   H     0.60937   0.21721   0.80194   0.00000  Uiso   1.00
H595   H     0.36311   0.21717   0.80196   0.00000  Uiso   1.00
H596   H     0.39032   0.11546   0.69921   0.00000  Uiso   1.00
H597   H     0.63669   0.11571   0.69878   0.00000  Uiso   1.00
H598   H     0.62994   0.11315   0.99837   0.00000  Uiso   1.00
H599   H     0.47469   0.18332   0.58497   0.00000  Uiso   1.00
H600   H     0.38510   0.18294   0.91378   0.00000  Uiso   1.00
H601   H     0.35568   0.17690   0.50804   0.00000  Uiso   1.00
H602   H     0.54318   0.11595   0.87193   0.00000  Uiso   1.00
H603   H     0.57900   0.29705   0.72795   0.00000  Uiso   1.00
N604   N     0.38265   0.16666   0.74999   0.00000  Uiso   1.00
N605   N     0.61735   0.16669   0.75000   0.00000  Uiso   1.00
O606   O     0.46042   0.22678   0.75001   0.00000  Uiso   1.00
O607   O     0.53961   0.22679   0.75001   0.00000  Uiso   1.00
O608   O     0.44108   0.16665   0.82549   0.00000  Uiso   1.00
O609   O     0.52027   0.16666   0.82549   0.00000  Uiso   1.00
O610   O     0.46039   0.10654   0.75000   0.00000  Uiso   1.00
O611   O     0.53958   0.10655   0.75000   0.00000  Uiso   1.00
O612   O     0.47973   0.16667   0.67451   0.00000  Uiso   1.00
O613   O     0.55892   0.16668   0.67451   0.00000  Uiso   1.00
Br614  Br    0.38930   0.04361   0.78935   0.00000  Uiso   1.00
Br615  Br    0.62885   0.09338   0.89962   0.00000  Uiso   1.00
Br616  Br    0.39319   0.14443   0.58789   0.00000  Uiso   1.00
C617   C     0.83345   0.24592   0.75025   0.00000  Uiso   1.00
C618   C     0.80922   0.15197   0.99076   0.00000  Uiso   1.00
C619   C     0.82329   0.14692   0.93589   0.00000  Uiso   1.00
C620   C     0.84606   0.14849   0.51664   0.00000  Uiso   1.00
C621   C     0.89236   0.13118   0.99032   0.00000  Uiso   1.00
C622   C     0.90194   0.11896   0.93814   0.00000  Uiso   1.00
C623   C     0.86790   0.12700   0.91151   0.00000  Uiso   1.00
C624   C     0.83946   0.16469   0.56665   0.00000  Uiso   1.00
C625   C     0.91841   0.13956   0.56840   0.00000  Uiso   1.00
C626   C     0.79144   0.16067   0.90741   0.00000  Uiso   1.00
C627   C     0.87731   0.31253   0.73880   0.00000  Uiso   1.00
C628   C     0.80729   0.16436   0.85009   0.00000  Uiso   1.00
C629   C     0.87650   0.02172   0.73921   0.00000  Uiso   1.00
C630   C     0.83162   0.04257   0.75252   0.00000  Uiso   1.00
C631   C     0.78703   0.02000   0.76643   0.00000  Uiso   1.00
C632   C     0.78841   0.31084   0.76534   0.00000  Uiso   1.00
C633   C     0.83323   0.29038   0.75136   0.00000  Uiso   1.00
C634   C     0.96755   0.19475   0.77882   0.00000  Uiso   1.00
C635   C     0.68385   0.19473   0.77882   0.00000  Uiso   1.00
C636   C     0.69893   0.13823   0.72181   0.00000  Uiso   1.00
C637   C     0.98267   0.13831   0.72167   0.00000  Uiso   1.00
C638   C     0.83266   0.08730   0.75121   0.00000  Uiso   1.00
C639   C     0.85937   0.16573   0.64993   0.00000  Uiso   1.00
C640   C     0.92804   0.12684   0.51681   0.00000  Uiso   1.00
C641   C     0.87379   0.15821   0.59366   0.00000  Uiso   1.00
C642   C     0.74373   0.17284   0.93443   0.00000  Uiso   1.00
C643   C     0.72717   0.17061   0.98832   0.00000  Uiso   1.00
C644   C     0.75879   0.15944   0.51681   0.00000  Uiso   1.00
Cu645  Cu    0.78645   0.16666   0.75000   0.00000  Uiso   1.00
Cu646  Cu    0.88022   0.16667   0.75000   0.00000  Uiso   1.00
H647   H     0.94541   0.13406   0.58878   0.00000  Uiso   1.00
H648   H     0.91115   0.03824   0.72848   0.00000  Uiso   1.00
H649   H     0.75413   0.29376   0.77611   0.00000  Uiso   1.00
H650   H     0.94270   0.21721   0.80194   0.00000  Uiso   1.00
H651   H     0.69645   0.21717   0.80196   0.00000  Uiso   1.00
H652   H     0.72365   0.11546   0.69921   0.00000  Uiso   1.00
H653   H     0.97003   0.11571   0.69878   0.00000  Uiso   1.00
H654   H     0.96328   0.11315   0.99837   0.00000  Uiso   1.00
H655   H     0.80802   0.18332   0.58497   0.00000  Uiso   1.00
H656   H     0.71843   0.18294   0.91378   0.00000  Uiso   1.00
H657   H     0.68902   0.17690   0.50804   0.00000  Uiso   1.00
H658   H     0.87651   0.11595   0.87193   0.00000  Uiso   1.00
H659   H     0.91233   0.29705   0.72795   0.00000  Uiso   1.00
N660   N     0.71598   0.16666   0.74999   0.00000  Uiso   1.00
N661   N     0.95069   0.16669   0.75000   0.00000  Uiso   1.00
O662   O     0.79375   0.22678   0.75001   0.00000  Uiso   1.00
O663   O     0.87294   0.22679   0.75001   0.00000  Uiso   1.00
O664   O     0.77441   0.16665   0.82549   0.00000  Uiso   1.00
O665   O     0.85360   0.16666   0.82549   0.00000  Uiso   1.00
O666   O     0.79373   0.10654   0.75000   0.00000  Uiso   1.00
O667   O     0.87292   0.10655   0.75000   0.00000  Uiso   1.00
O668   O     0.81306   0.16667   0.67451   0.00000  Uiso   1.00
O669   O     0.89225   0.16668   0.67451   0.00000  Uiso   1.00
Br670  Br    0.72263   0.04361   0.78935   0.00000  Uiso   1.00
Br671  Br    0.96218   0.09338   0.89962   0.00000  Uiso   1.00
Br672  Br    0.72652   0.14443   0.58789   0.00000  Uiso   1.00
C673   C     0.16678   0.57925   0.75025   0.00000  Uiso   1.00
C674   C     0.14256   0.48530   0.99076   0.00000  Uiso   1.00
C675   C     0.15662   0.48025   0.93589   0.00000  Uiso   1.00
C676   C     0.17939   0.48182   0.51664   0.00000  Uiso   1.00
C677   C     0.22570   0.46451   0.99032   0.00000  Uiso   1.00
C678   C     0.23528   0.45230   0.93814   0.00000  Uiso   1.00
C679   C     0.20124   0.46034   0.91151   0.00000  Uiso   1.00
C680   C     0.17280   0.49803   0.56665   0.00000  Uiso   1.00
C681   C     0.25174   0.47289   0.56840   0.00000  Uiso   1.00
C682   C     0.12478   0.49400   0.90741   0.00000  Uiso   1.00
C683   C     0.21064   0.64586   0.73880   0.00000  Uiso   1.00
C684   C     0.14062   0.49769   0.85009   0.00000  Uiso   1.00
C685   C     0.20984   0.35505   0.73921   0.00000  Uiso   1.00
C686   C     0.16496   0.37590   0.75252   0.00000  Uiso   1.00
C687   C     0.12036   0.35333   0.76643   0.00000  Uiso   1.00
C688   C     0.12174   0.64417   0.76534   0.00000  Uiso   1.00
C689   C     0.16656   0.62372   0.75136   0.00000  Uiso   1.00
C690   C     0.30088   0.52809   0.77882   0.00000  Uiso   1.00
C691   C     0.01719   0.52807   0.77882   0.00000  Uiso   1.00
C692   C     0.03227   0.47156   0.72181   0.00000  Uiso   1.00
C693   C     0.31601   0.47165   0.72167   0.00000  Uiso   1.00
C694   C     0.16599   0.42063   0.75121   0.00000  Uiso   1.00
C695   C     0.19271   0.49906   0.64993   0.00000  Uiso   1.00
C696   C     0.26137   0.46017   0.51681   0.00000  Uiso   1.00
C697   C     0.20713   0.49154   0.59366   0.00000  Uiso   1.00
C698   C     0.07706   0.50617   0.93443   0.00000  Uiso   1.00
C699   C     0.06050   0.50394   0.98832   0.00000  Uiso   1.00
C700   C     0.09213   0.49277   0.51681   0.00000  Uiso   1.00
Cu701  Cu    0.11978   0.49999   0.75000   0.00000  Uiso   1.00
Cu702  Cu    0.21355   0.50001   0.75000   0.00000  Uiso   1.00
H703   H     0.27875   0.46739   0.58878   0.00000  Uiso   1.00
H704   H     0.24448   0.37158   0.72848   0.00000  Uiso   1.00
H705   H     0.08746   0.62710   0.77611   0.00000  Uiso   1.00
H706   H     0.27604   0.55055   0.80194   0.00000  Uiso   1.00
H707   H     0.02978   0.55051   0.80196   0.00000  Uiso   1.00
H708   H     0.05699   0.44880   0.69921   0.00000  Uiso   1.00
H709   H     0.30336   0.44904   0.69878   0.00000  Uiso   1.00
H710   H     0.29661   0.44648   0.99837   0.00000  Uiso   1.00
H711   H     0.14136   0.51665   0.58497   0.00000  Uiso   1.00
H712   H     0.05176   0.51628   0.91378   0.00000  Uiso   1.00
H713   H     0.02235   0.51023   0.50804   0.00000  Uiso   1.00
H714   H     0.20984   0.44928   0.87193   0.00000  Uiso   1.00
H715   H     0.24566   0.63038   0.72795   0.00000  Uiso   1.00
N716   N     0.04931   0.49999   0.74999   0.00000  Uiso   1.00
N717   N     0.28402   0.50002   0.75000   0.00000  Uiso   1.00
O718   O     0.12708   0.56011   0.75001   0.00000  Uiso   1.00
O719   O     0.20627   0.56012   0.75001   0.00000  Uiso   1.00
O720   O     0.10775   0.49998   0.82549   0.00000  Uiso   1.00
O721   O     0.18694   0.49999   0.82549   0.00000  Uiso   1.00
O722   O     0.12706   0.43988   0.75000   0.00000  Uiso   1.00
O723   O     0.20625   0.43989   0.75000   0.00000  Uiso   1.00
O724   O     0.14640   0.50001   0.67451   0.00000  Uiso   1.00
O725   O     0.22559   0.50002   0.67451   0.00000  Uiso   1.00
Br726  Br    0.05597   0.37694   0.78935   0.00000  Uiso   1.00
Br727  Br    0.29551   0.42672   0.89962   0.00000  Uiso   1.00
Br728  Br    0.05985   0.47776   0.58789   0.00000  Uiso   1.00
C729   C     0.50011   0.57925   0.75025   0.00000  Uiso   1.00
C730   C     0.47589   0.48530   0.99076   0.00000  Uiso   1.00
C731   C     0.48995   0.48025   0.93589   0.00000  Uiso   1.00
C732   C     0.51272   0.48182   0.51664   0.00000  Uiso   1.00
C733   C     0.55903   0.46451   0.99032   0.00000  Uiso   1.00
C734   C     0.56861   0.45230   0.93814   0.00000  Uiso   1.00
C735   C     0.53457   0.46034   0.91151   0.00000  Uiso   1.00
C736   C     0.50613   0.49803   0.56665   0.00000  Uiso   1.00
C737   C     0.58507   0.47289   0.56840   0.00000  Uiso   1.00
C738   C     0.45811   0.49400   0.90741   0.00000  Uiso   1.00
C739   C     0.54398   0.64586   0.73880   0.00000  Uiso   1.00
C740   C     0.47396   0.49769   0.85009   0.00000  Uiso   1.00
C741   C     0.54317   0.35505   0.73921   0.00000  Uiso   1.00
C742   C     0.49829   0.37590   0.75252   0.00000  Uiso   1.00
C743   C     0.45370   0.35333   0.76643   0.00000  Uiso   1.00
C744   C     0.45507   0.64417   0.76534   0.00000  Uiso   1.00
C745   C     0.49989   0.62372   0.75136   0.00000  Uiso   1.00
C746   C     0.63421   0.52809   0.77882   0.00000  Uiso   1.00
C747   C     0.35052   0.52807   0.77882   0.00000  Uiso   1.00
C748   C     0.36560   0.47156   0.72181   0.00000  Uiso   1.00
C749   C     0.64934   0.47165   0.72167   0.00000  Uiso   1.00
C750   C     0.49933   0.42063   0.75121   0.00000  Uiso   1.00
C751   C     0.52604   0.49906   0.64993   0.00000  Uiso   1.00
C752   C     0.59470   0.46017   0.51681   0.00000  Uiso   1.00
C753   C     0.54046   0.49154   0.59366   0.00000  Uiso   1.00
C754   C     0.41039   0.50617   0.93443   0.00000  Uiso   1.00
C755   C     0.39383   0.50394   0.98832   0.00000  Uiso   1.00
C756   C     0.42546   0.49277   0.51681   0.00000  Uiso   1.00
Cu757  Cu    0.45311   0.49999   0.75000   0.00000  Uiso   1.00
Cu758  Cu    0.54689   0.50001   0.75000   0.00000  Uiso   1.00
H759   H     0.61208   0.46739   0.58878   0.00000  Uiso   1.00
H760   H     0.57782   0.37158   0.72848   0.00000  Uiso   1.00
H761   H     0.42079   0.62710   0.77611   0.00000  Uiso   1.00
H762   H     0.60937   0.55055   0.80194   0.00000  Uiso   1.00
H763   H     0.36311   0.55051   0.80196   0.00000  Uiso   1.00
H764   H     0.39032   0.44880   0.69921   0.00000  Uiso   1.00
H765   H     0.63669   0.44904   0.69878   0.00000  Uiso   1.00
H766   H     0.62994   0.44648   0.99837   0.00000  Uiso   1.00
H767   H     0.47469   0.51665   0.58497   0.00000  Uiso   1.00
H768   H     0.38510   0.51628   0.91378   0.00000  Uiso   1.00
H769   H     0.35568   0.51023   0.50804   0.00000  Uiso   1.00
H770   H     0.54318   0.44928   0.87193   0.00000  Uiso   1.00
H771   H     0.57900   0.63038   0.72795   0.00000  Uiso   1.00
N772   N     0.38265   0.49999   0.74999   0.00000  Uiso   1.00
N773   N     0.61735   0.50002   0.75000   0.00000  Uiso   1.00
O774   O     0.46042   0.56011   0.75001   0.00000  Uiso   1.00
O775   O     0.53961   0.56012   0.75001   0.00000  Uiso   1.00
O776   O     0.44108   0.49998   0.82549   0.00000  Uiso   1.00
O777   O     0.52027   0.49999   0.82549   0.00000  Uiso   1.00
O778   O     0.46039   0.43988   0.75000   0.00000  Uiso   1.00
O779   O     0.53958   0.43989   0.75000   0.00000  Uiso   1.00
O780   O     0.47973   0.50001   0.67451   0.00000  Uiso   1.00
O781   O     0.55892   0.50002   0.67451   0.00000  Uiso   1.00
Br782  Br    0.38930   0.37694   0.78935   0.00000  Uiso   1.00
Br783  Br    0.62885   0.42672   0.89962   0.00000  Uiso   1.00
Br784  Br    0.39319   0.47776   0.58789   0.00000  Uiso   1.00
C785   C     0.83345   0.57925   0.75025   0.00000  Uiso   1.00
C786   C     0.80922   0.48530   0.99076   0.00000  Uiso   1.00
C787   C     0.82329   0.48025   0.93589   0.00000  Uiso   1.00
C788   C     0.84606   0.48182   0.51664   0.00000  Uiso   1.00
C789   C     0.89236   0.46451   0.99032   0.00000  Uiso   1.00
C790   C     0.90194   0.45230   0.93814   0.00000  Uiso   1.00
C791   C     0.86790   0.46034   0.91151   0.00000  Uiso   1.00
C792   C     0.83946   0.49803   0.56665   0.00000  Uiso   1.00
C793   C     0.91841   0.47289   0.56840   0.00000  Uiso   1.00
C794   C     0.79144   0.49400   0.90741   0.00000  Uiso   1.00
C795   C     0.87731   0.64586   0.73880   0.00000  Uiso   1.00
C796   C     0.80729   0.49769   0.85009   0.00000  Uiso   1.00
C797   C     0.87650   0.35505   0.73921   0.00000  Uiso   1.00
C798   C     0.83162   0.37590   0.75252   0.00000  Uiso   1.00
C799   C     0.78703   0.35333   0.76643   0.00000  Uiso   1.00
C800   C     0.78841   0.64417   0.76534   0.00000  Uiso   1.00
C801   C     0.83323   0.62372   0.75136   0.00000  Uiso   1.00
C802   C     0.96755   0.52809   0.77882   0.00000  Uiso   1.00
C803   C     0.68385   0.52807   0.77882   0.00000  Uiso   1.00
C804   C     0.69893   0.47156   0.72181   0.00000  Uiso   1.00
C805   C     0.98267   0.47165   0.72167   0.00000  Uiso   1.00
C806   C     0.83266   0.42063   0.75121   0.00000  Uiso   1.00
C807   C     0.85937   0.49906   0.64993   0.00000  Uiso   1.00
C808   C     0.92804   0.46017   0.51681   0.00000  Uiso   1.00
C809   C     0.87379   0.49154   0.59366   0.00000  Uiso   1.00
C810   C     0.74373   0.50617   0.93443   0.00000  Uiso   1.00
C811   C     0.72717   0.50394   0.98832   0.00000  Uiso   1.00
C812   C     0.75879   0.49277   0.51681   0.00000  Uiso   1.00
Cu813  Cu    0.78645   0.49999   0.75000   0.00000  Uiso   1.00
Cu814  Cu    0.88022   0.50001   0.75000   0.00000  Uiso   1.00
H815   H     0.94541   0.46739   0.58878   0.00000  Uiso   1.00
H816   H     0.91115   0.37158   0.72848   0.00000  Uiso   1.00
H817   H     0.75413   0.62710   0.77611   0.00000  Uiso   1.00
H818   H     0.94270   0.55055   0.80194   0.00000  Uiso   1.00
H819   H     0.69645   0.55051   0.80196   0.00000  Uiso   1.00
H820   H     0.72365   0.44880   0.69921   0.00000  Uiso   1.00
H821   H     0.97003   0.44904   0.69878   0.00000  Uiso   1.00
H822   H     0.96328   0.44648   0.99837   0.00000  Uiso   1.00
H823   H     0.80802   0.51665   0.58497   0.00000  Uiso   1.00
H824   H     0.71843   0.51628   0.91378   0.00000  Uiso   1.00
H825   H     0.68902   0.51023   0.50804   0.00000  Uiso   1.00
H826   H     0.87651   0.44928   0.87193   0.00000  Uiso   1.00
H827   H     0.91233   0.63038   0.72795   0.00000  Uiso   1.00
N828   N     0.71598   0.49999   0.74999   0.00000  Uiso   1.00
N829   N     0.95069   0.50002   0.75000   0.00000  Uiso   1.00
O830   O     0.79375   0.56011   0.75001   0.00000  Uiso   1.00
O831   O     0.87294   0.56012   0.75001   0.00000  Uiso   1.00
O832   O     0.77441   0.49998   0.82549   0.00000  Uiso   1.00
O833   O     0.85360   0.49999   0.82549   0.00000  Uiso   1.00
O834   O     0.79373   0.43988   0.75000   0.00000  Uiso   1.00
O835   O     0.87292   0.43989   0.75000   0.00000  Uiso   1.00
O836   O     0.81306   0.50001   0.67451   0.00000  Uiso   1.00
O837   O     0.89225   0.50002   0.67451   0.00000  Uiso   1.00
Br838  Br    0.72263   0.37694   0.78935   0.00000  Uiso   1.00
Br839  Br    0.96218   0.42672   0.89962   0.00000  Uiso   1.00
Br840  Br    0.72652   0.47776   0.58789   0.00000  Uiso   1.00
C841   C     0.16678   0.91258   0.75025   0.00000  Uiso   1.00
C842   C     0.14256   0.81863   0.99076   0.00000  Uiso   1.00
C843   C     0.15662   0.81359   0.93589   0.00000  Uiso   1.00
C844   C     0.17939   0.81515   0.51664   0.00000  Uiso   1.00
C845   C     0.22570   0.79785   0.99032   0.00000  Uiso   1.00
C846   C     0.23528   0.78563   0.93814   0.00000  Uiso   1.00
C847   C     0.20124   0.79367   0.91151   0.00000  Uiso   1.00
C848   C     0.17280   0.83136   0.56665   0.00000  Uiso   1.00
C849   C     0.25174   0.80622   0.56840   0.00000  Uiso   1.00
C850   C     0.12478   0.82734   0.90741   0.00000  Uiso   1.00
C851   C     0.21064   0.97919   0.73880   0.00000  Uiso   1.00
C852   C     0.14062   0.83102   0.85009   0.00000  Uiso   1.00
C853   C     0.20984   0.68838   0.73921   0.00000  Uiso   1.00
C854   C     0.16496   0.70923   0.75252   0.00000  Uiso   1.00
C855   C     0.12036   0.68666   0.76643   0.00000  Uiso   1.00
C856   C     0.12174   0.97751   0.76534   0.00000  Uiso   1.00
C857   C     0.16656   0.95705   0.75136   0.00000  Uiso   1.00
C858   C     0.30088   0.86142   0.77882   0.00000  Uiso   1.00
C859   C     0.01719   0.86140   0.77882   0.00000  Uiso   1.00
C860   C     0.03227   0.80490   0.72181   0.00000  Uiso   1.00
C861   C     0.31601   0.80498   0.72167   0.00000  Uiso   1.00
C862   C     0.16599   0.75397   0.75121   0.00000  Uiso   1.00
C863   C     0.19271   0.83240   0.64993   0.00000  Uiso   1.00
C864   C     0.26137   0.79350   0.51681   0.00000  Uiso   1.00
C865   C     0.20713   0.82487   0.59366   0.00000  Uiso   1.00
C866   C     0.07706   0.83951   0.93443   0.00000  Uiso   1.00
C867   C     0.06050   0.83728   0.98832   0.00000  Uiso   1.00
C868   C     0.09213   0.82611   0.51681   0.00000  Uiso   1.00
Cu869  Cu    0.11978   0.83333   0.75000   0.00000  Uiso   1.00
Cu870  Cu    0.21355   0.83334   0.75000   0.00000  Uiso   1.00
H871   H     0.27875   0.80072   0.58878   0.00000  Uiso   1.00
H872   H     0.24448   0.70491   0.72848   0.00000  Uiso   1.00
H873   H     0.08746   0.96043   0.77611   0.00000  Uiso   1.00
H874   H     0.27604   0.88388   0.80194   0.00000  Uiso   1.00
H875   H     0.02978   0.88384   0.80196   0.00000  Uiso   1.00
H876   H     0.05699   0.78213   0.69921   0.00000  Uiso   1.00
H877   H     0.30336   0.78237   0.69878   0.00000  Uiso   1.00
H878   H     0.29661   0.77981   0.99837   0.00000  Uiso   1.00
H879   H     0.14136   0.84999   0.58497   0.00000  Uiso   1.00
H880   H     0.05176   0.84961   0.91378   0.00000  Uiso   1.00
H881   H     0.02235   0.84356   0.50804   0.00000  Uiso   1.00
H882   H     0.20984   0.78261   0.87193   0.00000  Uiso   1.00
H883   H     0.24566   0.96371   0.72795   0.00000  Uiso   1.00
N884   N     0.04931   0.83332   0.74999   0.00000  Uiso   1.00
N885   N     0.28402   0.83335   0.75000   0.00000  Uiso   1.00
O886   O     0.12708   0.89345   0.75001   0.00000  Uiso   1.00
O887   O     0.20627   0.89346   0.75001   0.00000  Uiso   1.00
O888   O     0.10775   0.83332   0.82549   0.00000  Uiso   1.00
O889   O     0.18694   0.83333   0.82549   0.00000  Uiso   1.00
O890   O     0.12706   0.77321   0.75000   0.00000  Uiso   1.00
O891   O     0.20625   0.77322   0.75000   0.00000  Uiso   1.00
O892   O     0.14640   0.83334   0.67451   0.00000  Uiso   1.00
O893   O     0.22559   0.83335   0.67451   0.00000  Uiso   1.00
Br894  Br    0.05597   0.71028   0.78935   0.00000  Uiso   1.00
Br895  Br    0.29551   0.76005   0.89962   0.00000  Uiso   1.00
Br896  Br    0.05985   0.81109   0.58789   0.00000  Uiso   1.00
C897   C     0.50011   0.91258   0.75025   0.00000  Uiso   1.00
C898   C     0.47589   0.81863   0.99076   0.00000  Uiso   1.00
C899   C     0.48995   0.81359   0.93589   0.00000  Uiso   1.00
C900   C     0.51272   0.81515   0.51664   0.00000  Uiso   1.00
C901   C     0.55903   0.79785   0.99032   0.00000  Uiso   1.00
C902   C     0.56861   0.78563   0.93814   0.00000  Uiso   1.00
C903   C     0.53457   0.79367   0.91151   0.00000  Uiso   1.00
C904   C     0.50613   0.83136   0.56665   0.00000  Uiso   1.00
C905   C     0.58507   0.80622   0.56840   0.00000  Uiso   1.00
C906   C     0.45811   0.82734   0.90741   0.00000  Uiso   1.00
C907   C     0.54398   0.97919   0.73880   0.00000  Uiso   1.00
C908   C     0.47396   0.83102   0.85009   0.00000  Uiso   1.00
C909   C     0.54317   0.68838   0.73921   0.00000  Uiso   1.00
C910   C     0.49829   0.70923   0.75252   0.00000  Uiso   1.00
C911   C     0.45370   0.68666   0.76643   0.00000  Uiso   1.00
C912   C     0.45507   0.97751   0.76534   0.00000  Uiso   1.00
C913   C     0.49989   0.95705   0.75136   0.00000  Uiso   1.00
C914   C     0.63421   0.86142   0.77882   0.00000  Uiso   1.00
C915   C     0.35052   0.86140   0.77882   0.00000  Uiso   1.00
C916   C     0.36560   0.80490   0.72181   0.00000  Uiso   1.00
C917   C     0.64934   0.80498   0.72167   0.00000  Uiso   1.00
C918   C     0.49933   0.75397   0.75121   0.00000  Uiso   1.00
C919   C     0.52604   0.83240   0.64993   0.00000  Uiso   1.00
C920   C     0.59470   0.79350   0.51681   0.00000  Uiso   1.00
C921   C     0.54046   0.82487   0.59366   0.00000  Uiso   1.00
C922   C     0.41039   0.83951   0.93443   0.00000  Uiso   1.00
C923   C     0.39383   0.83728   0.98832   0.00000  Uiso   1.00
C924   C     0.42546   0.82611   0.51681   0.00000  Uiso   1.00
Cu925  Cu    0.45311   0.83333   0.75000   0.00000  Uiso   1.00
Cu926  Cu    0.54689   0.83334   0.75000   0.00000  Uiso   1.00
H927   H     0.61208   0.80072   0.58878   0.00000  Uiso   1.00
H928   H     0.57782   0.70491   0.72848   0.00000  Uiso   1.00
H929   H     0.42079   0.96043   0.77611   0.00000  Uiso   1.00
H930   H     0.60937   0.88388   0.80194   0.00000  Uiso   1.00
H931   H     0.36311   0.88384   0.80196   0.00000  Uiso   1.00
H932   H     0.39032   0.78213   0.69921   0.00000  Uiso   1.00
H933   H     0.63669   0.78237   0.69878   0.00000  Uiso   1.00
H934   H     0.62994   0.77981   0.99837   0.00000  Uiso   1.00
H935   H     0.47469   0.84999   0.58497   0.00000  Uiso   1.00
H936   H     0.38510   0.84961   0.91378   0.00000  Uiso   1.00
H937   H     0.35568   0.84356   0.50804   0.00000  Uiso   1.00
H938   H     0.54318   0.78261   0.87193   0.00000  Uiso   1.00
H939   H     0.57900   0.96371   0.72795   0.00000  Uiso   1.00
N940   N     0.38265   0.83332   0.74999   0.00000  Uiso   1.00
N941   N     0.61735   0.83335   0.75000   0.00000  Uiso   1.00
O942   O     0.46042   0.89345   0.75001   0.00000  Uiso   1.00
O943   O     0.53961   0.89346   0.75001   0.00000  Uiso   1.00
O944   O     0.44108   0.83332   0.82549   0.00000  Uiso   1.00
O945   O     0.52027   0.83333   0.82549   0.00000  Uiso   1.00
O946   O     0.46039   0.77321   0.75000   0.00000  Uiso   1.00
O947   O     0.53958   0.77322   0.75000   0.00000  Uiso   1.00
O948   O     0.47973   0.83334   0.67451   0.00000  Uiso   1.00
O949   O     0.55892   0.83335   0.67451   0.00000  Uiso   1.00
Br950  Br    0.38930   0.71028   0.78935   0.00000  Uiso   1.00
Br951  Br    0.62885   0.76005   0.89962   0.00000  Uiso   1.00
Br952  Br    0.39319   0.81109   0.58789   0.00000  Uiso   1.00
C953   C     0.83345   0.91258   0.75025   0.00000  Uiso   1.00
C954   C     0.80922   0.81863   0.99076   0.00000  Uiso   1.00
C955   C     0.82329   0.81359   0.93589   0.00000  Uiso   1.00
C956   C     0.84606   0.81515   0.51664   0.00000  Uiso   1.00
C957   C     0.89236   0.79785   0.99032   0.00000  Uiso   1.00
C958   C     0.90194   0.78563   0.93814   0.00000  Uiso   1.00
C959   C     0.86790   0.79367   0.91151   0.00000  Uiso   1.00
C960   C     0.83946   0.83136   0.56665   0.00000  Uiso   1.00
C961   C     0.91841   0.80622   0.56840   0.00000  Uiso   1.00
C962   C     0.79144   0.82734   0.90741   0.00000  Uiso   1.00
C963   C     0.87731   0.97919   0.73880   0.00000  Uiso   1.00
C964   C     0.80729   0.83102   0.85009   0.00000  Uiso   1.00
C965   C     0.87650   0.68838   0.73921   0.00000  Uiso   1.00
C966   C     0.83162   0.70923   0.75252   0.00000  Uiso   1.00
C967   C     0.78703   0.68666   0.76643   0.00000  Uiso   1.00
C968   C     0.78841   0.97751   0.76534   0.00000  Uiso   1.00
C969   C     0.83323   0.95705   0.75136   0.00000  Uiso   1.00
C970   C     0.96755   0.86142   0.77882   0.00000  Uiso   1.00
C971   C     0.68385   0.86140   0.77882   0.00000  Uiso   1.00
C972   C     0.69893   0.80490   0.72181   0.00000  Uiso   1.00
C973   C     0.98267   0.80498   0.72167   0.00000  Uiso   1.00
C974   C     0.83266   0.75397   0.75121   0.00000  Uiso   1.00
C975   C     0.85937   0.83240   0.64993   0.00000  Uiso   1.00
C976   C     0.92804   0.79350   0.51681   0.00000  Uiso   1.00
C977   C     0.87379   0.82487   0.59366   0.00000  Uiso   1.00
C978   C     0.74373   0.83951   0.93443   0.00000  Uiso   1.00
C979   C     0.72717   0.83728   0.98832   0.00000  Uiso   1.00
C980   C     0.75879   0.82611   0.51681   0.00000  Uiso   1.00
Cu981  Cu    0.78645   0.83333   0.75000   0.00000  Uiso   1.00
Cu982  Cu    0.88022   0.83334   0.75000   0.00000  Uiso   1.00
H983   H     0.94541   0.80072   0.58878   0.00000  Uiso   1.00
H984   H     0.91115   0.70491   0.72848   0.00000  Uiso   1.00
H985   H     0.75413   0.96043   0.77611   0.00000  Uiso   1.00
H986   H     0.94270   0.88388   0.80194   0.00000  Uiso   1.00
H987   H     0.69645   0.88384   0.80196   0.00000  Uiso   1.00
H988   H     0.72365   0.78213   0.69921   0.00000  Uiso   1.00
H989   H     0.97003   0.78237   0.69878   0.00000  Uiso   1.00
H990   H     0.96328   0.77981   0.99837   0.00000  Uiso   1.00
H991   H     0.80802   0.84999   0.58497   0.00000  Uiso   1.00
H992   H     0.71843   0.84961   0.91378   0.00000  Uiso   1.00
H993   H     0.68902   0.84356   0.50804   0.00000  Uiso   1.00
H994   H     0.87651   0.78261   0.87193   0.00000  Uiso   1.00
H995   H     0.91233   0.96371   0.72795   0.00000  Uiso   1.00
N996   N     0.71598   0.83332   0.74999   0.00000  Uiso   1.00
N997   N     0.95069   0.83335   0.75000   0.00000  Uiso   1.00
O998   O     0.79375   0.89345   0.75001   0.00000  Uiso   1.00
O999   O     0.87294   0.89346   0.75001   0.00000  Uiso   1.00
O1000  O     0.77441   0.83332   0.82549   0.00000  Uiso   1.00
O1001  O     0.85360   0.83333   0.82549   0.00000  Uiso   1.00
O1002  O     0.79373   0.77321   0.75000   0.00000  Uiso   1.00
O1003  O     0.87292   0.77322   0.75000   0.00000  Uiso   1.00
O1004  O     0.81306   0.83334   0.67451   0.00000  Uiso   1.00
O1005  O     0.89225   0.83335   0.67451   0.00000  Uiso   1.00
Br1006 Br    0.72263   0.71028   0.78935   0.00000  Uiso   1.00
Br1007 Br    0.96218   0.76005   0.89962   0.00000  Uiso   1.00
Br1008 Br    0.72652   0.81109   0.58789   0.00000  Uiso   1.00
loop_
_geom_bond_atom_site_label_1
_geom_bond_atom_site_label_2
_geom_bond_distance
_geom_bond_site_symmetry_2
_ccdc_geom_bond_type
C1     C17     1.447   .     S
C1     O47     1.290   .     A
C1     O46     1.289   .     A
C2     C3      1.417   .     A
C2     C508    1.423   .     S
C2     C532    1.426   .     S
C3     C10     1.422   .     A
C3     C7      1.411   .     A
C4     C8      1.401   .     A
C4     C506    1.423   1_554 S
C4     C509    1.423   1_554 S
C5     C6      1.402   .     A
C5     C508    1.423   .     S
C5     C528    1.409   .     S
C6     C7      1.390   .     A
C6     Br55    1.922   .     S
C7     H42     1.079   .     S
C8     H39     1.078   .     S
C8     C25     1.395   .     A
C9     C24     1.392   .     A
C9     C25     1.397   .     A
C9     H31     1.083   .     S
C10    C26     1.402   .     A
C10    C12     1.476   .     S
C11    H43     1.083   .     S
C11    C17     1.397   .     A
C11    C181    1.384   .     S
C12    O48     1.297   .     A
C12    O49     1.294   .     A
C13    H32     1.084   .     S
C13    C14     1.404   .     A
C13    C347    1.384   1_545 S
C14    C22     1.456   .     S
C14    C15     1.416   .     A
C15    Br54    1.924   .     S
C15    C352    1.383   1_545 S
C16    H33     1.084   .     S
C16    C17     1.397   .     A
C16    C183    1.383   .     S
C18    H34     1.082   .     S
C18    N45     1.367   .     A
C18    C75     1.416   .     S
C19    H35     1.082   .     S
C19    N44     1.367   .     A
C19    C130    1.416   1_455 S
C20    N44     1.366   .     A
C20    H36     1.081   .     S
C20    C133    1.415   1_455 S
C21    H37     1.082   .     S
C21    N45     1.366   .     A
C21    C76     1.415   .     S
C22    O50     1.288   .     A
C22    O51     1.295   .     A
C23    O52     1.293   .     A
C23    O53     1.294   .     A
C23    C25     1.464   .     S
C24    C509    1.409   1_554 S
C24    H542    1.081   1_554 S
C26    H40     1.083   .     S
C26    C27     1.385   .     A
C27    C532    1.393   .     S
C27    H545    1.083   .     S
C28    Br56    1.922   .     S
C28    C531    1.393   1_554 S
C28    C506    1.426   1_554 S
Cu29   O46     1.965   .     S
Cu29   Cu30    2.674   .     S
Cu29   O50     1.969   .     S
Cu29   N44     2.010   .     S
Cu29   O48     1.952   .     S
Cu29   O52     1.944   .     S
Cu30   O51     1.965   .     S
Cu30   O49     1.944   .     S
Cu30   O53     1.952   .     S
Cu30   O47     1.969   .     S
Cu30   N45     2.009   .     S
H38    C528    1.081   .     S
H41    C531    1.083   1_554 S
C57    C73     1.447   .     S
C57    O103    1.290   .     A
C57    O102    1.289   .     A
C58    C59     1.417   .     A
C58    C564    1.423   .     S
C58    C588    1.426   .     S
C59    C66     1.422   .     A
C59    C63     1.411   .     A
C60    C64     1.401   .     A
C60    C562    1.423   1_554 S
C60    C565    1.423   1_554 S
C61    C62     1.402   .     A
C61    C564    1.423   .     S
C61    C584    1.409   .     S
C62    C63     1.390   .     A
C62    Br111   1.922   .     S
C63    H98     1.079   .     S
C64    H95     1.078   .     S
C64    C81     1.395   .     A
C65    C80     1.392   .     A
C65    C81     1.397   .     A
C65    H87     1.083   .     S
C66    C82     1.402   .     A
C66    C68     1.476   .     S
C67    H99     1.083   .     S
C67    C73     1.397   .     A
C67    C237    1.384   .     S
C68    O104    1.297   .     A
C68    O105    1.294   .     A
C69    H88     1.084   .     S
C69    C70     1.404   .     A
C69    C403    1.384   1_545 S
C70    C78     1.456   .     S
C70    C71     1.416   .     A
C71    Br110   1.924   .     S
C71    C408    1.383   1_545 S
C72    H89     1.084   .     S
C72    C73     1.397   .     A
C72    C239    1.383   .     S
C74    H90     1.082   .     S
C74    N101    1.367   .     A
C74    C131    1.416   .     S
C75    H91     1.082   .     S
C75    N100    1.367   .     A
C76    N100    1.366   .     A
C76    H92     1.081   .     S
C77    H93     1.082   .     S
C77    N101    1.366   .     A
C77    C132    1.415   .     S
C78    O106    1.288   .     A
C78    O107    1.295   .     A
C79    O108    1.293   .     A
C79    O109    1.294   .     A
C79    C81     1.464   .     S
C80    C565    1.409   1_554 S
C80    H598    1.081   1_554 S
C82    H96     1.083   .     S
C82    C83     1.385   .     A
C83    C588    1.393   .     S
C83    H601    1.083   .     S
C84    Br112   1.922   .     S
C84    C587    1.393   1_554 S
C84    C562    1.426   1_554 S
Cu85   O102    1.965   .     S
Cu85   Cu86    2.674   .     S
Cu85   O106    1.969   .     S
Cu85   N100    2.010   .     S
Cu85   O104    1.952   .     S
Cu85   O108    1.944   .     S
Cu86   O107    1.965   .     S
Cu86   O105    1.944   .     S
Cu86   O109    1.952   .     S
Cu86   O103    1.969   .     S
Cu86   N101    2.009   .     S
H94    C584    1.081   .     S
H97    C587    1.083   1_554 S
C113   C129    1.447   .     S
C113   O159    1.290   .     A
C113   O158    1.289   .     A
C114   C115    1.417   .     A
C114   C620    1.423   .     S
C114   C644    1.426   .     S
C115   C122    1.422   .     A
C115   C119    1.411   .     A
C116   C120    1.401   .     A
C116   C618    1.423   1_554 S
C116   C621    1.423   1_554 S
C117   C118    1.402   .     A
C117   C620    1.423   .     S
C117   C640    1.409   .     S
C118   C119    1.390   .     A
C118   Br167   1.922   .     S
C119   H154    1.079   .     S
C120   H151    1.078   .     S
C120   C137    1.395   .     A
C121   C136    1.392   .     A
C121   C137    1.397   .     A
C121   H143    1.083   .     S
C122   C138    1.402   .     A
C122   C124    1.476   .     S
C123   H155    1.083   .     S
C123   C129    1.397   .     A
C123   C293    1.384   .     S
C124   O160    1.297   .     A
C124   O161    1.294   .     A
C125   H144    1.084   .     S
C125   C126    1.404   .     A
C125   C459    1.384   1_545 S
C126   C134    1.456   .     S
C126   C127    1.416   .     A
C127   Br166   1.924   .     S
C127   C464    1.383   1_545 S
C128   H145    1.084   .     S
C128   C129    1.397   .     A
C128   C295    1.383   .     S
C130   H146    1.082   .     S
C130   N157    1.367   .     A
C130   C19     1.416   1_655 S
C131   H147    1.082   .     S
C131   N156    1.367   .     A
C132   N156    1.366   .     A
C132   H148    1.081   .     S
C133   H149    1.082   .     S
C133   N157    1.366   .     A
C133   C20     1.415   1_655 S
C134   O162    1.288   .     A
C134   O163    1.295   .     A
C135   O164    1.293   .     A
C135   O165    1.294   .     A
C135   C137    1.464   .     S
C136   C621    1.409   1_554 S
C136   H654    1.081   1_554 S
C138   H152    1.083   .     S
C138   C139    1.385   .     A
C139   C644    1.393   .     S
C139   H657    1.083   .     S
C140   Br168   1.922   .     S
C140   C643    1.393   1_554 S
C140   C618    1.426   1_554 S
Cu141  O158    1.965   .     S
Cu141  Cu142   2.674   .     S
Cu141  O162    1.969   .     S
Cu141  N156    2.010   .     S
Cu141  O160    1.952   .     S
Cu141  O164    1.944   .     S
Cu142  O163    1.965   .     S
Cu142  O161    1.944   .     S
Cu142  O165    1.952   .     S
Cu142  O159    1.969   .     S
Cu142  N157    2.009   .     S
H150   C640    1.081   .     S
H153   C643    1.083   1_554 S
C169   C185    1.447   .     S
C169   O215    1.290   .     A
C169   O214    1.289   .     A
C170   C171    1.417   .     A
C170   C676    1.423   .     S
C170   C700    1.426   .     S
C171   C178    1.422   .     A
C171   C175    1.411   .     A
C172   C176    1.401   .     A
C172   C674    1.423   1_554 S
C172   C677    1.423   1_554 S
C173   C174    1.402   .     A
C173   C676    1.423   .     S
C173   C696    1.409   .     S
C174   C175    1.390   .     A
C174   Br223   1.922   .     S
C175   H210    1.079   .     S
C176   H207    1.078   .     S
C176   C193    1.395   .     A
C177   C192    1.392   .     A
C177   C193    1.397   .     A
C177   H199    1.083   .     S
C178   C194    1.402   .     A
C178   C180    1.476   .     S
C179   H211    1.083   .     S
C179   C185    1.397   .     A
C179   C349    1.384   .     S
C180   O216    1.297   .     A
C180   O217    1.294   .     A
C181   H200    1.084   .     S
C181   C182    1.404   .     A
C182   C190    1.456   .     S
C182   C183    1.416   .     A
C183   Br222   1.924   .     S
C184   H201    1.084   .     S
C184   C185    1.397   .     A
C184   C351    1.383   .     S
C186   H202    1.082   .     S
C186   N213    1.367   .     A
C186   C243    1.416   .     S
C187   H203    1.082   .     S
C187   N212    1.367   .     A
C187   C298    1.416   1_455 S
C188   N212    1.366   .     A
C188   H204    1.081   .     S
C188   C301    1.415   1_455 S
C189   H205    1.082   .     S
C189   N213    1.366   .     A
C189   C244    1.415   .     S
C190   O218    1.288   .     A
C190   O219    1.295   .     A
C191   O220    1.293   .     A
C191   O221    1.294   .     A
C191   C193    1.464   .     S
C192   C677    1.409   1_554 S
C192   H710    1.081   1_554 S
C194   H208    1.083   .     S
C194   C195    1.385   .     A
C195   C700    1.393   .     S
C195   H713    1.083   .     S
C196   Br224   1.922   .     S
C196   C699    1.393   1_554 S
C196   C674    1.426   1_554 S
Cu197  O214    1.965   .     S
Cu197  Cu198   2.674   .     S
Cu197  O218    1.969   .     S
Cu197  N212    2.010   .     S
Cu197  O216    1.952   .     S
Cu197  O220    1.944   .     S
Cu198  O219    1.965   .     S
Cu198  O217    1.944   .     S
Cu198  O221    1.952   .     S
Cu198  O215    1.969   .     S
Cu198  N213    2.009   .     S
H206   C696    1.081   .     S
H209   C699    1.083   1_554 S
C225   C241    1.447   .     S
C225   O271    1.290   .     A
C225   O270    1.289   .     A
C226   C227    1.417   .     A
C226   C732    1.423   .     S
C226   C756    1.426   .     S
C227   C234    1.422   .     A
C227   C231    1.411   .     A
C228   C232    1.401   .     A
C228   C730    1.423   1_554 S
C228   C733    1.423   1_554 S
C229   C230    1.402   .     A
C229   C732    1.423   .     S
C229   C752    1.409   .     S
C230   C231    1.390   .     A
C230   Br279   1.922   .     S
C231   H266    1.079   .     S
C232   H263    1.078   .     S
C232   C249    1.395   .     A
C233   C248    1.392   .     A
C233   C249    1.397   .     A
C233   H255    1.083   .     S
C234   C250    1.402   .     A
C234   C236    1.476   .     S
C235   H267    1.083   .     S
C235   C241    1.397   .     A
C235   C405    1.384   .     S
C236   O272    1.297   .     A
C236   O273    1.294   .     A
C237   H256    1.084   .     S
C237   C238    1.404   .     A
C238   C246    1.456   .     S
C238   C239    1.416   .     A
C239   Br278   1.924   .     S
C240   H257    1.084   .     S
C240   C241    1.397   .     A
C240   C407    1.383   .     S
C242   H258    1.082   .     S
C242   N269    1.367   .     A
C242   C299    1.416   .     S
C243   H259    1.082   .     S
C243   N268    1.367   .     A
C244   N268    1.366   .     A
C244   H260    1.081   .     S
C245   H261    1.082   .     S
C245   N269    1.366   .     A
C245   C300    1.415   .     S
C246   O274    1.288   .     A
C246   O275    1.295   .     A
C247   O276    1.293   .     A
C247   O277    1.294   .     A
C247   C249    1.464   .     S
C248   C733    1.409   1_554 S
C248   H766    1.081   1_554 S
C250   H264    1.083   .     S
C250   C251    1.385   .     A
C251   C756    1.393   .     S
C251   H769    1.083   .     S
C252   Br280   1.922   .     S
C252   C755    1.393   1_554 S
C252   C730    1.426   1_554 S
Cu253  O270    1.965   .     S
Cu253  Cu254   2.674   .     S
Cu253  O274    1.969   .     S
Cu253  N268    2.010   .     S
Cu253  O272    1.952   .     S
Cu253  O276    1.944   .     S
Cu254  O275    1.965   .     S
Cu254  O273    1.944   .     S
Cu254  O277    1.952   .     S
Cu254  O271    1.969   .     S
Cu254  N269    2.009   .     S
H262   C752    1.081   .     S
H265   C755    1.083   1_554 S
C281   C297    1.447   .     S
C281   O327    1.290   .     A
C281   O326    1.289   .     A
C282   C283    1.417   .     A
C282   C788    1.423   .     S
C282   C812    1.426   .     S
C283   C290    1.422   .     A
C283   C287    1.411   .     A
C284   C288    1.401   .     A
C284   C786    1.423   1_554 S
C284   C789    1.423   1_554 S
C285   C286    1.402   .     A
C285   C788    1.423   .     S
C285   C808    1.409   .     S
C286   C287    1.390   .     A
C286   Br335   1.922   .     S
C287   H322    1.079   .     S
C288   H319    1.078   .     S
C288   C305    1.395   .     A
C289   C304    1.392   .     A
C289   C305    1.397   .     A
C289   H311    1.083   .     S
C290   C306    1.402   .     A
C290   C292    1.476   .     S
C291   H323    1.083   .     S
C291   C297    1.397   .     A
C291   C461    1.384   .     S
C292   O328    1.297   .     A
C292   O329    1.294   .     A
C293   H312    1.084   .     S
C293   C294    1.404   .     A
C294   C302    1.456   .     S
C294   C295    1.416   .     A
C295   Br334   1.924   .     S
C296   H313    1.084   .     S
C296   C297    1.397   .     A
C296   C463    1.383   .     S
C298   H314    1.082   .     S
C298   N325    1.367   .     A
C298   C187    1.416   1_655 S
C299   H315    1.082   .     S
C299   N324    1.367   .     A
C300   N324    1.366   .     A
C300   H316    1.081   .     S
C301   H317    1.082   .     S
C301   N325    1.366   .     A
C301   C188    1.415   1_655 S
C302   O330    1.288   .     A
C302   O331    1.295   .     A
C303   O332    1.293   .     A
C303   O333    1.294   .     A
C303   C305    1.464   .     S
C304   C789    1.409   1_554 S
C304   H822    1.081   1_554 S
C306   H320    1.083   .     S
C306   C307    1.385   .     A
C307   C812    1.393   .     S
C307   H825    1.083   .     S
C308   Br336   1.922   .     S
C308   C811    1.393   1_554 S
C308   C786    1.426   1_554 S
Cu309  O326    1.965   .     S
Cu309  Cu310   2.674   .     S
Cu309  O330    1.969   .     S
Cu309  N324    2.010   .     S
Cu309  O328    1.952   .     S
Cu309  O332    1.944   .     S
Cu310  O331    1.965   .     S
Cu310  O329    1.944   .     S
Cu310  O333    1.952   .     S
Cu310  O327    1.969   .     S
Cu310  N325    2.009   .     S
H318   C808    1.081   .     S
H321   C811    1.083   1_554 S
C337   C353    1.447   .     S
C337   O383    1.290   .     A
C337   O382    1.289   .     A
C338   C339    1.417   .     A
C338   C844    1.423   .     S
C338   C868    1.426   .     S
C339   C346    1.422   .     A
C339   C343    1.411   .     A
C340   C344    1.401   .     A
C340   C842    1.423   1_554 S
C340   C845    1.423   1_554 S
C341   C342    1.402   .     A
C341   C844    1.423   .     S
C341   C864    1.409   .     S
C342   C343    1.390   .     A
C342   Br391   1.922   .     S
C343   H378    1.079   .     S
C344   H375    1.078   .     S
C344   C361    1.395   .     A
C345   C360    1.392   .     A
C345   C361    1.397   .     A
C345   H367    1.083   .     S
C346   C362    1.402   .     A
C346   C348    1.476   .     S
C347   H379    1.083   .     S
C347   C353    1.397   .     A
C347   C13     1.384   1_565 S
C348   O384    1.297   .     A
C348   O385    1.294   .     A
C349   H368    1.084   .     S
C349   C350    1.404   .     A
C350   C358    1.456   .     S
C350   C351    1.416   .     A
C351   Br390   1.924   .     S
C352   H369    1.084   .     S
C352   C353    1.397   .     A
C352   C15     1.383   1_565 S
C354   H370    1.082   .     S
C354   N381    1.367   .     A
C354   C411    1.416   .     S
C355   H371    1.082   .     S
C355   N380    1.367   .     A
C355   C466    1.416   1_455 S
C356   N380    1.366   .     A
C356   H372    1.081   .     S
C356   C469    1.415   1_455 S
C357   H373    1.082   .     S
C357   N381    1.366   .     A
C357   C412    1.415   .     S
C358   O386    1.288   .     A
C358   O387    1.295   .     A
C359   O388    1.293   .     A
C359   O389    1.294   .     A
C359   C361    1.464   .     S
C360   C845    1.409   1_554 S
C360   H878    1.081   1_554 S
C362   H376    1.083   .     S
C362   C363    1.385   .     A
C363   C868    1.393   .     S
C363   H881    1.083   .     S
C364   Br392   1.922   .     S
C364   C867    1.393   1_554 S
C364   C842    1.426   1_554 S
Cu365  O382    1.965   .     S
Cu365  Cu366   2.674   .     S
Cu365  O386    1.969   .     S
Cu365  N380    2.010   .     S
Cu365  O384    1.952   .     S
Cu365  O388    1.944   .     S
Cu366  O387    1.965   .     S
Cu366  O385    1.944   .     S
Cu366  O389    1.952   .     S
Cu366  O383    1.969   .     S
Cu366  N381    2.009   .     S
H374   C864    1.081   .     S
H377   C867    1.083   1_554 S
C393   C409    1.447   .     S
C393   O439    1.290   .     A
C393   O438    1.289   .     A
C394   C395    1.417   .     A
C394   C900    1.423   .     S
C394   C924    1.426   .     S
C395   C402    1.422   .     A
C395   C399    1.411   .     A
C396   C400    1.401   .     A
C396   C898    1.423   1_554 S
C396   C901    1.423   1_554 S
C397   C398    1.402   .     A
C397   C900    1.423   .     S
C397   C920    1.409   .     S
C398   C399    1.390   .     A
C398   Br447   1.922   .     S
C399   H434    1.079   .     S
C400   H431    1.078   .     S
C400   C417    1.395   .     A
C401   C416    1.392   .     A
C401   C417    1.397   .     A
C401   H423    1.083   .     S
C402   C418    1.402   .     A
C402   C404    1.476   .     S
C403   H435    1.083   .     S
C403   C409    1.397   .     A
C403   C69     1.384   1_565 S
C404   O440    1.297   .     A
C404   O441    1.294   .     A
C405   H424    1.084   .     S
C405   C406    1.404   .     A
C406   C414    1.456   .     S
C406   C407    1.416   .     A
C407   Br446   1.924   .     S
C408   H425    1.084   .     S
C408   C409    1.397   .     A
C408   C71     1.383   1_565 S
C410   H426    1.082   .     S
C410   N437    1.367   .     A
C410   C467    1.416   .     S
C411   H427    1.082   .     S
C411   N436    1.367   .     A
C412   N436    1.366   .     A
C412   H428    1.081   .     S
C413   H429    1.082   .     S
C413   N437    1.366   .     A
C413   C468    1.415   .     S
C414   O442    1.288   .     A
C414   O443    1.295   .     A
C415   O444    1.293   .     A
C415   O445    1.294   .     A
C415   C417    1.464   .     S
C416   C901    1.409   1_554 S
C416   H934    1.081   1_554 S
C418   H432    1.083   .     S
C418   C419    1.385   .     A
C419   C924    1.393   .     S
C419   H937    1.083   .     S
C420   Br448   1.922   .     S
C420   C923    1.393   1_554 S
C420   C898    1.426   1_554 S
Cu421  O438    1.965   .     S
Cu421  Cu422   2.674   .     S
Cu421  O442    1.969   .     S
Cu421  N436    2.010   .     S
Cu421  O440    1.952   .     S
Cu421  O444    1.944   .     S
Cu422  O443    1.965   .     S
Cu422  O441    1.944   .     S
Cu422  O445    1.952   .     S
Cu422  O439    1.969   .     S
Cu422  N437    2.009   .     S
H430   C920    1.081   .     S
H433   C923    1.083   1_554 S
C449   C465    1.447   .     S
C449   O495    1.290   .     A
C449   O494    1.289   .     A
C450   C451    1.417   .     A
C450   C956    1.423   .     S
C450   C980    1.426   .     S
C451   C458    1.422   .     A
C451   C455    1.411   .     A
C452   C456    1.401   .     A
C452   C954    1.423   1_554 S
C452   C957    1.423   1_554 S
C453   C454    1.402   .     A
C453   C956    1.423   .     S
C453   C976    1.409   .     S
C454   C455    1.390   .     A
C454   Br503   1.922   .     S
C455   H490    1.079   .     S
C456   H487    1.078   .     S
C456   C473    1.395   .     A
C457   C472    1.392   .     A
C457   C473    1.397   .     A
C457   H479    1.083   .     S
C458   C474    1.402   .     A
C458   C460    1.476   .     S
C459   H491    1.083   .     S
C459   C465    1.397   .     A
C459   C125    1.384   1_565 S
C460   O496    1.297   .     A
C460   O497    1.294   .     A
C461   H480    1.084   .     S
C461   C462    1.404   .     A
C462   C470    1.456   .     S
C462   C463    1.416   .     A
C463   Br502   1.924   .     S
C464   H481    1.084   .     S
C464   C465    1.397   .     A
C464   C127    1.383   1_565 S
C466   H482    1.082   .     S
C466   N493    1.367   .     A
C466   C355    1.416   1_655 S
C467   H483    1.082   .     S
C467   N492    1.367   .     A
C468   N492    1.366   .     A
C468   H484    1.081   .     S
C469   H485    1.082   .     S
C469   N493    1.366   .     A
C469   C356    1.415   1_655 S
C470   O498    1.288   .     A
C470   O499    1.295   .     A
C471   O500    1.293   .     A
C471   O501    1.294   .     A
C471   C473    1.464   .     S
C472   C957    1.409   1_554 S
C472   H990    1.081   1_554 S
C474   H488    1.083   .     S
C474   C475    1.385   .     A
C475   C980    1.393   .     S
C475   H993    1.083   .     S
C476   Br504   1.922   .     S
C476   C979    1.393   1_554 S
C476   C954    1.426   1_554 S
Cu477  O494    1.965   .     S
Cu477  Cu478   2.674   .     S
Cu477  O498    1.969   .     S
Cu477  N492    2.010   .     S
Cu477  O496    1.952   .     S
Cu477  O500    1.944   .     S
Cu478  O499    1.965   .     S
Cu478  O497    1.944   .     S
Cu478  O501    1.952   .     S
Cu478  O495    1.969   .     S
Cu478  N493    2.009   .     S
H486   C976    1.081   .     S
H489   C979    1.083   1_554 S
C505   C521    1.447   .     S
C505   O551    1.290   .     A
C505   O550    1.289   .     A
C506   C507    1.417   .     A
C506   C4      1.423   1_556 S
C506   C28     1.426   1_556 S
C507   C514    1.422   .     A
C507   C511    1.411   .     A
C508   C512    1.401   .     A
C509   C510    1.402   .     A
C509   C4      1.423   1_556 S
C509   C24     1.409   1_556 S
C510   C511    1.390   .     A
C510   Br559   1.922   .     S
C511   H546    1.079   .     S
C512   H543    1.078   .     S
C512   C529    1.395   .     A
C513   C528    1.392   .     A
C513   C529    1.397   .     A
C513   H535    1.083   .     S
C514   C530    1.402   .     A
C514   C516    1.476   .     S
C515   H547    1.083   .     S
C515   C521    1.397   .     A
C515   C685    1.384   .     S
C516   O552    1.297   .     A
C516   O553    1.294   .     A
C517   H536    1.084   .     S
C517   C518    1.404   .     A
C517   C851    1.384   1_545 S
C518   C526    1.456   .     S
C518   C519    1.416   .     A
C519   Br558   1.924   .     S
C519   C856    1.383   1_545 S
C520   H537    1.084   .     S
C520   C521    1.397   .     A
C520   C687    1.383   .     S
C522   H538    1.082   .     S
C522   N549    1.367   .     A
C522   C579    1.416   .     S
C523   H539    1.082   .     S
C523   N548    1.367   .     A
C523   C634    1.416   1_455 S
C524   N548    1.366   .     A
C524   H540    1.081   .     S
C524   C637    1.415   1_455 S
C525   H541    1.082   .     S
C525   N549    1.366   .     A
C525   C580    1.415   .     S
C526   O554    1.288   .     A
C526   O555    1.295   .     A
C527   O556    1.293   .     A
C527   O557    1.294   .     A
C527   C529    1.464   .     S
C530   H544    1.083   .     S
C530   C531    1.385   .     A
C531   C28     1.393   1_556 S
C531   H41     1.083   1_556 S
C532   Br560   1.922   .     S
Cu533  O550    1.965   .     S
Cu533  Cu534   2.674   .     S
Cu533  O554    1.969   .     S
Cu533  N548    2.010   .     S
Cu533  O552    1.952   .     S
Cu533  O556    1.944   .     S
Cu534  O555    1.965   .     S
Cu534  O553    1.944   .     S
Cu534  O557    1.952   .     S
Cu534  O551    1.969   .     S
Cu534  N549    2.009   .     S
H542   C24     1.081   1_556 S
C561   C577    1.447   .     S
C561   O607    1.290   .     A
C561   O606    1.289   .     A
C562   C563    1.417   .     A
C562   C60     1.423   1_556 S
C562   C84     1.426   1_556 S
C563   C570    1.422   .     A
C563   C567    1.411   .     A
C564   C568    1.401   .     A
C565   C566    1.402   .     A
C565   C60     1.423   1_556 S
C565   C80     1.409   1_556 S
C566   C567    1.390   .     A
C566   Br615   1.922   .     S
C567   H602    1.079   .     S
C568   H599    1.078   .     S
C568   C585    1.395   .     A
C569   C584    1.392   .     A
C569   C585    1.397   .     A
C569   H591    1.083   .     S
C570   C586    1.402   .     A
C570   C572    1.476   .     S
C571   H603    1.083   .     S
C571   C577    1.397   .     A
C571   C741    1.384   .     S
C572   O608    1.297   .     A
C572   O609    1.294   .     A
C573   H592    1.084   .     S
C573   C574    1.404   .     A
C573   C907    1.384   1_545 S
C574   C582    1.456   .     S
C574   C575    1.416   .     A
C575   Br614   1.924   .     S
C575   C912    1.383   1_545 S
C576   H593    1.084   .     S
C576   C577    1.397   .     A
C576   C743    1.383   .     S
C578   H594    1.082   .     S
C578   N605    1.367   .     A
C578   C635    1.416   .     S
C579   H595    1.082   .     S
C579   N604    1.367   .     A
C580   N604    1.366   .     A
C580   H596    1.081   .     S
C581   H597    1.082   .     S
C581   N605    1.366   .     A
C581   C636    1.415   .     S
C582   O610    1.288   .     A
C582   O611    1.295   .     A
C583   O612    1.293   .     A
C583   O613    1.294   .     A
C583   C585    1.464   .     S
C586   H600    1.083   .     S
C586   C587    1.385   .     A
C587   C84     1.393   1_556 S
C587   H97     1.083   1_556 S
C588   Br616   1.922   .     S
Cu589  O606    1.965   .     S
Cu589  Cu590   2.674   .     S
Cu589  O610    1.969   .     S
Cu589  N604    2.010   .     S
Cu589  O608    1.952   .     S
Cu589  O612    1.944   .     S
Cu590  O611    1.965   .     S
Cu590  O609    1.944   .     S
Cu590  O613    1.952   .     S
Cu590  O607    1.969   .     S
Cu590  N605    2.009   .     S
H598   C80     1.081   1_556 S
C617   C633    1.447   .     S
C617   O663    1.290   .     A
C617   O662    1.289   .     A
C618   C619    1.417   .     A
C618   C116    1.423   1_556 S
C618   C140    1.426   1_556 S
C619   C626    1.422   .     A
C619   C623    1.411   .     A
C620   C624    1.401   .     A
C621   C622    1.402   .     A
C621   C116    1.423   1_556 S
C621   C136    1.409   1_556 S
C622   C623    1.390   .     A
C622   Br671   1.922   .     S
C623   H658    1.079   .     S
C624   H655    1.078   .     S
C624   C641    1.395   .     A
C625   C640    1.392   .     A
C625   C641    1.397   .     A
C625   H647    1.083   .     S
C626   C642    1.402   .     A
C626   C628    1.476   .     S
C627   H659    1.083   .     S
C627   C633    1.397   .     A
C627   C797    1.384   .     S
C628   O664    1.297   .     A
C628   O665    1.294   .     A
C629   H648    1.084   .     S
C629   C630    1.404   .     A
C629   C963    1.384   1_545 S
C630   C638    1.456   .     S
C630   C631    1.416   .     A
C631   Br670   1.924   .     S
C631   C968    1.383   1_545 S
C632   H649    1.084   .     S
C632   C633    1.397   .     A
C632   C799    1.383   .     S
C634   H650    1.082   .     S
C634   N661    1.367   .     A
C634   C523    1.416   1_655 S
C635   H651    1.082   .     S
C635   N660    1.367   .     A
C636   N660    1.366   .     A
C636   H652    1.081   .     S
C637   H653    1.082   .     S
C637   N661    1.366   .     A
C637   C524    1.415   1_655 S
C638   O666    1.288   .     A
C638   O667    1.295   .     A
C639   O668    1.293   .     A
C639   O669    1.294   .     A
C639   C641    1.464   .     S
C642   H656    1.083   .     S
C642   C643    1.385   .     A
C643   C140    1.393   1_556 S
C643   H153    1.083   1_556 S
C644   Br672   1.922   .     S
Cu645  O662    1.965   .     S
Cu645  Cu646   2.674   .     S
Cu645  O666    1.969   .     S
Cu645  N660    2.010   .     S
Cu645  O664    1.952   .     S
Cu645  O668    1.944   .     S
Cu646  O667    1.965   .     S
Cu646  O665    1.944   .     S
Cu646  O669    1.952   .     S
Cu646  O663    1.969   .     S
Cu646  N661    2.009   .     S
H654   C136    1.081   1_556 S
C673   C689    1.447   .     S
C673   O719    1.290   .     A
C673   O718    1.289   .     A
C674   C675    1.417   .     A
C674   C172    1.423   1_556 S
C674   C196    1.426   1_556 S
C675   C682    1.422   .     A
C675   C679    1.411   .     A
C676   C680    1.401   .     A
C677   C678    1.402   .     A
C677   C172    1.423   1_556 S
C677   C192    1.409   1_556 S
C678   C679    1.390   .     A
C678   Br727   1.922   .     S
C679   H714    1.079   .     S
C680   H711    1.078   .     S
C680   C697    1.395   .     A
C681   C696    1.392   .     A
C681   C697    1.397   .     A
C681   H703    1.083   .     S
C682   C698    1.402   .     A
C682   C684    1.476   .     S
C683   H715    1.083   .     S
C683   C689    1.397   .     A
C683   C853    1.384   .     S
C684   O720    1.297   .     A
C684   O721    1.294   .     A
C685   H704    1.084   .     S
C685   C686    1.404   .     A
C686   C694    1.456   .     S
C686   C687    1.416   .     A
C687   Br726   1.924   .     S
C688   H705    1.084   .     S
C688   C689    1.397   .     A
C688   C855    1.383   .     S
C690   H706    1.082   .     S
C690   N717    1.367   .     A
C690   C747    1.416   .     S
C691   H707    1.082   .     S
C691   N716    1.367   .     A
C691   C802    1.416   1_455 S
C692   N716    1.366   .     A
C692   H708    1.081   .     S
C692   C805    1.415   1_455 S
C693   H709    1.082   .     S
C693   N717    1.366   .     A
C693   C748    1.415   .     S
C694   O722    1.288   .     A
C694   O723    1.295   .     A
C695   O724    1.293   .     A
C695   O725    1.294   .     A
C695   C697    1.464   .     S
C698   H712    1.083   .     S
C698   C699    1.385   .     A
C699   C196    1.393   1_556 S
C699   H209    1.083   1_556 S
C700   Br728   1.922   .     S
Cu701  O718    1.965   .     S
Cu701  Cu702   2.674   .     S
Cu701  O722    1.969   .     S
Cu701  N716    2.010   .     S
Cu701  O720    1.952   .     S
Cu701  O724    1.944   .     S
Cu702  O723    1.965   .     S
Cu702  O721    1.944   .     S
Cu702  O725    1.952   .     S
Cu702  O719    1.969   .     S
Cu702  N717    2.009   .     S
H710   C192    1.081   1_556 S
C729   C745    1.447   .     S
C729   O775    1.290   .     A
C729   O774    1.289   .     A
C730   C731    1.417   .     A
C730   C228    1.423   1_556 S
C730   C252    1.426   1_556 S
C731   C738    1.422   .     A
C731   C735    1.411   .     A
C732   C736    1.401   .     A
C733   C734    1.402   .     A
C733   C228    1.423   1_556 S
C733   C248    1.409   1_556 S
C734   C735    1.390   .     A
C734   Br783   1.922   .     S
C735   H770    1.079   .     S
C736   H767    1.078   .     S
C736   C753    1.395   .     A
C737   C752    1.392   .     A
C737   C753    1.397   .     A
C737   H759    1.083   .     S
C738   C754    1.402   .     A
C738   C740    1.476   .     S
C739   H771    1.083   .     S
C739   C745    1.397   .     A
C739   C909    1.384   .     S
C740   O776    1.297   .     A
C740   O777    1.294   .     A
C741   H760    1.084   .     S
C741   C742    1.404   .     A
C742   C750    1.456   .     S
C742   C743    1.416   .     A
C743   Br782   1.924   .     S
C744   H761    1.084   .     S
C744   C745    1.397   .     A
C744   C911    1.383   .     S
C746   H762    1.082   .     S
C746   N773    1.367   .     A
C746   C803    1.416   .     S
C747   H763    1.082   .     S
C747   N772    1.367   .     A
C748   N772    1.366   .     A
C748   H764    1.081   .     S
C749   H765    1.082   .     S
C749   N773    1.366   .     A
C749   C804    1.415   .     S
C750   O778    1.288   .     A
C750   O779    1.295   .     A
C751   O780    1.293   .     A
C751   O781    1.294   .     A
C751   C753    1.464   .     S
C754   H768    1.083   .     S
C754   C755    1.385   .     A
C755   C252    1.393   1_556 S
C755   H265    1.083   1_556 S
C756   Br784   1.922   .     S
Cu757  O774    1.965   .     S
Cu757  Cu758   2.674   .     S
Cu757  O778    1.969   .     S
Cu757  N772    2.010   .     S
Cu757  O776    1.952   .     S
Cu757  O780    1.944   .     S
Cu758  O779    1.965   .     S
Cu758  O777    1.944   .     S
Cu758  O781    1.952   .     S
Cu758  O775    1.969   .     S
Cu758  N773    2.009   .     S
H766   C248    1.081   1_556 S
C785   C801    1.447   .     S
C785   O831    1.290   .     A
C785   O830    1.289   .     A
C786   C787    1.417   .     A
C786   C284    1.423   1_556 S
C786   C308    1.426   1_556 S
C787   C794    1.422   .     A
C787   C791    1.411   .     A
C788   C792    1.401   .     A
C789   C790    1.402   .     A
C789   C284    1.423   1_556 S
C789   C304    1.409   1_556 S
C790   C791    1.390   .     A
C790   Br839   1.922   .     S
C791   H826    1.079   .     S
C792   H823    1.078   .     S
C792   C809    1.395   .     A
C793   C808    1.392   .     A
C793   C809    1.397   .     A
C793   H815    1.083   .     S
C794   C810    1.402   .     A
C794   C796    1.476   .     S
C795   H827    1.083   .     S
C795   C801    1.397   .     A
C795   C965    1.384   .     S
C796   O832    1.297   .     A
C796   O833    1.294   .     A
C797   H816    1.084   .     S
C797   C798    1.404   .     A
C798   C806    1.456   .     S
C798   C799    1.416   .     A
C799   Br838   1.924   .     S
C800   H817    1.084   .     S
C800   C801    1.397   .     A
C800   C967    1.383   .     S
C802   H818    1.082   .     S
C802   N829    1.367   .     A
C802   C691    1.416   1_655 S
C803   H819    1.082   .     S
C803   N828    1.367   .     A
C804   N828    1.366   .     A
C804   H820    1.081   .     S
C805   H821    1.082   .     S
C805   N829    1.366   .     A
C805   C692    1.415   1_655 S
C806   O834    1.288   .     A
C806   O835    1.295   .     A
C807   O836    1.293   .     A
C807   O837    1.294   .     A
C807   C809    1.464   .     S
C810   H824    1.083   .     S
C810   C811    1.385   .     A
C811   C308    1.393   1_556 S
C811   H321    1.083   1_556 S
C812   Br840   1.922   .     S
Cu813  O830    1.965   .     S
Cu813  Cu814   2.674   .     S
Cu813  O834    1.969   .     S
Cu813  N828    2.010   .     S
Cu813  O832    1.952   .     S
Cu813  O836    1.944   .     S
Cu814  O835    1.965   .     S
Cu814  O833    1.944   .     S
Cu814  O837    1.952   .     S
Cu814  O831    1.969   .     S
Cu814  N829    2.009   .     S
H822   C304    1.081   1_556 S
C841   C857    1.447   .     S
C841   O887    1.290   .     A
C841   O886    1.289   .     A
C842   C843    1.417   .     A
C842   C340    1.423   1_556 S
C842   C364    1.426   1_556 S
C843   C850    1.422   .     A
C843   C847    1.411   .     A
C844   C848    1.401   .     A
C845   C846    1.402   .     A
C845   C340    1.423   1_556 S
C845   C360    1.409   1_556 S
C846   C847    1.390   .     A
C846   Br895   1.922   .     S
C847   H882    1.079   .     S
C848   H879    1.078   .     S
C848   C865    1.395   .     A
C849   C864    1.392   .     A
C849   C865    1.397   .     A
C849   H871    1.083   .     S
C850   C866    1.402   .     A
C850   C852    1.476   .     S
C851   H883    1.083   .     S
C851   C857    1.397   .     A
C851   C517    1.384   1_565 S
C852   O888    1.297   .     A
C852   O889    1.294   .     A
C853   H872    1.084   .     S
C853   C854    1.404   .     A
C854   C862    1.456   .     S
C854   C855    1.416   .     A
C855   Br894   1.924   .     S
C856   H873    1.084   .     S
C856   C857    1.397   .     A
C856   C519    1.383   1_565 S
C858   H874    1.082   .     S
C858   N885    1.367   .     A
C858   C915    1.416   .     S
C859   H875    1.082   .     S
C859   N884    1.367   .     A
C859   C970    1.416   1_455 S
C860   N884    1.366   .     A
C860   H876    1.081   .     S
C860   C973    1.415   1_455 S
C861   H877    1.082   .     S
C861   N885    1.366   .     A
C861   C916    1.415   .     S
C862   O890    1.288   .     A
C862   O891    1.295   .     A
C863   O892    1.293   .     A
C863   O893    1.294   .     A
C863   C865    1.464   .     S
C866   H880    1.083   .     S
C866   C867    1.385   .     A
C867   C364    1.393   1_556 S
C867   H377    1.083   1_556 S
C868   Br896   1.922   .     S
Cu869  O886    1.965   .     S
Cu869  Cu870   2.674   .     S
Cu869  O890    1.969   .     S
Cu869  N884    2.010   .     S
Cu869  O888    1.952   .     S
Cu869  O892    1.944   .     S
Cu870  O891    1.965   .     S
Cu870  O889    1.944   .     S
Cu870  O893    1.952   .     S
Cu870  O887    1.969   .     S
Cu870  N885    2.009   .     S
H878   C360    1.081   1_556 S
C897   C913    1.447   .     S
C897   O943    1.290   .     A
C897   O942    1.289   .     A
C898   C899    1.417   .     A
C898   C396    1.423   1_556 S
C898   C420    1.426   1_556 S
C899   C906    1.422   .     A
C899   C903    1.411   .     A
C900   C904    1.401   .     A
C901   C902    1.402   .     A
C901   C396    1.423   1_556 S
C901   C416    1.409   1_556 S
C902   C903    1.390   .     A
C902   Br951   1.922   .     S
C903   H938    1.079   .     S
C904   H935    1.078   .     S
C904   C921    1.395   .     A
C905   C920    1.392   .     A
C905   C921    1.397   .     A
C905   H927    1.083   .     S
C906   C922    1.402   .     A
C906   C908    1.476   .     S
C907   H939    1.083   .     S
C907   C913    1.397   .     A
C907   C573    1.384   1_565 S
C908   O944    1.297   .     A
C908   O945    1.294   .     A
C909   H928    1.084   .     S
C909   C910    1.404   .     A
C910   C918    1.456   .     S
C910   C911    1.416   .     A
C911   Br950   1.924   .     S
C912   H929    1.084   .     S
C912   C913    1.397   .     A
C912   C575    1.383   1_565 S
C914   H930    1.082   .     S
C914   N941    1.367   .     A
C914   C971    1.416   .     S
C915   H931    1.082   .     S
C915   N940    1.367   .     A
C916   N940    1.366   .     A
C916   H932    1.081   .     S
C917   H933    1.082   .     S
C917   N941    1.366   .     A
C917   C972    1.415   .     S
C918   O946    1.288   .     A
C918   O947    1.295   .     A
C919   O948    1.293   .     A
C919   O949    1.294   .     A
C919   C921    1.464   .     S
C922   H936    1.083   .     S
C922   C923    1.385   .     A
C923   C420    1.393   1_556 S
C923   H433    1.083   1_556 S
C924   Br952   1.922   .     S
Cu925  O942    1.965   .     S
Cu925  Cu926   2.674   .     S
Cu925  O946    1.969   .     S
Cu925  N940    2.010   .     S
Cu925  O944    1.952   .     S
Cu925  O948    1.944   .     S
Cu926  O947    1.965   .     S
Cu926  O945    1.944   .     S
Cu926  O949    1.952   .     S
Cu926  O943    1.969   .     S
Cu926  N941    2.009   .     S
H934   C416    1.081   1_556 S
C953   C969    1.447   .     S
C953   O999    1.290   .     A
C953   O998    1.289   .     A
C954   C955    1.417   .     A
C954   C452    1.423   1_556 S
C954   C476    1.426   1_556 S
C955   C962    1.422   .     A
C955   C959    1.411   .     A
C956   C960    1.401   .     A
C957   C958    1.402   .     A
C957   C452    1.423   1_556 S
C957   C472    1.409   1_556 S
C958   C959    1.390   .     A
C958   Br1007  1.922   .     S
C959   H994    1.079   .     S
C960   H991    1.078   .     S
C960   C977    1.395   .     A
C961   C976    1.392   .     A
C961   C977    1.397   .     A
C961   H983    1.083   .     S
C962   C978    1.402   .     A
C962   C964    1.476   .     S
C963   H995    1.083   .     S
C963   C969    1.397   .     A
C963   C629    1.384   1_565 S
C964   O1000   1.297   .     A
C964   O1001   1.294   .     A
C965   H984    1.084   .     S
C965   C966    1.404   .     A
C966   C974    1.456   .     S
C966   C967    1.416   .     A
C967   Br1006  1.924   .     S
C968   H985    1.084   .     S
C968   C969    1.397   .     A
C968   C631    1.383   1_565 S
C970   H986    1.082   .     S
C970   N997    1.367   .     A
C970   C859    1.416   1_655 S
C971   H987    1.082   .     S
C971   N996    1.367   .     A
C972   N996    1.366   .     A
C972   H988    1.081   .     S
C973   H989    1.082   .     S
C973   N997    1.366   .     A
C973   C860    1.415   1_655 S
C974   O1002   1.288   .     A
C974   O1003   1.295   .     A
C975   O1004   1.293   .     A
C975   O1005   1.294   .     A
C975   C977    1.464   .     S
C978   H992    1.083   .     S
C978   C979    1.385   .     A
C979   C476    1.393   1_556 S
C979   H489    1.083   1_556 S
C980   Br1008  1.922   .     S
Cu981  O998    1.965   .     S
Cu981  Cu982   2.674   .     S
Cu981  O1002   1.969   .     S
Cu981  N996    2.010   .     S
Cu981  O1000   1.952   .     S
Cu981  O1004   1.944   .     S
Cu982  O1003   1.965   .     S
Cu982  O1001   1.944   .     S
Cu982  O1005   1.952   .     S
Cu982  O999    1.969   .     S
Cu982  N997    2.009   .     S
H990   C472    1.081   1_556 S
