data_str_m2_o2_o10_pcu_sym.129
_audit_creation_date              2020-01-03
_audit_creation_method            'Materials Studio'
_symmetry_space_group_name_H-M    'P1'
_symmetry_Int_Tables_number       1
_symmetry_cell_setting            triclinic
loop_
_symmetry_equiv_pos_as_xyz
  x,y,z
_cell_length_a                    26.5700
_cell_length_b                    30.3428
_cell_length_c                    27.8387
_cell_angle_alpha                 90.3820
_cell_angle_beta                  98.3220
_cell_angle_gamma                 91.5745
loop_
_atom_site_label
_atom_site_type_symbol
_atom_site_fract_x
_atom_site_fract_y
_atom_site_fract_z
_atom_site_U_iso_or_equiv
_atom_site_adp_type
_atom_site_occupancy
O1     O     0.16667   0.18572   0.29071   0.00000  Uiso   1.00
O2     O     0.16666   0.31427   0.20928   0.00000  Uiso   1.00
O3     O     0.16667   0.18573   0.20928   0.00000  Uiso   1.00
O4     O     0.16666   0.31427   0.29072   0.00000  Uiso   1.00
C5     C     0.16679   0.16510   0.24991   0.00000  Uiso   1.00
C6     C     0.16603   0.33511   0.24983   0.00000  Uiso   1.00
O7     O     0.09161   0.24999   0.28132   0.00000  Uiso   1.00
O8     O     0.24172   0.25000   0.21868   0.00000  Uiso   1.00
O9     O     0.09161   0.25000   0.19988   0.00000  Uiso   1.00
O10    O     0.24172   0.25000   0.30011   0.00000  Uiso   1.00
C11    C     0.06826   0.25146   0.23776   0.00000  Uiso   1.00
C12    C     0.26525   0.25071   0.26241   0.00000  Uiso   1.00
Cu13   Cu    0.16667   0.24999   0.29821   0.00000  Uiso   1.00
Cu14   Cu    0.16667   0.25000   0.20178   0.00000  Uiso   1.00
C15    C     0.01349   0.25375   0.23103   0.00000  Uiso   1.00
C16    C     0.32032   0.25246   0.26974   0.00000  Uiso   1.00
C17    C     0.12903   0.04574   0.26072   0.00000  Uiso   1.00
C18    C     0.19328   0.45412   0.22043   0.00000  Uiso   1.00
H19    H     0.09503   0.02621   0.26437   0.00000  Uiso   1.00
H20    H     0.20885   0.47379   0.19370   0.00000  Uiso   1.00
C21    C     0.12665   0.09144   0.26104   0.00000  Uiso   1.00
C22    C     0.19381   0.40810   0.21822   0.00000  Uiso   1.00
C23    C     0.16893   0.11693   0.25038   0.00000  Uiso   1.00
C24    C     0.16542   0.38375   0.24940   0.00000  Uiso   1.00
C25    C     0.21440   0.09596   0.24292   0.00000  Uiso   1.00
C26    C     0.13717   0.40657   0.28097   0.00000  Uiso   1.00
C27    C     0.21797   0.04987   0.24980   0.00000  Uiso   1.00
C28    C     0.14807   0.45193   0.29009   0.00000  Uiso   1.00
C29    C     0.17439   0.02477   0.25732   0.00000  Uiso   1.00
C30    C     0.17373   0.47601   0.25749   0.00000  Uiso   1.00
C31    C     0.20668   0.26974   0.05988   0.00000  Uiso   1.00
C32    C     0.15226   0.21234   0.44371   0.00000  Uiso   1.00
H33    H     0.23936   0.28477   0.04671   0.00000  Uiso   1.00
H34    H     0.14170   0.18177   0.45990   0.00000  Uiso   1.00
C35    C     0.20462   0.27138   0.11004   0.00000  Uiso   1.00
C36    C     0.15032   0.21362   0.39298   0.00000  Uiso   1.00
H37    H     0.23406   0.28934   0.13367   0.00000  Uiso   1.00
H38    H     0.13673   0.18490   0.37167   0.00000  Uiso   1.00
N39    N     0.16667   0.25001   0.12934   0.00000  Uiso   1.00
N40    N     0.16667   0.24999   0.37065   0.00000  Uiso   1.00
C41    C     0.12889   0.22749   0.09899   0.00000  Uiso   1.00
C42    C     0.18543   0.28618   0.39870   0.00000  Uiso   1.00
C43    C     0.12679   0.22884   0.04782   0.00000  Uiso   1.00
C44    C     0.18295   0.28783   0.44921   0.00000  Uiso   1.00
C45    C     0.16684   0.24950   0.02740   0.00000  Uiso   1.00
C46    C     0.16721   0.25001   0.47287   0.00000  Uiso   1.00
N47    N     0.32257   0.25723   0.18161   0.00000  Uiso   1.00
O48    O     0.00199   0.28999   0.15558   0.00000  Uiso   1.00
O49    O     0.29932   0.22289   0.15959   0.00000  Uiso   1.00
N50    N     0.01151   0.25487   0.31954   0.00000  Uiso   1.00
O51    O     0.33318   0.22578   0.35052   0.00000  Uiso   1.00
O52    O     0.03492   0.29126   0.33617   0.00000  Uiso   1.00
C53    C     0.07799   0.11077   0.27305   0.00000  Uiso   1.00
C54    C     0.07218   0.10153   0.32629   0.00000  Uiso   1.00
C55    C     0.02189   0.11758   0.33922   0.00000  Uiso   1.00
H56    H     0.01244   0.14970   0.32204   0.00000  Uiso   1.00
H57    H     0.32417   0.09313   0.32678   0.00000  Uiso   1.00
H58    H     0.02457   0.12135   0.37922   0.00000  Uiso   1.00
H59    H     0.07402   0.06564   0.33374   0.00000  Uiso   1.00
H60    H     0.10414   0.11794   0.35038   0.00000  Uiso   1.00
H61    H     0.07637   0.14676   0.26650   0.00000  Uiso   1.00
H62    H     0.04566   0.09500   0.24879   0.00000  Uiso   1.00
C63    C     0.22366   0.38525   0.18250   0.00000  Uiso   1.00
C64    C     0.25820   0.41556   0.15630   0.00000  Uiso   1.00
C65    C     0.29100   0.38918   0.12659   0.00000  Uiso   1.00
H66    H     0.31928   0.37077   0.15124   0.00000  Uiso   1.00
H67    H     0.26709   0.36588   0.10141   0.00000  Uiso   1.00
H68    H     0.31189   0.41201   0.10493   0.00000  Uiso   1.00
H69    H     0.23436   0.43743   0.13106   0.00000  Uiso   1.00
H70    H     0.28386   0.43603   0.18326   0.00000  Uiso   1.00
H71    H     0.24814   0.36036   0.20271   0.00000  Uiso   1.00
H72    H     0.19618   0.36807   0.15416   0.00000  Uiso   1.00
C73    C     0.25945   0.12203   0.22853   0.00000  Uiso   1.00
C74    C     0.25813   0.12158   0.17306   0.00000  Uiso   1.00
C75    C     0.31167   0.12375   0.15888   0.00000  Uiso   1.00
H76    H     0.00259   0.14923   0.18060   0.00000  Uiso   1.00
H77    H     0.33003   0.09148   0.16510   0.00000  Uiso   1.00
H78    H     0.30941   0.13165   0.11975   0.00000  Uiso   1.00
H79    H     0.23838   0.09118   0.15646   0.00000  Uiso   1.00
H80    H     0.23637   0.15012   0.15738   0.00000  Uiso   1.00
H81    H     0.26107   0.15657   0.24203   0.00000  Uiso   1.00
H82    H     0.29509   0.10804   0.24651   0.00000  Uiso   1.00
C83    C     0.09103   0.38503   0.29910   0.00000  Uiso   1.00
C84    C     0.04161   0.40254   0.27063   0.00000  Uiso   1.00
C85    C     0.32796   0.38731   0.29237   0.00000  Uiso   1.00
H86    H     0.32012   0.35161   0.28523   0.00000  Uiso   1.00
H87    H     0.33317   0.39397   0.33209   0.00000  Uiso   1.00
H88    H     0.29448   0.40554   0.27535   0.00000  Uiso   1.00
H89    H     0.04260   0.43912   0.26978   0.00000  Uiso   1.00
H90    H     0.03774   0.39069   0.23237   0.00000  Uiso   1.00
H91    H     0.08899   0.34891   0.29382   0.00000  Uiso   1.00
H92    H     0.09297   0.39079   0.33874   0.00000  Uiso   1.00
N93    N     0.26602   0.02877   0.25141   0.00000  Uiso   1.00
O94    O     0.28343   0.00545   0.28892   0.00000  Uiso   1.00
O95    O     0.28953   0.02861   0.21357   0.00000  Uiso   1.00
N96    N     0.13622   0.47319   0.33343   0.00000  Uiso   1.00
O97    O     0.17098   0.49745   0.35981   0.00000  Uiso   1.00
O98    O     0.09049   0.47154   0.34495   0.00000  Uiso   1.00
N99    N     0.09019   0.20280   0.11851   0.00000  Uiso   1.00
O100   O     0.09937   0.16287   0.13324   0.00000  Uiso   1.00
O101   O     0.04314   0.21385   0.10682   0.00000  Uiso   1.00
N102   N     0.20951   0.32253   0.37778   0.00000  Uiso   1.00
O103   O     0.25473   0.31823   0.36599   0.00000  Uiso   1.00
O104   O     0.19124   0.36177   0.37949   0.00000  Uiso   1.00
N105   N     0.08297   0.21049   0.01718   0.00000  Uiso   1.00
O106   O     0.05655   0.23504   0.48527   0.00000  Uiso   1.00
O107   O     0.06893   0.16946   0.02147   0.00000  Uiso   1.00
N108   N     0.19566   0.32836   0.47571   0.00000  Uiso   1.00
O109   O     0.16257   0.34631   0.49937   0.00000  Uiso   1.00
O110   O     0.24034   0.34727   0.47656   0.00000  Uiso   1.00
O111   O     0.50000   0.18572   0.29071   0.00000  Uiso   1.00
O112   O     0.50000   0.31427   0.20928   0.00000  Uiso   1.00
O113   O     0.50000   0.18573   0.20928   0.00000  Uiso   1.00
O114   O     0.50000   0.31427   0.29072   0.00000  Uiso   1.00
C115   C     0.50012   0.16510   0.24991   0.00000  Uiso   1.00
C116   C     0.49936   0.33511   0.24983   0.00000  Uiso   1.00
O117   O     0.42495   0.24999   0.28132   0.00000  Uiso   1.00
O118   O     0.57505   0.25000   0.21868   0.00000  Uiso   1.00
O119   O     0.42495   0.25000   0.19988   0.00000  Uiso   1.00
O120   O     0.57505   0.25000   0.30011   0.00000  Uiso   1.00
C121   C     0.40159   0.25146   0.23776   0.00000  Uiso   1.00
C122   C     0.59858   0.25071   0.26241   0.00000  Uiso   1.00
Cu123  Cu    0.50000   0.24999   0.29821   0.00000  Uiso   1.00
Cu124  Cu    0.50000   0.25000   0.20178   0.00000  Uiso   1.00
C125   C     0.34682   0.25375   0.23103   0.00000  Uiso   1.00
C126   C     0.65365   0.25246   0.26974   0.00000  Uiso   1.00
C127   C     0.46237   0.04574   0.26072   0.00000  Uiso   1.00
C128   C     0.52661   0.45412   0.22043   0.00000  Uiso   1.00
H129   H     0.42836   0.02621   0.26437   0.00000  Uiso   1.00
H130   H     0.54218   0.47379   0.19370   0.00000  Uiso   1.00
C131   C     0.45999   0.09144   0.26104   0.00000  Uiso   1.00
C132   C     0.52714   0.40810   0.21822   0.00000  Uiso   1.00
C133   C     0.50227   0.11693   0.25038   0.00000  Uiso   1.00
C134   C     0.49875   0.38375   0.24940   0.00000  Uiso   1.00
C135   C     0.54773   0.09596   0.24292   0.00000  Uiso   1.00
C136   C     0.47050   0.40657   0.28097   0.00000  Uiso   1.00
C137   C     0.55131   0.04987   0.24980   0.00000  Uiso   1.00
C138   C     0.48140   0.45193   0.29009   0.00000  Uiso   1.00
C139   C     0.50772   0.02477   0.25732   0.00000  Uiso   1.00
C140   C     0.50707   0.47601   0.25749   0.00000  Uiso   1.00
C141   C     0.54001   0.26974   0.05988   0.00000  Uiso   1.00
C142   C     0.48559   0.21234   0.44371   0.00000  Uiso   1.00
H143   H     0.57270   0.28477   0.04671   0.00000  Uiso   1.00
H144   H     0.47503   0.18177   0.45990   0.00000  Uiso   1.00
C145   C     0.53796   0.27138   0.11004   0.00000  Uiso   1.00
C146   C     0.48365   0.21362   0.39298   0.00000  Uiso   1.00
H147   H     0.56739   0.28934   0.13367   0.00000  Uiso   1.00
H148   H     0.47006   0.18490   0.37167   0.00000  Uiso   1.00
N149   N     0.50000   0.25001   0.12934   0.00000  Uiso   1.00
N150   N     0.50000   0.24999   0.37065   0.00000  Uiso   1.00
C151   C     0.46223   0.22749   0.09899   0.00000  Uiso   1.00
C152   C     0.51876   0.28618   0.39870   0.00000  Uiso   1.00
C153   C     0.46013   0.22884   0.04782   0.00000  Uiso   1.00
C154   C     0.51629   0.28783   0.44921   0.00000  Uiso   1.00
C155   C     0.50018   0.24950   0.02740   0.00000  Uiso   1.00
C156   C     0.50054   0.25001   0.47287   0.00000  Uiso   1.00
N157   N     0.65590   0.25723   0.18161   0.00000  Uiso   1.00
O158   O     0.33532   0.28999   0.15558   0.00000  Uiso   1.00
O159   O     0.63266   0.22289   0.15959   0.00000  Uiso   1.00
N160   N     0.34484   0.25487   0.31954   0.00000  Uiso   1.00
O161   O     0.66651   0.22578   0.35052   0.00000  Uiso   1.00
O162   O     0.36825   0.29126   0.33617   0.00000  Uiso   1.00
C163   C     0.41133   0.11077   0.27305   0.00000  Uiso   1.00
C164   C     0.40552   0.10153   0.32629   0.00000  Uiso   1.00
C165   C     0.35523   0.11758   0.33922   0.00000  Uiso   1.00
H166   H     0.34578   0.14970   0.32204   0.00000  Uiso   1.00
H167   H     0.65750   0.09313   0.32678   0.00000  Uiso   1.00
H168   H     0.35790   0.12135   0.37922   0.00000  Uiso   1.00
H169   H     0.40736   0.06564   0.33374   0.00000  Uiso   1.00
H170   H     0.43747   0.11794   0.35038   0.00000  Uiso   1.00
H171   H     0.40971   0.14676   0.26650   0.00000  Uiso   1.00
H172   H     0.37899   0.09500   0.24879   0.00000  Uiso   1.00
C173   C     0.55699   0.38525   0.18250   0.00000  Uiso   1.00
C174   C     0.59153   0.41556   0.15630   0.00000  Uiso   1.00
C175   C     0.62433   0.38918   0.12659   0.00000  Uiso   1.00
H176   H     0.65261   0.37077   0.15124   0.00000  Uiso   1.00
H177   H     0.60042   0.36588   0.10141   0.00000  Uiso   1.00
H178   H     0.64522   0.41201   0.10493   0.00000  Uiso   1.00
H179   H     0.56770   0.43743   0.13106   0.00000  Uiso   1.00
H180   H     0.61719   0.43603   0.18326   0.00000  Uiso   1.00
H181   H     0.58148   0.36036   0.20271   0.00000  Uiso   1.00
H182   H     0.52952   0.36807   0.15416   0.00000  Uiso   1.00
C183   C     0.59278   0.12203   0.22853   0.00000  Uiso   1.00
C184   C     0.59147   0.12158   0.17306   0.00000  Uiso   1.00
C185   C     0.64500   0.12375   0.15888   0.00000  Uiso   1.00
H186   H     0.33592   0.14923   0.18060   0.00000  Uiso   1.00
H187   H     0.66336   0.09148   0.16510   0.00000  Uiso   1.00
H188   H     0.64274   0.13165   0.11975   0.00000  Uiso   1.00
H189   H     0.57171   0.09118   0.15646   0.00000  Uiso   1.00
H190   H     0.56971   0.15012   0.15738   0.00000  Uiso   1.00
H191   H     0.59440   0.15657   0.24203   0.00000  Uiso   1.00
H192   H     0.62843   0.10804   0.24651   0.00000  Uiso   1.00
C193   C     0.42436   0.38503   0.29910   0.00000  Uiso   1.00
C194   C     0.37494   0.40254   0.27063   0.00000  Uiso   1.00
C195   C     0.66129   0.38731   0.29237   0.00000  Uiso   1.00
H196   H     0.65346   0.35161   0.28523   0.00000  Uiso   1.00
H197   H     0.66650   0.39397   0.33209   0.00000  Uiso   1.00
H198   H     0.62781   0.40554   0.27535   0.00000  Uiso   1.00
H199   H     0.37594   0.43912   0.26978   0.00000  Uiso   1.00
H200   H     0.37107   0.39069   0.23237   0.00000  Uiso   1.00
H201   H     0.42232   0.34891   0.29382   0.00000  Uiso   1.00
H202   H     0.42631   0.39079   0.33874   0.00000  Uiso   1.00
N203   N     0.59935   0.02877   0.25141   0.00000  Uiso   1.00
O204   O     0.61677   0.00545   0.28892   0.00000  Uiso   1.00
O205   O     0.62287   0.02861   0.21357   0.00000  Uiso   1.00
N206   N     0.46955   0.47319   0.33343   0.00000  Uiso   1.00
O207   O     0.50432   0.49745   0.35981   0.00000  Uiso   1.00
O208   O     0.42383   0.47154   0.34495   0.00000  Uiso   1.00
N209   N     0.42353   0.20280   0.11851   0.00000  Uiso   1.00
O210   O     0.43270   0.16287   0.13324   0.00000  Uiso   1.00
O211   O     0.37647   0.21385   0.10682   0.00000  Uiso   1.00
N212   N     0.54285   0.32253   0.37778   0.00000  Uiso   1.00
O213   O     0.58806   0.31823   0.36599   0.00000  Uiso   1.00
O214   O     0.52458   0.36177   0.37949   0.00000  Uiso   1.00
N215   N     0.41631   0.21049   0.01718   0.00000  Uiso   1.00
O216   O     0.38988   0.23504   0.48527   0.00000  Uiso   1.00
O217   O     0.40227   0.16946   0.02147   0.00000  Uiso   1.00
N218   N     0.52899   0.32836   0.47571   0.00000  Uiso   1.00
O219   O     0.49590   0.34631   0.49937   0.00000  Uiso   1.00
O220   O     0.57368   0.34727   0.47656   0.00000  Uiso   1.00
O221   O     0.83334   0.18572   0.29071   0.00000  Uiso   1.00
O222   O     0.83333   0.31427   0.20928   0.00000  Uiso   1.00
O223   O     0.83334   0.18573   0.20928   0.00000  Uiso   1.00
O224   O     0.83333   0.31427   0.29072   0.00000  Uiso   1.00
C225   C     0.83346   0.16510   0.24991   0.00000  Uiso   1.00
C226   C     0.83269   0.33511   0.24983   0.00000  Uiso   1.00
O227   O     0.75828   0.24999   0.28132   0.00000  Uiso   1.00
O228   O     0.90839   0.25000   0.21868   0.00000  Uiso   1.00
O229   O     0.75828   0.25000   0.19988   0.00000  Uiso   1.00
O230   O     0.90839   0.25000   0.30011   0.00000  Uiso   1.00
C231   C     0.73493   0.25146   0.23776   0.00000  Uiso   1.00
C232   C     0.93192   0.25071   0.26241   0.00000  Uiso   1.00
Cu233  Cu    0.83333   0.24999   0.29821   0.00000  Uiso   1.00
Cu234  Cu    0.83333   0.25000   0.20178   0.00000  Uiso   1.00
C235   C     0.68015   0.25375   0.23103   0.00000  Uiso   1.00
C236   C     0.98698   0.25246   0.26974   0.00000  Uiso   1.00
C237   C     0.79570   0.04574   0.26072   0.00000  Uiso   1.00
C238   C     0.85995   0.45412   0.22043   0.00000  Uiso   1.00
H239   H     0.76170   0.02621   0.26437   0.00000  Uiso   1.00
H240   H     0.87551   0.47379   0.19370   0.00000  Uiso   1.00
C241   C     0.79332   0.09144   0.26104   0.00000  Uiso   1.00
C242   C     0.86047   0.40810   0.21822   0.00000  Uiso   1.00
C243   C     0.83560   0.11693   0.25038   0.00000  Uiso   1.00
C244   C     0.83208   0.38375   0.24940   0.00000  Uiso   1.00
C245   C     0.88107   0.09596   0.24292   0.00000  Uiso   1.00
C246   C     0.80384   0.40657   0.28097   0.00000  Uiso   1.00
C247   C     0.88464   0.04987   0.24980   0.00000  Uiso   1.00
C248   C     0.81473   0.45193   0.29009   0.00000  Uiso   1.00
C249   C     0.84106   0.02477   0.25732   0.00000  Uiso   1.00
C250   C     0.84040   0.47601   0.25749   0.00000  Uiso   1.00
C251   C     0.87335   0.26974   0.05988   0.00000  Uiso   1.00
C252   C     0.81893   0.21234   0.44371   0.00000  Uiso   1.00
H253   H     0.90603   0.28477   0.04671   0.00000  Uiso   1.00
H254   H     0.80837   0.18177   0.45990   0.00000  Uiso   1.00
C255   C     0.87129   0.27138   0.11004   0.00000  Uiso   1.00
C256   C     0.81699   0.21362   0.39298   0.00000  Uiso   1.00
H257   H     0.90072   0.28934   0.13367   0.00000  Uiso   1.00
H258   H     0.80339   0.18490   0.37167   0.00000  Uiso   1.00
N259   N     0.83333   0.25001   0.12934   0.00000  Uiso   1.00
N260   N     0.83333   0.24999   0.37065   0.00000  Uiso   1.00
C261   C     0.79556   0.22749   0.09899   0.00000  Uiso   1.00
C262   C     0.85209   0.28618   0.39870   0.00000  Uiso   1.00
C263   C     0.79346   0.22884   0.04782   0.00000  Uiso   1.00
C264   C     0.84962   0.28783   0.44921   0.00000  Uiso   1.00
C265   C     0.83351   0.24950   0.02740   0.00000  Uiso   1.00
C266   C     0.83388   0.25001   0.47287   0.00000  Uiso   1.00
N267   N     0.98923   0.25723   0.18161   0.00000  Uiso   1.00
O268   O     0.66865   0.28999   0.15558   0.00000  Uiso   1.00
O269   O     0.96599   0.22289   0.15959   0.00000  Uiso   1.00
N270   N     0.67818   0.25487   0.31954   0.00000  Uiso   1.00
O271   O     0.99984   0.22578   0.35052   0.00000  Uiso   1.00
O272   O     0.70158   0.29126   0.33617   0.00000  Uiso   1.00
C273   C     0.74466   0.11077   0.27305   0.00000  Uiso   1.00
C274   C     0.73885   0.10153   0.32629   0.00000  Uiso   1.00
C275   C     0.68856   0.11758   0.33922   0.00000  Uiso   1.00
H276   H     0.67911   0.14970   0.32204   0.00000  Uiso   1.00
H277   H     0.99084   0.09313   0.32678   0.00000  Uiso   1.00
H278   H     0.69124   0.12135   0.37922   0.00000  Uiso   1.00
H279   H     0.74069   0.06564   0.33374   0.00000  Uiso   1.00
H280   H     0.77080   0.11794   0.35038   0.00000  Uiso   1.00
H281   H     0.74304   0.14676   0.26650   0.00000  Uiso   1.00
H282   H     0.71233   0.09500   0.24879   0.00000  Uiso   1.00
C283   C     0.89033   0.38525   0.18250   0.00000  Uiso   1.00
C284   C     0.92486   0.41556   0.15630   0.00000  Uiso   1.00
C285   C     0.95766   0.38918   0.12659   0.00000  Uiso   1.00
H286   H     0.98595   0.37077   0.15124   0.00000  Uiso   1.00
H287   H     0.93375   0.36588   0.10141   0.00000  Uiso   1.00
H288   H     0.97856   0.41201   0.10493   0.00000  Uiso   1.00
H289   H     0.90103   0.43743   0.13106   0.00000  Uiso   1.00
H290   H     0.95052   0.43603   0.18326   0.00000  Uiso   1.00
H291   H     0.91481   0.36036   0.20271   0.00000  Uiso   1.00
H292   H     0.86285   0.36807   0.15416   0.00000  Uiso   1.00
C293   C     0.92611   0.12203   0.22853   0.00000  Uiso   1.00
C294   C     0.92480   0.12158   0.17306   0.00000  Uiso   1.00
C295   C     0.97833   0.12375   0.15888   0.00000  Uiso   1.00
H296   H     0.66926   0.14923   0.18060   0.00000  Uiso   1.00
H297   H     0.99670   0.09148   0.16510   0.00000  Uiso   1.00
H298   H     0.97608   0.13165   0.11975   0.00000  Uiso   1.00
H299   H     0.90504   0.09118   0.15646   0.00000  Uiso   1.00
H300   H     0.90304   0.15012   0.15738   0.00000  Uiso   1.00
H301   H     0.92774   0.15657   0.24203   0.00000  Uiso   1.00
H302   H     0.96176   0.10804   0.24651   0.00000  Uiso   1.00
C303   C     0.75769   0.38503   0.29910   0.00000  Uiso   1.00
C304   C     0.70827   0.40254   0.27063   0.00000  Uiso   1.00
C305   C     0.99462   0.38731   0.29237   0.00000  Uiso   1.00
H306   H     0.98679   0.35161   0.28523   0.00000  Uiso   1.00
H307   H     0.99983   0.39397   0.33209   0.00000  Uiso   1.00
H308   H     0.96115   0.40554   0.27535   0.00000  Uiso   1.00
H309   H     0.70927   0.43912   0.26978   0.00000  Uiso   1.00
H310   H     0.70440   0.39069   0.23237   0.00000  Uiso   1.00
H311   H     0.75566   0.34891   0.29382   0.00000  Uiso   1.00
H312   H     0.75964   0.39079   0.33874   0.00000  Uiso   1.00
N313   N     0.93268   0.02877   0.25141   0.00000  Uiso   1.00
O314   O     0.95010   0.00545   0.28892   0.00000  Uiso   1.00
O315   O     0.95620   0.02861   0.21357   0.00000  Uiso   1.00
N316   N     0.80289   0.47319   0.33343   0.00000  Uiso   1.00
O317   O     0.83765   0.49745   0.35981   0.00000  Uiso   1.00
O318   O     0.75716   0.47154   0.34495   0.00000  Uiso   1.00
N319   N     0.75686   0.20280   0.11851   0.00000  Uiso   1.00
O320   O     0.76604   0.16287   0.13324   0.00000  Uiso   1.00
O321   O     0.70980   0.21385   0.10682   0.00000  Uiso   1.00
N322   N     0.87618   0.32253   0.37778   0.00000  Uiso   1.00
O323   O     0.92140   0.31823   0.36599   0.00000  Uiso   1.00
O324   O     0.85791   0.36177   0.37949   0.00000  Uiso   1.00
N325   N     0.74964   0.21049   0.01718   0.00000  Uiso   1.00
O326   O     0.72322   0.23504   0.48527   0.00000  Uiso   1.00
O327   O     0.73560   0.16946   0.02147   0.00000  Uiso   1.00
N328   N     0.86232   0.32836   0.47571   0.00000  Uiso   1.00
O329   O     0.82923   0.34631   0.49937   0.00000  Uiso   1.00
O330   O     0.90701   0.34727   0.47656   0.00000  Uiso   1.00
O331   O     0.16667   0.68572   0.29071   0.00000  Uiso   1.00
O332   O     0.16666   0.81427   0.20928   0.00000  Uiso   1.00
O333   O     0.16667   0.68573   0.20928   0.00000  Uiso   1.00
O334   O     0.16666   0.81427   0.29072   0.00000  Uiso   1.00
C335   C     0.16679   0.66510   0.24991   0.00000  Uiso   1.00
C336   C     0.16603   0.83511   0.24983   0.00000  Uiso   1.00
O337   O     0.09161   0.74999   0.28132   0.00000  Uiso   1.00
O338   O     0.24172   0.75000   0.21868   0.00000  Uiso   1.00
O339   O     0.09161   0.75000   0.19988   0.00000  Uiso   1.00
O340   O     0.24172   0.75000   0.30011   0.00000  Uiso   1.00
C341   C     0.06826   0.75146   0.23776   0.00000  Uiso   1.00
C342   C     0.26525   0.75071   0.26241   0.00000  Uiso   1.00
Cu343  Cu    0.16667   0.74999   0.29821   0.00000  Uiso   1.00
Cu344  Cu    0.16667   0.75000   0.20178   0.00000  Uiso   1.00
C345   C     0.01349   0.75375   0.23103   0.00000  Uiso   1.00
C346   C     0.32032   0.75246   0.26974   0.00000  Uiso   1.00
C347   C     0.12903   0.54574   0.26072   0.00000  Uiso   1.00
C348   C     0.19328   0.95412   0.22043   0.00000  Uiso   1.00
H349   H     0.09503   0.52621   0.26437   0.00000  Uiso   1.00
H350   H     0.20885   0.97379   0.19370   0.00000  Uiso   1.00
C351   C     0.12665   0.59144   0.26104   0.00000  Uiso   1.00
C352   C     0.19381   0.90810   0.21822   0.00000  Uiso   1.00
C353   C     0.16893   0.61693   0.25038   0.00000  Uiso   1.00
C354   C     0.16542   0.88375   0.24940   0.00000  Uiso   1.00
C355   C     0.21440   0.59596   0.24292   0.00000  Uiso   1.00
C356   C     0.13717   0.90657   0.28097   0.00000  Uiso   1.00
C357   C     0.21797   0.54987   0.24980   0.00000  Uiso   1.00
C358   C     0.14807   0.95193   0.29009   0.00000  Uiso   1.00
C359   C     0.17439   0.52477   0.25732   0.00000  Uiso   1.00
C360   C     0.17373   0.97601   0.25749   0.00000  Uiso   1.00
C361   C     0.20668   0.76974   0.05988   0.00000  Uiso   1.00
C362   C     0.15226   0.71234   0.44371   0.00000  Uiso   1.00
H363   H     0.23936   0.78477   0.04671   0.00000  Uiso   1.00
H364   H     0.14170   0.68177   0.45990   0.00000  Uiso   1.00
C365   C     0.20462   0.77138   0.11004   0.00000  Uiso   1.00
C366   C     0.15032   0.71362   0.39298   0.00000  Uiso   1.00
H367   H     0.23406   0.78934   0.13367   0.00000  Uiso   1.00
H368   H     0.13673   0.68490   0.37167   0.00000  Uiso   1.00
N369   N     0.16667   0.75001   0.12934   0.00000  Uiso   1.00
N370   N     0.16667   0.74999   0.37065   0.00000  Uiso   1.00
C371   C     0.12889   0.72749   0.09899   0.00000  Uiso   1.00
C372   C     0.18543   0.78618   0.39870   0.00000  Uiso   1.00
C373   C     0.12679   0.72884   0.04782   0.00000  Uiso   1.00
C374   C     0.18295   0.78783   0.44921   0.00000  Uiso   1.00
C375   C     0.16684   0.74950   0.02740   0.00000  Uiso   1.00
C376   C     0.16721   0.75001   0.47287   0.00000  Uiso   1.00
N377   N     0.32257   0.75723   0.18161   0.00000  Uiso   1.00
O378   O     0.00199   0.78999   0.15558   0.00000  Uiso   1.00
O379   O     0.29932   0.72289   0.15959   0.00000  Uiso   1.00
N380   N     0.01151   0.75487   0.31954   0.00000  Uiso   1.00
O381   O     0.33318   0.72578   0.35052   0.00000  Uiso   1.00
O382   O     0.03492   0.79126   0.33617   0.00000  Uiso   1.00
C383   C     0.07799   0.61077   0.27305   0.00000  Uiso   1.00
C384   C     0.07218   0.60153   0.32629   0.00000  Uiso   1.00
C385   C     0.02189   0.61758   0.33922   0.00000  Uiso   1.00
H386   H     0.01244   0.64970   0.32204   0.00000  Uiso   1.00
H387   H     0.32417   0.59313   0.32678   0.00000  Uiso   1.00
H388   H     0.02457   0.62135   0.37922   0.00000  Uiso   1.00
H389   H     0.07402   0.56564   0.33374   0.00000  Uiso   1.00
H390   H     0.10414   0.61794   0.35038   0.00000  Uiso   1.00
H391   H     0.07637   0.64676   0.26650   0.00000  Uiso   1.00
H392   H     0.04566   0.59500   0.24879   0.00000  Uiso   1.00
C393   C     0.22366   0.88525   0.18250   0.00000  Uiso   1.00
C394   C     0.25820   0.91556   0.15630   0.00000  Uiso   1.00
C395   C     0.29100   0.88918   0.12659   0.00000  Uiso   1.00
H396   H     0.31928   0.87077   0.15124   0.00000  Uiso   1.00
H397   H     0.26709   0.86588   0.10141   0.00000  Uiso   1.00
H398   H     0.31189   0.91201   0.10493   0.00000  Uiso   1.00
H399   H     0.23436   0.93743   0.13106   0.00000  Uiso   1.00
H400   H     0.28386   0.93603   0.18326   0.00000  Uiso   1.00
H401   H     0.24814   0.86036   0.20271   0.00000  Uiso   1.00
H402   H     0.19618   0.86807   0.15416   0.00000  Uiso   1.00
C403   C     0.25945   0.62203   0.22853   0.00000  Uiso   1.00
C404   C     0.25813   0.62158   0.17306   0.00000  Uiso   1.00
C405   C     0.31167   0.62375   0.15888   0.00000  Uiso   1.00
H406   H     0.00259   0.64923   0.18060   0.00000  Uiso   1.00
H407   H     0.33003   0.59148   0.16510   0.00000  Uiso   1.00
H408   H     0.30941   0.63165   0.11975   0.00000  Uiso   1.00
H409   H     0.23838   0.59118   0.15646   0.00000  Uiso   1.00
H410   H     0.23637   0.65012   0.15738   0.00000  Uiso   1.00
H411   H     0.26107   0.65657   0.24203   0.00000  Uiso   1.00
H412   H     0.29509   0.60804   0.24651   0.00000  Uiso   1.00
C413   C     0.09103   0.88503   0.29910   0.00000  Uiso   1.00
C414   C     0.04161   0.90254   0.27063   0.00000  Uiso   1.00
C415   C     0.32796   0.88731   0.29237   0.00000  Uiso   1.00
H416   H     0.32012   0.85161   0.28523   0.00000  Uiso   1.00
H417   H     0.33317   0.89397   0.33209   0.00000  Uiso   1.00
H418   H     0.29448   0.90554   0.27535   0.00000  Uiso   1.00
H419   H     0.04260   0.93912   0.26978   0.00000  Uiso   1.00
H420   H     0.03774   0.89069   0.23237   0.00000  Uiso   1.00
H421   H     0.08899   0.84891   0.29382   0.00000  Uiso   1.00
H422   H     0.09297   0.89079   0.33874   0.00000  Uiso   1.00
N423   N     0.26602   0.52877   0.25141   0.00000  Uiso   1.00
O424   O     0.28343   0.50545   0.28892   0.00000  Uiso   1.00
O425   O     0.28953   0.52861   0.21357   0.00000  Uiso   1.00
N426   N     0.13622   0.97319   0.33343   0.00000  Uiso   1.00
O427   O     0.17098   0.99745   0.35981   0.00000  Uiso   1.00
O428   O     0.09049   0.97154   0.34495   0.00000  Uiso   1.00
N429   N     0.09019   0.70280   0.11851   0.00000  Uiso   1.00
O430   O     0.09937   0.66287   0.13324   0.00000  Uiso   1.00
O431   O     0.04314   0.71385   0.10682   0.00000  Uiso   1.00
N432   N     0.20951   0.82253   0.37778   0.00000  Uiso   1.00
O433   O     0.25473   0.81823   0.36599   0.00000  Uiso   1.00
O434   O     0.19124   0.86177   0.37949   0.00000  Uiso   1.00
N435   N     0.08297   0.71049   0.01718   0.00000  Uiso   1.00
O436   O     0.05655   0.73504   0.48527   0.00000  Uiso   1.00
O437   O     0.06893   0.66946   0.02147   0.00000  Uiso   1.00
N438   N     0.19566   0.82836   0.47571   0.00000  Uiso   1.00
O439   O     0.16257   0.84631   0.49937   0.00000  Uiso   1.00
O440   O     0.24034   0.84727   0.47656   0.00000  Uiso   1.00
O441   O     0.50000   0.68572   0.29071   0.00000  Uiso   1.00
O442   O     0.50000   0.81427   0.20928   0.00000  Uiso   1.00
O443   O     0.50000   0.68573   0.20928   0.00000  Uiso   1.00
O444   O     0.50000   0.81427   0.29072   0.00000  Uiso   1.00
C445   C     0.50012   0.66510   0.24991   0.00000  Uiso   1.00
C446   C     0.49936   0.83511   0.24983   0.00000  Uiso   1.00
O447   O     0.42495   0.74999   0.28132   0.00000  Uiso   1.00
O448   O     0.57505   0.75000   0.21868   0.00000  Uiso   1.00
O449   O     0.42495   0.75000   0.19988   0.00000  Uiso   1.00
O450   O     0.57505   0.75000   0.30011   0.00000  Uiso   1.00
C451   C     0.40159   0.75146   0.23776   0.00000  Uiso   1.00
C452   C     0.59858   0.75071   0.26241   0.00000  Uiso   1.00
Cu453  Cu    0.50000   0.74999   0.29821   0.00000  Uiso   1.00
Cu454  Cu    0.50000   0.75000   0.20178   0.00000  Uiso   1.00
C455   C     0.34682   0.75375   0.23103   0.00000  Uiso   1.00
C456   C     0.65365   0.75246   0.26974   0.00000  Uiso   1.00
C457   C     0.46237   0.54574   0.26072   0.00000  Uiso   1.00
C458   C     0.52661   0.95412   0.22043   0.00000  Uiso   1.00
H459   H     0.42836   0.52621   0.26437   0.00000  Uiso   1.00
H460   H     0.54218   0.97379   0.19370   0.00000  Uiso   1.00
C461   C     0.45999   0.59144   0.26104   0.00000  Uiso   1.00
C462   C     0.52714   0.90810   0.21822   0.00000  Uiso   1.00
C463   C     0.50227   0.61693   0.25038   0.00000  Uiso   1.00
C464   C     0.49875   0.88375   0.24940   0.00000  Uiso   1.00
C465   C     0.54773   0.59596   0.24292   0.00000  Uiso   1.00
C466   C     0.47050   0.90657   0.28097   0.00000  Uiso   1.00
C467   C     0.55131   0.54987   0.24980   0.00000  Uiso   1.00
C468   C     0.48140   0.95193   0.29009   0.00000  Uiso   1.00
C469   C     0.50772   0.52477   0.25732   0.00000  Uiso   1.00
C470   C     0.50707   0.97601   0.25749   0.00000  Uiso   1.00
C471   C     0.54001   0.76974   0.05988   0.00000  Uiso   1.00
C472   C     0.48559   0.71234   0.44371   0.00000  Uiso   1.00
H473   H     0.57270   0.78477   0.04671   0.00000  Uiso   1.00
H474   H     0.47503   0.68177   0.45990   0.00000  Uiso   1.00
C475   C     0.53796   0.77138   0.11004   0.00000  Uiso   1.00
C476   C     0.48365   0.71362   0.39298   0.00000  Uiso   1.00
H477   H     0.56739   0.78934   0.13367   0.00000  Uiso   1.00
H478   H     0.47006   0.68490   0.37167   0.00000  Uiso   1.00
N479   N     0.50000   0.75001   0.12934   0.00000  Uiso   1.00
N480   N     0.50000   0.74999   0.37065   0.00000  Uiso   1.00
C481   C     0.46223   0.72749   0.09899   0.00000  Uiso   1.00
C482   C     0.51876   0.78618   0.39870   0.00000  Uiso   1.00
C483   C     0.46013   0.72884   0.04782   0.00000  Uiso   1.00
C484   C     0.51629   0.78783   0.44921   0.00000  Uiso   1.00
C485   C     0.50018   0.74950   0.02740   0.00000  Uiso   1.00
C486   C     0.50054   0.75001   0.47287   0.00000  Uiso   1.00
N487   N     0.65590   0.75723   0.18161   0.00000  Uiso   1.00
O488   O     0.33532   0.78999   0.15558   0.00000  Uiso   1.00
O489   O     0.63266   0.72289   0.15959   0.00000  Uiso   1.00
N490   N     0.34484   0.75487   0.31954   0.00000  Uiso   1.00
O491   O     0.66651   0.72578   0.35052   0.00000  Uiso   1.00
O492   O     0.36825   0.79126   0.33617   0.00000  Uiso   1.00
C493   C     0.41133   0.61077   0.27305   0.00000  Uiso   1.00
C494   C     0.40552   0.60153   0.32629   0.00000  Uiso   1.00
C495   C     0.35523   0.61758   0.33922   0.00000  Uiso   1.00
H496   H     0.34578   0.64970   0.32204   0.00000  Uiso   1.00
H497   H     0.65750   0.59313   0.32678   0.00000  Uiso   1.00
H498   H     0.35790   0.62135   0.37922   0.00000  Uiso   1.00
H499   H     0.40736   0.56564   0.33374   0.00000  Uiso   1.00
H500   H     0.43747   0.61794   0.35038   0.00000  Uiso   1.00
H501   H     0.40971   0.64676   0.26650   0.00000  Uiso   1.00
H502   H     0.37899   0.59500   0.24879   0.00000  Uiso   1.00
C503   C     0.55699   0.88525   0.18250   0.00000  Uiso   1.00
C504   C     0.59153   0.91556   0.15630   0.00000  Uiso   1.00
C505   C     0.62433   0.88918   0.12659   0.00000  Uiso   1.00
H506   H     0.65261   0.87077   0.15124   0.00000  Uiso   1.00
H507   H     0.60042   0.86588   0.10141   0.00000  Uiso   1.00
H508   H     0.64522   0.91201   0.10493   0.00000  Uiso   1.00
H509   H     0.56770   0.93743   0.13106   0.00000  Uiso   1.00
H510   H     0.61719   0.93603   0.18326   0.00000  Uiso   1.00
H511   H     0.58148   0.86036   0.20271   0.00000  Uiso   1.00
H512   H     0.52952   0.86807   0.15416   0.00000  Uiso   1.00
C513   C     0.59278   0.62203   0.22853   0.00000  Uiso   1.00
C514   C     0.59147   0.62158   0.17306   0.00000  Uiso   1.00
C515   C     0.64500   0.62375   0.15888   0.00000  Uiso   1.00
H516   H     0.33592   0.64923   0.18060   0.00000  Uiso   1.00
H517   H     0.66336   0.59148   0.16510   0.00000  Uiso   1.00
H518   H     0.64274   0.63165   0.11975   0.00000  Uiso   1.00
H519   H     0.57171   0.59118   0.15646   0.00000  Uiso   1.00
H520   H     0.56971   0.65012   0.15738   0.00000  Uiso   1.00
H521   H     0.59440   0.65657   0.24203   0.00000  Uiso   1.00
H522   H     0.62843   0.60804   0.24651   0.00000  Uiso   1.00
C523   C     0.42436   0.88503   0.29910   0.00000  Uiso   1.00
C524   C     0.37494   0.90254   0.27063   0.00000  Uiso   1.00
C525   C     0.66129   0.88731   0.29237   0.00000  Uiso   1.00
H526   H     0.65346   0.85161   0.28523   0.00000  Uiso   1.00
H527   H     0.66650   0.89397   0.33209   0.00000  Uiso   1.00
H528   H     0.62781   0.90554   0.27535   0.00000  Uiso   1.00
H529   H     0.37594   0.93912   0.26978   0.00000  Uiso   1.00
H530   H     0.37107   0.89069   0.23237   0.00000  Uiso   1.00
H531   H     0.42232   0.84891   0.29382   0.00000  Uiso   1.00
H532   H     0.42631   0.89079   0.33874   0.00000  Uiso   1.00
N533   N     0.59935   0.52877   0.25141   0.00000  Uiso   1.00
O534   O     0.61677   0.50545   0.28892   0.00000  Uiso   1.00
O535   O     0.62287   0.52861   0.21357   0.00000  Uiso   1.00
N536   N     0.46955   0.97319   0.33343   0.00000  Uiso   1.00
O537   O     0.50432   0.99745   0.35981   0.00000  Uiso   1.00
O538   O     0.42383   0.97154   0.34495   0.00000  Uiso   1.00
N539   N     0.42353   0.70280   0.11851   0.00000  Uiso   1.00
O540   O     0.43270   0.66287   0.13324   0.00000  Uiso   1.00
O541   O     0.37647   0.71385   0.10682   0.00000  Uiso   1.00
N542   N     0.54285   0.82253   0.37778   0.00000  Uiso   1.00
O543   O     0.58806   0.81823   0.36599   0.00000  Uiso   1.00
O544   O     0.52458   0.86177   0.37949   0.00000  Uiso   1.00
N545   N     0.41631   0.71049   0.01718   0.00000  Uiso   1.00
O546   O     0.38988   0.73504   0.48527   0.00000  Uiso   1.00
O547   O     0.40227   0.66946   0.02147   0.00000  Uiso   1.00
N548   N     0.52899   0.82836   0.47571   0.00000  Uiso   1.00
O549   O     0.49590   0.84631   0.49937   0.00000  Uiso   1.00
O550   O     0.57368   0.84727   0.47656   0.00000  Uiso   1.00
O551   O     0.83334   0.68572   0.29071   0.00000  Uiso   1.00
O552   O     0.83333   0.81427   0.20928   0.00000  Uiso   1.00
O553   O     0.83334   0.68573   0.20928   0.00000  Uiso   1.00
O554   O     0.83333   0.81427   0.29072   0.00000  Uiso   1.00
C555   C     0.83346   0.66510   0.24991   0.00000  Uiso   1.00
C556   C     0.83269   0.83511   0.24983   0.00000  Uiso   1.00
O557   O     0.75828   0.74999   0.28132   0.00000  Uiso   1.00
O558   O     0.90839   0.75000   0.21868   0.00000  Uiso   1.00
O559   O     0.75828   0.75000   0.19988   0.00000  Uiso   1.00
O560   O     0.90839   0.75000   0.30011   0.00000  Uiso   1.00
C561   C     0.73493   0.75146   0.23776   0.00000  Uiso   1.00
C562   C     0.93192   0.75071   0.26241   0.00000  Uiso   1.00
Cu563  Cu    0.83333   0.74999   0.29821   0.00000  Uiso   1.00
Cu564  Cu    0.83333   0.75000   0.20178   0.00000  Uiso   1.00
C565   C     0.68015   0.75375   0.23103   0.00000  Uiso   1.00
C566   C     0.98698   0.75246   0.26974   0.00000  Uiso   1.00
C567   C     0.79570   0.54574   0.26072   0.00000  Uiso   1.00
C568   C     0.85995   0.95412   0.22043   0.00000  Uiso   1.00
H569   H     0.76170   0.52621   0.26437   0.00000  Uiso   1.00
H570   H     0.87551   0.97379   0.19370   0.00000  Uiso   1.00
C571   C     0.79332   0.59144   0.26104   0.00000  Uiso   1.00
C572   C     0.86047   0.90810   0.21822   0.00000  Uiso   1.00
C573   C     0.83560   0.61693   0.25038   0.00000  Uiso   1.00
C574   C     0.83208   0.88375   0.24940   0.00000  Uiso   1.00
C575   C     0.88107   0.59596   0.24292   0.00000  Uiso   1.00
C576   C     0.80384   0.90657   0.28097   0.00000  Uiso   1.00
C577   C     0.88464   0.54987   0.24980   0.00000  Uiso   1.00
C578   C     0.81473   0.95193   0.29009   0.00000  Uiso   1.00
C579   C     0.84106   0.52477   0.25732   0.00000  Uiso   1.00
C580   C     0.84040   0.97601   0.25749   0.00000  Uiso   1.00
C581   C     0.87335   0.76974   0.05988   0.00000  Uiso   1.00
C582   C     0.81893   0.71234   0.44371   0.00000  Uiso   1.00
H583   H     0.90603   0.78477   0.04671   0.00000  Uiso   1.00
H584   H     0.80837   0.68177   0.45990   0.00000  Uiso   1.00
C585   C     0.87129   0.77138   0.11004   0.00000  Uiso   1.00
C586   C     0.81699   0.71362   0.39298   0.00000  Uiso   1.00
H587   H     0.90072   0.78934   0.13367   0.00000  Uiso   1.00
H588   H     0.80339   0.68490   0.37167   0.00000  Uiso   1.00
N589   N     0.83333   0.75001   0.12934   0.00000  Uiso   1.00
N590   N     0.83333   0.74999   0.37065   0.00000  Uiso   1.00
C591   C     0.79556   0.72749   0.09899   0.00000  Uiso   1.00
C592   C     0.85209   0.78618   0.39870   0.00000  Uiso   1.00
C593   C     0.79346   0.72884   0.04782   0.00000  Uiso   1.00
C594   C     0.84962   0.78783   0.44921   0.00000  Uiso   1.00
C595   C     0.83351   0.74950   0.02740   0.00000  Uiso   1.00
C596   C     0.83388   0.75001   0.47287   0.00000  Uiso   1.00
N597   N     0.98923   0.75723   0.18161   0.00000  Uiso   1.00
O598   O     0.66865   0.78999   0.15558   0.00000  Uiso   1.00
O599   O     0.96599   0.72289   0.15959   0.00000  Uiso   1.00
N600   N     0.67818   0.75487   0.31954   0.00000  Uiso   1.00
O601   O     0.99984   0.72578   0.35052   0.00000  Uiso   1.00
O602   O     0.70158   0.79126   0.33617   0.00000  Uiso   1.00
C603   C     0.74466   0.61077   0.27305   0.00000  Uiso   1.00
C604   C     0.73885   0.60153   0.32629   0.00000  Uiso   1.00
C605   C     0.68856   0.61758   0.33922   0.00000  Uiso   1.00
H606   H     0.67911   0.64970   0.32204   0.00000  Uiso   1.00
H607   H     0.99084   0.59313   0.32678   0.00000  Uiso   1.00
H608   H     0.69124   0.62135   0.37922   0.00000  Uiso   1.00
H609   H     0.74069   0.56564   0.33374   0.00000  Uiso   1.00
H610   H     0.77080   0.61794   0.35038   0.00000  Uiso   1.00
H611   H     0.74304   0.64676   0.26650   0.00000  Uiso   1.00
H612   H     0.71233   0.59500   0.24879   0.00000  Uiso   1.00
C613   C     0.89033   0.88525   0.18250   0.00000  Uiso   1.00
C614   C     0.92486   0.91556   0.15630   0.00000  Uiso   1.00
C615   C     0.95766   0.88918   0.12659   0.00000  Uiso   1.00
H616   H     0.98595   0.87077   0.15124   0.00000  Uiso   1.00
H617   H     0.93375   0.86588   0.10141   0.00000  Uiso   1.00
H618   H     0.97856   0.91201   0.10493   0.00000  Uiso   1.00
H619   H     0.90103   0.93743   0.13106   0.00000  Uiso   1.00
H620   H     0.95052   0.93603   0.18326   0.00000  Uiso   1.00
H621   H     0.91481   0.86036   0.20271   0.00000  Uiso   1.00
H622   H     0.86285   0.86807   0.15416   0.00000  Uiso   1.00
C623   C     0.92611   0.62203   0.22853   0.00000  Uiso   1.00
C624   C     0.92480   0.62158   0.17306   0.00000  Uiso   1.00
C625   C     0.97833   0.62375   0.15888   0.00000  Uiso   1.00
H626   H     0.66926   0.64923   0.18060   0.00000  Uiso   1.00
H627   H     0.99670   0.59148   0.16510   0.00000  Uiso   1.00
H628   H     0.97608   0.63165   0.11975   0.00000  Uiso   1.00
H629   H     0.90504   0.59118   0.15646   0.00000  Uiso   1.00
H630   H     0.90304   0.65012   0.15738   0.00000  Uiso   1.00
H631   H     0.92774   0.65657   0.24203   0.00000  Uiso   1.00
H632   H     0.96176   0.60804   0.24651   0.00000  Uiso   1.00
C633   C     0.75769   0.88503   0.29910   0.00000  Uiso   1.00
C634   C     0.70827   0.90254   0.27063   0.00000  Uiso   1.00
C635   C     0.99462   0.88731   0.29237   0.00000  Uiso   1.00
H636   H     0.98679   0.85161   0.28523   0.00000  Uiso   1.00
H637   H     0.99983   0.89397   0.33209   0.00000  Uiso   1.00
H638   H     0.96115   0.90554   0.27535   0.00000  Uiso   1.00
H639   H     0.70927   0.93912   0.26978   0.00000  Uiso   1.00
H640   H     0.70440   0.89069   0.23237   0.00000  Uiso   1.00
H641   H     0.75566   0.84891   0.29382   0.00000  Uiso   1.00
H642   H     0.75964   0.89079   0.33874   0.00000  Uiso   1.00
N643   N     0.93268   0.52877   0.25141   0.00000  Uiso   1.00
O644   O     0.95010   0.50545   0.28892   0.00000  Uiso   1.00
O645   O     0.95620   0.52861   0.21357   0.00000  Uiso   1.00
N646   N     0.80289   0.97319   0.33343   0.00000  Uiso   1.00
O647   O     0.83765   0.99745   0.35981   0.00000  Uiso   1.00
O648   O     0.75716   0.97154   0.34495   0.00000  Uiso   1.00
N649   N     0.75686   0.70280   0.11851   0.00000  Uiso   1.00
O650   O     0.76604   0.66287   0.13324   0.00000  Uiso   1.00
O651   O     0.70980   0.71385   0.10682   0.00000  Uiso   1.00
N652   N     0.87618   0.82253   0.37778   0.00000  Uiso   1.00
O653   O     0.92140   0.81823   0.36599   0.00000  Uiso   1.00
O654   O     0.85791   0.86177   0.37949   0.00000  Uiso   1.00
N655   N     0.74964   0.71049   0.01718   0.00000  Uiso   1.00
O656   O     0.72322   0.73504   0.48527   0.00000  Uiso   1.00
O657   O     0.73560   0.66946   0.02147   0.00000  Uiso   1.00
N658   N     0.86232   0.82836   0.47571   0.00000  Uiso   1.00
O659   O     0.82923   0.84631   0.49937   0.00000  Uiso   1.00
O660   O     0.90701   0.84727   0.47656   0.00000  Uiso   1.00
O661   O     0.16667   0.18572   0.79071   0.00000  Uiso   1.00
O662   O     0.16666   0.31427   0.70928   0.00000  Uiso   1.00
O663   O     0.16667   0.18573   0.70928   0.00000  Uiso   1.00
O664   O     0.16666   0.31427   0.79072   0.00000  Uiso   1.00
C665   C     0.16679   0.16510   0.74991   0.00000  Uiso   1.00
C666   C     0.16603   0.33511   0.74983   0.00000  Uiso   1.00
O667   O     0.09161   0.24999   0.78132   0.00000  Uiso   1.00
O668   O     0.24172   0.25000   0.71868   0.00000  Uiso   1.00
O669   O     0.09161   0.25000   0.69988   0.00000  Uiso   1.00
O670   O     0.24172   0.25000   0.80011   0.00000  Uiso   1.00
C671   C     0.06826   0.25146   0.73776   0.00000  Uiso   1.00
C672   C     0.26525   0.25071   0.76241   0.00000  Uiso   1.00
Cu673  Cu    0.16667   0.24999   0.79821   0.00000  Uiso   1.00
Cu674  Cu    0.16667   0.25000   0.70178   0.00000  Uiso   1.00
C675   C     0.01349   0.25375   0.73103   0.00000  Uiso   1.00
C676   C     0.32032   0.25246   0.76974   0.00000  Uiso   1.00
C677   C     0.12903   0.04574   0.76072   0.00000  Uiso   1.00
C678   C     0.19328   0.45412   0.72043   0.00000  Uiso   1.00
H679   H     0.09503   0.02621   0.76437   0.00000  Uiso   1.00
H680   H     0.20885   0.47379   0.69370   0.00000  Uiso   1.00
C681   C     0.12665   0.09144   0.76104   0.00000  Uiso   1.00
C682   C     0.19381   0.40810   0.71822   0.00000  Uiso   1.00
C683   C     0.16893   0.11693   0.75038   0.00000  Uiso   1.00
C684   C     0.16542   0.38375   0.74940   0.00000  Uiso   1.00
C685   C     0.21440   0.09596   0.74292   0.00000  Uiso   1.00
C686   C     0.13717   0.40657   0.78097   0.00000  Uiso   1.00
C687   C     0.21797   0.04987   0.74980   0.00000  Uiso   1.00
C688   C     0.14807   0.45193   0.79009   0.00000  Uiso   1.00
C689   C     0.17439   0.02477   0.75732   0.00000  Uiso   1.00
C690   C     0.17373   0.47601   0.75749   0.00000  Uiso   1.00
C691   C     0.20668   0.26974   0.55988   0.00000  Uiso   1.00
C692   C     0.15226   0.21234   0.94371   0.00000  Uiso   1.00
H693   H     0.23936   0.28477   0.54671   0.00000  Uiso   1.00
H694   H     0.14170   0.18177   0.95990   0.00000  Uiso   1.00
C695   C     0.20462   0.27138   0.61004   0.00000  Uiso   1.00
C696   C     0.15032   0.21362   0.89298   0.00000  Uiso   1.00
H697   H     0.23406   0.28934   0.63367   0.00000  Uiso   1.00
H698   H     0.13673   0.18490   0.87167   0.00000  Uiso   1.00
N699   N     0.16667   0.25001   0.62934   0.00000  Uiso   1.00
N700   N     0.16667   0.24999   0.87065   0.00000  Uiso   1.00
C701   C     0.12889   0.22749   0.59899   0.00000  Uiso   1.00
C702   C     0.18543   0.28618   0.89870   0.00000  Uiso   1.00
C703   C     0.12679   0.22884   0.54782   0.00000  Uiso   1.00
C704   C     0.18295   0.28783   0.94921   0.00000  Uiso   1.00
C705   C     0.16684   0.24950   0.52740   0.00000  Uiso   1.00
C706   C     0.16721   0.25001   0.97287   0.00000  Uiso   1.00
N707   N     0.32257   0.25723   0.68161   0.00000  Uiso   1.00
O708   O     0.00199   0.28999   0.65558   0.00000  Uiso   1.00
O709   O     0.29932   0.22289   0.65959   0.00000  Uiso   1.00
N710   N     0.01151   0.25487   0.81954   0.00000  Uiso   1.00
O711   O     0.33318   0.22578   0.85052   0.00000  Uiso   1.00
O712   O     0.03492   0.29126   0.83617   0.00000  Uiso   1.00
C713   C     0.07799   0.11077   0.77305   0.00000  Uiso   1.00
C714   C     0.07218   0.10153   0.82629   0.00000  Uiso   1.00
C715   C     0.02189   0.11758   0.83922   0.00000  Uiso   1.00
H716   H     0.01244   0.14970   0.82204   0.00000  Uiso   1.00
H717   H     0.32417   0.09313   0.82678   0.00000  Uiso   1.00
H718   H     0.02457   0.12135   0.87922   0.00000  Uiso   1.00
H719   H     0.07402   0.06564   0.83374   0.00000  Uiso   1.00
H720   H     0.10414   0.11794   0.85038   0.00000  Uiso   1.00
H721   H     0.07637   0.14676   0.76650   0.00000  Uiso   1.00
H722   H     0.04566   0.09500   0.74879   0.00000  Uiso   1.00
C723   C     0.22366   0.38525   0.68250   0.00000  Uiso   1.00
C724   C     0.25820   0.41556   0.65630   0.00000  Uiso   1.00
C725   C     0.29100   0.38918   0.62659   0.00000  Uiso   1.00
H726   H     0.31928   0.37077   0.65124   0.00000  Uiso   1.00
H727   H     0.26709   0.36588   0.60141   0.00000  Uiso   1.00
H728   H     0.31189   0.41201   0.60493   0.00000  Uiso   1.00
H729   H     0.23436   0.43743   0.63106   0.00000  Uiso   1.00
H730   H     0.28386   0.43603   0.68326   0.00000  Uiso   1.00
H731   H     0.24814   0.36036   0.70271   0.00000  Uiso   1.00
H732   H     0.19618   0.36807   0.65416   0.00000  Uiso   1.00
C733   C     0.25945   0.12203   0.72853   0.00000  Uiso   1.00
C734   C     0.25813   0.12158   0.67306   0.00000  Uiso   1.00
C735   C     0.31167   0.12375   0.65888   0.00000  Uiso   1.00
H736   H     0.00259   0.14923   0.68060   0.00000  Uiso   1.00
H737   H     0.33003   0.09148   0.66510   0.00000  Uiso   1.00
H738   H     0.30941   0.13165   0.61975   0.00000  Uiso   1.00
H739   H     0.23838   0.09118   0.65646   0.00000  Uiso   1.00
H740   H     0.23637   0.15012   0.65738   0.00000  Uiso   1.00
H741   H     0.26107   0.15657   0.74203   0.00000  Uiso   1.00
H742   H     0.29509   0.10804   0.74651   0.00000  Uiso   1.00
C743   C     0.09103   0.38503   0.79910   0.00000  Uiso   1.00
C744   C     0.04161   0.40254   0.77063   0.00000  Uiso   1.00
C745   C     0.32796   0.38731   0.79237   0.00000  Uiso   1.00
H746   H     0.32012   0.35161   0.78523   0.00000  Uiso   1.00
H747   H     0.33317   0.39397   0.83209   0.00000  Uiso   1.00
H748   H     0.29448   0.40554   0.77535   0.00000  Uiso   1.00
H749   H     0.04260   0.43912   0.76978   0.00000  Uiso   1.00
H750   H     0.03774   0.39069   0.73237   0.00000  Uiso   1.00
H751   H     0.08899   0.34891   0.79382   0.00000  Uiso   1.00
H752   H     0.09297   0.39079   0.83874   0.00000  Uiso   1.00
N753   N     0.26602   0.02877   0.75141   0.00000  Uiso   1.00
O754   O     0.28343   0.00545   0.78892   0.00000  Uiso   1.00
O755   O     0.28953   0.02861   0.71357   0.00000  Uiso   1.00
N756   N     0.13622   0.47319   0.83343   0.00000  Uiso   1.00
O757   O     0.17098   0.49745   0.85981   0.00000  Uiso   1.00
O758   O     0.09049   0.47154   0.84495   0.00000  Uiso   1.00
N759   N     0.09019   0.20280   0.61851   0.00000  Uiso   1.00
O760   O     0.09937   0.16287   0.63324   0.00000  Uiso   1.00
O761   O     0.04314   0.21385   0.60682   0.00000  Uiso   1.00
N762   N     0.20951   0.32253   0.87778   0.00000  Uiso   1.00
O763   O     0.25473   0.31823   0.86599   0.00000  Uiso   1.00
O764   O     0.19124   0.36177   0.87949   0.00000  Uiso   1.00
N765   N     0.08297   0.21049   0.51718   0.00000  Uiso   1.00
O766   O     0.05655   0.23504   0.98527   0.00000  Uiso   1.00
O767   O     0.06893   0.16946   0.52147   0.00000  Uiso   1.00
N768   N     0.19566   0.32836   0.97571   0.00000  Uiso   1.00
O769   O     0.16257   0.34631   0.99937   0.00000  Uiso   1.00
O770   O     0.24034   0.34727   0.97656   0.00000  Uiso   1.00
O771   O     0.50000   0.18572   0.79071   0.00000  Uiso   1.00
O772   O     0.50000   0.31427   0.70928   0.00000  Uiso   1.00
O773   O     0.50000   0.18573   0.70928   0.00000  Uiso   1.00
O774   O     0.50000   0.31427   0.79072   0.00000  Uiso   1.00
C775   C     0.50012   0.16510   0.74991   0.00000  Uiso   1.00
C776   C     0.49936   0.33511   0.74983   0.00000  Uiso   1.00
O777   O     0.42495   0.24999   0.78132   0.00000  Uiso   1.00
O778   O     0.57505   0.25000   0.71868   0.00000  Uiso   1.00
O779   O     0.42495   0.25000   0.69988   0.00000  Uiso   1.00
O780   O     0.57505   0.25000   0.80011   0.00000  Uiso   1.00
C781   C     0.40159   0.25146   0.73776   0.00000  Uiso   1.00
C782   C     0.59858   0.25071   0.76241   0.00000  Uiso   1.00
Cu783  Cu    0.50000   0.24999   0.79821   0.00000  Uiso   1.00
Cu784  Cu    0.50000   0.25000   0.70178   0.00000  Uiso   1.00
C785   C     0.34682   0.25375   0.73103   0.00000  Uiso   1.00
C786   C     0.65365   0.25246   0.76974   0.00000  Uiso   1.00
C787   C     0.46237   0.04574   0.76072   0.00000  Uiso   1.00
C788   C     0.52661   0.45412   0.72043   0.00000  Uiso   1.00
H789   H     0.42836   0.02621   0.76437   0.00000  Uiso   1.00
H790   H     0.54218   0.47379   0.69370   0.00000  Uiso   1.00
C791   C     0.45999   0.09144   0.76104   0.00000  Uiso   1.00
C792   C     0.52714   0.40810   0.71822   0.00000  Uiso   1.00
C793   C     0.50227   0.11693   0.75038   0.00000  Uiso   1.00
C794   C     0.49875   0.38375   0.74940   0.00000  Uiso   1.00
C795   C     0.54773   0.09596   0.74292   0.00000  Uiso   1.00
C796   C     0.47050   0.40657   0.78097   0.00000  Uiso   1.00
C797   C     0.55131   0.04987   0.74980   0.00000  Uiso   1.00
C798   C     0.48140   0.45193   0.79009   0.00000  Uiso   1.00
C799   C     0.50772   0.02477   0.75732   0.00000  Uiso   1.00
C800   C     0.50707   0.47601   0.75749   0.00000  Uiso   1.00
C801   C     0.54001   0.26974   0.55988   0.00000  Uiso   1.00
C802   C     0.48559   0.21234   0.94371   0.00000  Uiso   1.00
H803   H     0.57270   0.28477   0.54671   0.00000  Uiso   1.00
H804   H     0.47503   0.18177   0.95990   0.00000  Uiso   1.00
C805   C     0.53796   0.27138   0.61004   0.00000  Uiso   1.00
C806   C     0.48365   0.21362   0.89298   0.00000  Uiso   1.00
H807   H     0.56739   0.28934   0.63367   0.00000  Uiso   1.00
H808   H     0.47006   0.18490   0.87167   0.00000  Uiso   1.00
N809   N     0.50000   0.25001   0.62934   0.00000  Uiso   1.00
N810   N     0.50000   0.24999   0.87065   0.00000  Uiso   1.00
C811   C     0.46223   0.22749   0.59899   0.00000  Uiso   1.00
C812   C     0.51876   0.28618   0.89870   0.00000  Uiso   1.00
C813   C     0.46013   0.22884   0.54782   0.00000  Uiso   1.00
C814   C     0.51629   0.28783   0.94921   0.00000  Uiso   1.00
C815   C     0.50018   0.24950   0.52740   0.00000  Uiso   1.00
C816   C     0.50054   0.25001   0.97287   0.00000  Uiso   1.00
N817   N     0.65590   0.25723   0.68161   0.00000  Uiso   1.00
O818   O     0.33532   0.28999   0.65558   0.00000  Uiso   1.00
O819   O     0.63266   0.22289   0.65959   0.00000  Uiso   1.00
N820   N     0.34484   0.25487   0.81954   0.00000  Uiso   1.00
O821   O     0.66651   0.22578   0.85052   0.00000  Uiso   1.00
O822   O     0.36825   0.29126   0.83617   0.00000  Uiso   1.00
C823   C     0.41133   0.11077   0.77305   0.00000  Uiso   1.00
C824   C     0.40552   0.10153   0.82629   0.00000  Uiso   1.00
C825   C     0.35523   0.11758   0.83922   0.00000  Uiso   1.00
H826   H     0.34578   0.14970   0.82204   0.00000  Uiso   1.00
H827   H     0.65750   0.09313   0.82678   0.00000  Uiso   1.00
H828   H     0.35790   0.12135   0.87922   0.00000  Uiso   1.00
H829   H     0.40736   0.06564   0.83374   0.00000  Uiso   1.00
H830   H     0.43747   0.11794   0.85038   0.00000  Uiso   1.00
H831   H     0.40971   0.14676   0.76650   0.00000  Uiso   1.00
H832   H     0.37899   0.09500   0.74879   0.00000  Uiso   1.00
C833   C     0.55699   0.38525   0.68250   0.00000  Uiso   1.00
C834   C     0.59153   0.41556   0.65630   0.00000  Uiso   1.00
C835   C     0.62433   0.38918   0.62659   0.00000  Uiso   1.00
H836   H     0.65261   0.37077   0.65124   0.00000  Uiso   1.00
H837   H     0.60042   0.36588   0.60141   0.00000  Uiso   1.00
H838   H     0.64522   0.41201   0.60493   0.00000  Uiso   1.00
H839   H     0.56770   0.43743   0.63106   0.00000  Uiso   1.00
H840   H     0.61719   0.43603   0.68326   0.00000  Uiso   1.00
H841   H     0.58148   0.36036   0.70271   0.00000  Uiso   1.00
H842   H     0.52952   0.36807   0.65416   0.00000  Uiso   1.00
C843   C     0.59278   0.12203   0.72853   0.00000  Uiso   1.00
C844   C     0.59147   0.12158   0.67306   0.00000  Uiso   1.00
C845   C     0.64500   0.12375   0.65888   0.00000  Uiso   1.00
H846   H     0.33592   0.14923   0.68060   0.00000  Uiso   1.00
H847   H     0.66336   0.09148   0.66510   0.00000  Uiso   1.00
H848   H     0.64274   0.13165   0.61975   0.00000  Uiso   1.00
H849   H     0.57171   0.09118   0.65646   0.00000  Uiso   1.00
H850   H     0.56971   0.15012   0.65738   0.00000  Uiso   1.00
H851   H     0.59440   0.15657   0.74203   0.00000  Uiso   1.00
H852   H     0.62843   0.10804   0.74651   0.00000  Uiso   1.00
C853   C     0.42436   0.38503   0.79910   0.00000  Uiso   1.00
C854   C     0.37494   0.40254   0.77063   0.00000  Uiso   1.00
C855   C     0.66129   0.38731   0.79237   0.00000  Uiso   1.00
H856   H     0.65346   0.35161   0.78523   0.00000  Uiso   1.00
H857   H     0.66650   0.39397   0.83209   0.00000  Uiso   1.00
H858   H     0.62781   0.40554   0.77535   0.00000  Uiso   1.00
H859   H     0.37594   0.43912   0.76978   0.00000  Uiso   1.00
H860   H     0.37107   0.39069   0.73237   0.00000  Uiso   1.00
H861   H     0.42232   0.34891   0.79382   0.00000  Uiso   1.00
H862   H     0.42631   0.39079   0.83874   0.00000  Uiso   1.00
N863   N     0.59935   0.02877   0.75141   0.00000  Uiso   1.00
O864   O     0.61677   0.00545   0.78892   0.00000  Uiso   1.00
O865   O     0.62287   0.02861   0.71357   0.00000  Uiso   1.00
N866   N     0.46955   0.47319   0.83343   0.00000  Uiso   1.00
O867   O     0.50432   0.49745   0.85981   0.00000  Uiso   1.00
O868   O     0.42383   0.47154   0.84495   0.00000  Uiso   1.00
N869   N     0.42353   0.20280   0.61851   0.00000  Uiso   1.00
O870   O     0.43270   0.16287   0.63324   0.00000  Uiso   1.00
O871   O     0.37647   0.21385   0.60682   0.00000  Uiso   1.00
N872   N     0.54285   0.32253   0.87778   0.00000  Uiso   1.00
O873   O     0.58806   0.31823   0.86599   0.00000  Uiso   1.00
O874   O     0.52458   0.36177   0.87949   0.00000  Uiso   1.00
N875   N     0.41631   0.21049   0.51718   0.00000  Uiso   1.00
O876   O     0.38988   0.23504   0.98527   0.00000  Uiso   1.00
O877   O     0.40227   0.16946   0.52147   0.00000  Uiso   1.00
N878   N     0.52899   0.32836   0.97571   0.00000  Uiso   1.00
O879   O     0.49590   0.34631   0.99937   0.00000  Uiso   1.00
O880   O     0.57368   0.34727   0.97656   0.00000  Uiso   1.00
O881   O     0.83334   0.18572   0.79071   0.00000  Uiso   1.00
O882   O     0.83333   0.31427   0.70928   0.00000  Uiso   1.00
O883   O     0.83334   0.18573   0.70928   0.00000  Uiso   1.00
O884   O     0.83333   0.31427   0.79072   0.00000  Uiso   1.00
C885   C     0.83346   0.16510   0.74991   0.00000  Uiso   1.00
C886   C     0.83269   0.33511   0.74983   0.00000  Uiso   1.00
O887   O     0.75828   0.24999   0.78132   0.00000  Uiso   1.00
O888   O     0.90839   0.25000   0.71868   0.00000  Uiso   1.00
O889   O     0.75828   0.25000   0.69988   0.00000  Uiso   1.00
O890   O     0.90839   0.25000   0.80011   0.00000  Uiso   1.00
C891   C     0.73493   0.25146   0.73776   0.00000  Uiso   1.00
C892   C     0.93192   0.25071   0.76241   0.00000  Uiso   1.00
Cu893  Cu    0.83333   0.24999   0.79821   0.00000  Uiso   1.00
Cu894  Cu    0.83333   0.25000   0.70178   0.00000  Uiso   1.00
C895   C     0.68015   0.25375   0.73103   0.00000  Uiso   1.00
C896   C     0.98698   0.25246   0.76974   0.00000  Uiso   1.00
C897   C     0.79570   0.04574   0.76072   0.00000  Uiso   1.00
C898   C     0.85995   0.45412   0.72043   0.00000  Uiso   1.00
H899   H     0.76170   0.02621   0.76437   0.00000  Uiso   1.00
H900   H     0.87551   0.47379   0.69370   0.00000  Uiso   1.00
C901   C     0.79332   0.09144   0.76104   0.00000  Uiso   1.00
C902   C     0.86047   0.40810   0.71822   0.00000  Uiso   1.00
C903   C     0.83560   0.11693   0.75038   0.00000  Uiso   1.00
C904   C     0.83208   0.38375   0.74940   0.00000  Uiso   1.00
C905   C     0.88107   0.09596   0.74292   0.00000  Uiso   1.00
C906   C     0.80384   0.40657   0.78097   0.00000  Uiso   1.00
C907   C     0.88464   0.04987   0.74980   0.00000  Uiso   1.00
C908   C     0.81473   0.45193   0.79009   0.00000  Uiso   1.00
C909   C     0.84106   0.02477   0.75732   0.00000  Uiso   1.00
C910   C     0.84040   0.47601   0.75749   0.00000  Uiso   1.00
C911   C     0.87335   0.26974   0.55988   0.00000  Uiso   1.00
C912   C     0.81893   0.21234   0.94371   0.00000  Uiso   1.00
H913   H     0.90603   0.28477   0.54671   0.00000  Uiso   1.00
H914   H     0.80837   0.18177   0.95990   0.00000  Uiso   1.00
C915   C     0.87129   0.27138   0.61004   0.00000  Uiso   1.00
C916   C     0.81699   0.21362   0.89298   0.00000  Uiso   1.00
H917   H     0.90072   0.28934   0.63367   0.00000  Uiso   1.00
H918   H     0.80339   0.18490   0.87167   0.00000  Uiso   1.00
N919   N     0.83333   0.25001   0.62934   0.00000  Uiso   1.00
N920   N     0.83333   0.24999   0.87065   0.00000  Uiso   1.00
C921   C     0.79556   0.22749   0.59899   0.00000  Uiso   1.00
C922   C     0.85209   0.28618   0.89870   0.00000  Uiso   1.00
C923   C     0.79346   0.22884   0.54782   0.00000  Uiso   1.00
C924   C     0.84962   0.28783   0.94921   0.00000  Uiso   1.00
C925   C     0.83351   0.24950   0.52740   0.00000  Uiso   1.00
C926   C     0.83388   0.25001   0.97287   0.00000  Uiso   1.00
N927   N     0.98923   0.25723   0.68161   0.00000  Uiso   1.00
O928   O     0.66865   0.28999   0.65558   0.00000  Uiso   1.00
O929   O     0.96599   0.22289   0.65959   0.00000  Uiso   1.00
N930   N     0.67818   0.25487   0.81954   0.00000  Uiso   1.00
O931   O     0.99984   0.22578   0.85052   0.00000  Uiso   1.00
O932   O     0.70158   0.29126   0.83617   0.00000  Uiso   1.00
C933   C     0.74466   0.11077   0.77305   0.00000  Uiso   1.00
C934   C     0.73885   0.10153   0.82629   0.00000  Uiso   1.00
C935   C     0.68856   0.11758   0.83922   0.00000  Uiso   1.00
H936   H     0.67911   0.14970   0.82204   0.00000  Uiso   1.00
H937   H     0.99084   0.09313   0.82678   0.00000  Uiso   1.00
H938   H     0.69124   0.12135   0.87922   0.00000  Uiso   1.00
H939   H     0.74069   0.06564   0.83374   0.00000  Uiso   1.00
H940   H     0.77080   0.11794   0.85038   0.00000  Uiso   1.00
H941   H     0.74304   0.14676   0.76650   0.00000  Uiso   1.00
H942   H     0.71233   0.09500   0.74879   0.00000  Uiso   1.00
C943   C     0.89033   0.38525   0.68250   0.00000  Uiso   1.00
C944   C     0.92486   0.41556   0.65630   0.00000  Uiso   1.00
C945   C     0.95766   0.38918   0.62659   0.00000  Uiso   1.00
H946   H     0.98595   0.37077   0.65124   0.00000  Uiso   1.00
H947   H     0.93375   0.36588   0.60141   0.00000  Uiso   1.00
H948   H     0.97856   0.41201   0.60493   0.00000  Uiso   1.00
H949   H     0.90103   0.43743   0.63106   0.00000  Uiso   1.00
H950   H     0.95052   0.43603   0.68326   0.00000  Uiso   1.00
H951   H     0.91481   0.36036   0.70271   0.00000  Uiso   1.00
H952   H     0.86285   0.36807   0.65416   0.00000  Uiso   1.00
C953   C     0.92611   0.12203   0.72853   0.00000  Uiso   1.00
C954   C     0.92480   0.12158   0.67306   0.00000  Uiso   1.00
C955   C     0.97833   0.12375   0.65888   0.00000  Uiso   1.00
H956   H     0.66926   0.14923   0.68060   0.00000  Uiso   1.00
H957   H     0.99670   0.09148   0.66510   0.00000  Uiso   1.00
H958   H     0.97608   0.13165   0.61975   0.00000  Uiso   1.00
H959   H     0.90504   0.09118   0.65646   0.00000  Uiso   1.00
H960   H     0.90304   0.15012   0.65738   0.00000  Uiso   1.00
H961   H     0.92774   0.15657   0.74203   0.00000  Uiso   1.00
H962   H     0.96176   0.10804   0.74651   0.00000  Uiso   1.00
C963   C     0.75769   0.38503   0.79910   0.00000  Uiso   1.00
C964   C     0.70827   0.40254   0.77063   0.00000  Uiso   1.00
C965   C     0.99462   0.38731   0.79237   0.00000  Uiso   1.00
H966   H     0.98679   0.35161   0.78523   0.00000  Uiso   1.00
H967   H     0.99983   0.39397   0.83209   0.00000  Uiso   1.00
H968   H     0.96115   0.40554   0.77535   0.00000  Uiso   1.00
H969   H     0.70927   0.43912   0.76978   0.00000  Uiso   1.00
H970   H     0.70440   0.39069   0.73237   0.00000  Uiso   1.00
H971   H     0.75566   0.34891   0.79382   0.00000  Uiso   1.00
H972   H     0.75964   0.39079   0.83874   0.00000  Uiso   1.00
N973   N     0.93268   0.02877   0.75141   0.00000  Uiso   1.00
O974   O     0.95010   0.00545   0.78892   0.00000  Uiso   1.00
O975   O     0.95620   0.02861   0.71357   0.00000  Uiso   1.00
N976   N     0.80289   0.47319   0.83343   0.00000  Uiso   1.00
O977   O     0.83765   0.49745   0.85981   0.00000  Uiso   1.00
O978   O     0.75716   0.47154   0.84495   0.00000  Uiso   1.00
N979   N     0.75686   0.20280   0.61851   0.00000  Uiso   1.00
O980   O     0.76604   0.16287   0.63324   0.00000  Uiso   1.00
O981   O     0.70980   0.21385   0.60682   0.00000  Uiso   1.00
N982   N     0.87618   0.32253   0.87778   0.00000  Uiso   1.00
O983   O     0.92140   0.31823   0.86599   0.00000  Uiso   1.00
O984   O     0.85791   0.36177   0.87949   0.00000  Uiso   1.00
N985   N     0.74964   0.21049   0.51718   0.00000  Uiso   1.00
O986   O     0.72322   0.23504   0.98527   0.00000  Uiso   1.00
O987   O     0.73560   0.16946   0.52147   0.00000  Uiso   1.00
N988   N     0.86232   0.32836   0.97571   0.00000  Uiso   1.00
O989   O     0.82923   0.34631   0.99937   0.00000  Uiso   1.00
O990   O     0.90701   0.34727   0.97656   0.00000  Uiso   1.00
O991   O     0.16667   0.68572   0.79071   0.00000  Uiso   1.00
O992   O     0.16666   0.81427   0.70928   0.00000  Uiso   1.00
O993   O     0.16667   0.68573   0.70928   0.00000  Uiso   1.00
O994   O     0.16666   0.81427   0.79072   0.00000  Uiso   1.00
C995   C     0.16679   0.66510   0.74991   0.00000  Uiso   1.00
C996   C     0.16603   0.83511   0.74983   0.00000  Uiso   1.00
O997   O     0.09161   0.74999   0.78132   0.00000  Uiso   1.00
O998   O     0.24172   0.75000   0.71868   0.00000  Uiso   1.00
O999   O     0.09161   0.75000   0.69988   0.00000  Uiso   1.00
O1000  O     0.24172   0.75000   0.80011   0.00000  Uiso   1.00
C1001  C     0.06826   0.75146   0.73776   0.00000  Uiso   1.00
C1002  C     0.26525   0.75071   0.76241   0.00000  Uiso   1.00
Cu1003 Cu    0.16667   0.74999   0.79821   0.00000  Uiso   1.00
Cu1004 Cu    0.16667   0.75000   0.70178   0.00000  Uiso   1.00
C1005  C     0.01349   0.75375   0.73103   0.00000  Uiso   1.00
C1006  C     0.32032   0.75246   0.76974   0.00000  Uiso   1.00
C1007  C     0.12903   0.54574   0.76072   0.00000  Uiso   1.00
C1008  C     0.19328   0.95412   0.72043   0.00000  Uiso   1.00
H1009  H     0.09503   0.52621   0.76437   0.00000  Uiso   1.00
H1010  H     0.20885   0.97379   0.69370   0.00000  Uiso   1.00
C1011  C     0.12665   0.59144   0.76104   0.00000  Uiso   1.00
C1012  C     0.19381   0.90810   0.71822   0.00000  Uiso   1.00
C1013  C     0.16893   0.61693   0.75038   0.00000  Uiso   1.00
C1014  C     0.16542   0.88375   0.74940   0.00000  Uiso   1.00
C1015  C     0.21440   0.59596   0.74292   0.00000  Uiso   1.00
C1016  C     0.13717   0.90657   0.78097   0.00000  Uiso   1.00
C1017  C     0.21797   0.54987   0.74980   0.00000  Uiso   1.00
C1018  C     0.14807   0.95193   0.79009   0.00000  Uiso   1.00
C1019  C     0.17439   0.52477   0.75732   0.00000  Uiso   1.00
C1020  C     0.17373   0.97601   0.75749   0.00000  Uiso   1.00
C1021  C     0.20668   0.76974   0.55988   0.00000  Uiso   1.00
C1022  C     0.15226   0.71234   0.94371   0.00000  Uiso   1.00
H1023  H     0.23936   0.78477   0.54671   0.00000  Uiso   1.00
H1024  H     0.14170   0.68177   0.95990   0.00000  Uiso   1.00
C1025  C     0.20462   0.77138   0.61004   0.00000  Uiso   1.00
C1026  C     0.15032   0.71362   0.89298   0.00000  Uiso   1.00
H1027  H     0.23406   0.78934   0.63367   0.00000  Uiso   1.00
H1028  H     0.13673   0.68490   0.87167   0.00000  Uiso   1.00
N1029  N     0.16667   0.75001   0.62934   0.00000  Uiso   1.00
N1030  N     0.16667   0.74999   0.87065   0.00000  Uiso   1.00
C1031  C     0.12889   0.72749   0.59899   0.00000  Uiso   1.00
C1032  C     0.18543   0.78618   0.89870   0.00000  Uiso   1.00
C1033  C     0.12679   0.72884   0.54782   0.00000  Uiso   1.00
C1034  C     0.18295   0.78783   0.94921   0.00000  Uiso   1.00
C1035  C     0.16684   0.74950   0.52740   0.00000  Uiso   1.00
C1036  C     0.16721   0.75001   0.97287   0.00000  Uiso   1.00
N1037  N     0.32257   0.75723   0.68161   0.00000  Uiso   1.00
O1038  O     0.00199   0.78999   0.65558   0.00000  Uiso   1.00
O1039  O     0.29932   0.72289   0.65959   0.00000  Uiso   1.00
N1040  N     0.01151   0.75487   0.81954   0.00000  Uiso   1.00
O1041  O     0.33318   0.72578   0.85052   0.00000  Uiso   1.00
O1042  O     0.03492   0.79126   0.83617   0.00000  Uiso   1.00
C1043  C     0.07799   0.61077   0.77305   0.00000  Uiso   1.00
C1044  C     0.07218   0.60153   0.82629   0.00000  Uiso   1.00
C1045  C     0.02189   0.61758   0.83922   0.00000  Uiso   1.00
H1046  H     0.01244   0.64970   0.82204   0.00000  Uiso   1.00
H1047  H     0.32417   0.59313   0.82678   0.00000  Uiso   1.00
H1048  H     0.02457   0.62135   0.87922   0.00000  Uiso   1.00
H1049  H     0.07402   0.56564   0.83374   0.00000  Uiso   1.00
H1050  H     0.10414   0.61794   0.85038   0.00000  Uiso   1.00
H1051  H     0.07637   0.64676   0.76650   0.00000  Uiso   1.00
H1052  H     0.04566   0.59500   0.74879   0.00000  Uiso   1.00
C1053  C     0.22366   0.88525   0.68250   0.00000  Uiso   1.00
C1054  C     0.25820   0.91556   0.65630   0.00000  Uiso   1.00
C1055  C     0.29100   0.88918   0.62659   0.00000  Uiso   1.00
H1056  H     0.31928   0.87077   0.65124   0.00000  Uiso   1.00
H1057  H     0.26709   0.86588   0.60141   0.00000  Uiso   1.00
H1058  H     0.31189   0.91201   0.60493   0.00000  Uiso   1.00
H1059  H     0.23436   0.93743   0.63106   0.00000  Uiso   1.00
H1060  H     0.28386   0.93603   0.68326   0.00000  Uiso   1.00
H1061  H     0.24814   0.86036   0.70271   0.00000  Uiso   1.00
H1062  H     0.19618   0.86807   0.65416   0.00000  Uiso   1.00
C1063  C     0.25945   0.62203   0.72853   0.00000  Uiso   1.00
C1064  C     0.25813   0.62158   0.67306   0.00000  Uiso   1.00
C1065  C     0.31167   0.62375   0.65888   0.00000  Uiso   1.00
H1066  H     0.00259   0.64923   0.68060   0.00000  Uiso   1.00
H1067  H     0.33003   0.59148   0.66510   0.00000  Uiso   1.00
H1068  H     0.30941   0.63165   0.61975   0.00000  Uiso   1.00
H1069  H     0.23838   0.59118   0.65646   0.00000  Uiso   1.00
H1070  H     0.23637   0.65012   0.65738   0.00000  Uiso   1.00
H1071  H     0.26107   0.65657   0.74203   0.00000  Uiso   1.00
H1072  H     0.29509   0.60804   0.74651   0.00000  Uiso   1.00
C1073  C     0.09103   0.88503   0.79910   0.00000  Uiso   1.00
C1074  C     0.04161   0.90254   0.77063   0.00000  Uiso   1.00
C1075  C     0.32796   0.88731   0.79237   0.00000  Uiso   1.00
H1076  H     0.32012   0.85161   0.78523   0.00000  Uiso   1.00
H1077  H     0.33317   0.89397   0.83209   0.00000  Uiso   1.00
H1078  H     0.29448   0.90554   0.77535   0.00000  Uiso   1.00
H1079  H     0.04260   0.93912   0.76978   0.00000  Uiso   1.00
H1080  H     0.03774   0.89069   0.73237   0.00000  Uiso   1.00
H1081  H     0.08899   0.84891   0.79382   0.00000  Uiso   1.00
H1082  H     0.09297   0.89079   0.83874   0.00000  Uiso   1.00
N1083  N     0.26602   0.52877   0.75141   0.00000  Uiso   1.00
O1084  O     0.28343   0.50545   0.78892   0.00000  Uiso   1.00
O1085  O     0.28953   0.52861   0.71357   0.00000  Uiso   1.00
N1086  N     0.13622   0.97319   0.83343   0.00000  Uiso   1.00
O1087  O     0.17098   0.99745   0.85981   0.00000  Uiso   1.00
O1088  O     0.09049   0.97154   0.84495   0.00000  Uiso   1.00
N1089  N     0.09019   0.70280   0.61851   0.00000  Uiso   1.00
O1090  O     0.09937   0.66287   0.63324   0.00000  Uiso   1.00
O1091  O     0.04314   0.71385   0.60682   0.00000  Uiso   1.00
N1092  N     0.20951   0.82253   0.87778   0.00000  Uiso   1.00
O1093  O     0.25473   0.81823   0.86599   0.00000  Uiso   1.00
O1094  O     0.19124   0.86177   0.87949   0.00000  Uiso   1.00
N1095  N     0.08297   0.71049   0.51718   0.00000  Uiso   1.00
O1096  O     0.05655   0.73504   0.98527   0.00000  Uiso   1.00
O1097  O     0.06893   0.66946   0.52147   0.00000  Uiso   1.00
N1098  N     0.19566   0.82836   0.97571   0.00000  Uiso   1.00
O1099  O     0.16257   0.84631   0.99937   0.00000  Uiso   1.00
O1100  O     0.24034   0.84727   0.97656   0.00000  Uiso   1.00
O1101  O     0.50000   0.68572   0.79071   0.00000  Uiso   1.00
O1102  O     0.50000   0.81427   0.70928   0.00000  Uiso   1.00
O1103  O     0.50000   0.68573   0.70928   0.00000  Uiso   1.00
O1104  O     0.50000   0.81427   0.79072   0.00000  Uiso   1.00
C1105  C     0.50012   0.66510   0.74991   0.00000  Uiso   1.00
C1106  C     0.49936   0.83511   0.74983   0.00000  Uiso   1.00
O1107  O     0.42495   0.74999   0.78132   0.00000  Uiso   1.00
O1108  O     0.57505   0.75000   0.71868   0.00000  Uiso   1.00
O1109  O     0.42495   0.75000   0.69988   0.00000  Uiso   1.00
O1110  O     0.57505   0.75000   0.80011   0.00000  Uiso   1.00
C1111  C     0.40159   0.75146   0.73776   0.00000  Uiso   1.00
C1112  C     0.59858   0.75071   0.76241   0.00000  Uiso   1.00
Cu1113 Cu    0.50000   0.74999   0.79821   0.00000  Uiso   1.00
Cu1114 Cu    0.50000   0.75000   0.70178   0.00000  Uiso   1.00
C1115  C     0.34682   0.75375   0.73103   0.00000  Uiso   1.00
C1116  C     0.65365   0.75246   0.76974   0.00000  Uiso   1.00
C1117  C     0.46237   0.54574   0.76072   0.00000  Uiso   1.00
C1118  C     0.52661   0.95412   0.72043   0.00000  Uiso   1.00
H1119  H     0.42836   0.52621   0.76437   0.00000  Uiso   1.00
H1120  H     0.54218   0.97379   0.69370   0.00000  Uiso   1.00
C1121  C     0.45999   0.59144   0.76104   0.00000  Uiso   1.00
C1122  C     0.52714   0.90810   0.71822   0.00000  Uiso   1.00
C1123  C     0.50227   0.61693   0.75038   0.00000  Uiso   1.00
C1124  C     0.49875   0.88375   0.74940   0.00000  Uiso   1.00
C1125  C     0.54773   0.59596   0.74292   0.00000  Uiso   1.00
C1126  C     0.47050   0.90657   0.78097   0.00000  Uiso   1.00
C1127  C     0.55131   0.54987   0.74980   0.00000  Uiso   1.00
C1128  C     0.48140   0.95193   0.79009   0.00000  Uiso   1.00
C1129  C     0.50772   0.52477   0.75732   0.00000  Uiso   1.00
C1130  C     0.50707   0.97601   0.75749   0.00000  Uiso   1.00
C1131  C     0.54001   0.76974   0.55988   0.00000  Uiso   1.00
C1132  C     0.48559   0.71234   0.94371   0.00000  Uiso   1.00
H1133  H     0.57270   0.78477   0.54671   0.00000  Uiso   1.00
H1134  H     0.47503   0.68177   0.95990   0.00000  Uiso   1.00
C1135  C     0.53796   0.77138   0.61004   0.00000  Uiso   1.00
C1136  C     0.48365   0.71362   0.89298   0.00000  Uiso   1.00
H1137  H     0.56739   0.78934   0.63367   0.00000  Uiso   1.00
H1138  H     0.47006   0.68490   0.87167   0.00000  Uiso   1.00
N1139  N     0.50000   0.75001   0.62934   0.00000  Uiso   1.00
N1140  N     0.50000   0.74999   0.87065   0.00000  Uiso   1.00
C1141  C     0.46223   0.72749   0.59899   0.00000  Uiso   1.00
C1142  C     0.51876   0.78618   0.89870   0.00000  Uiso   1.00
C1143  C     0.46013   0.72884   0.54782   0.00000  Uiso   1.00
C1144  C     0.51629   0.78783   0.94921   0.00000  Uiso   1.00
C1145  C     0.50018   0.74950   0.52740   0.00000  Uiso   1.00
C1146  C     0.50054   0.75001   0.97287   0.00000  Uiso   1.00
N1147  N     0.65590   0.75723   0.68161   0.00000  Uiso   1.00
O1148  O     0.33532   0.78999   0.65558   0.00000  Uiso   1.00
O1149  O     0.63266   0.72289   0.65959   0.00000  Uiso   1.00
N1150  N     0.34484   0.75487   0.81954   0.00000  Uiso   1.00
O1151  O     0.66651   0.72578   0.85052   0.00000  Uiso   1.00
O1152  O     0.36825   0.79126   0.83617   0.00000  Uiso   1.00
C1153  C     0.41133   0.61077   0.77305   0.00000  Uiso   1.00
C1154  C     0.40552   0.60153   0.82629   0.00000  Uiso   1.00
C1155  C     0.35523   0.61758   0.83922   0.00000  Uiso   1.00
H1156  H     0.34578   0.64970   0.82204   0.00000  Uiso   1.00
H1157  H     0.65750   0.59313   0.82678   0.00000  Uiso   1.00
H1158  H     0.35790   0.62135   0.87922   0.00000  Uiso   1.00
H1159  H     0.40736   0.56564   0.83374   0.00000  Uiso   1.00
H1160  H     0.43747   0.61794   0.85038   0.00000  Uiso   1.00
H1161  H     0.40971   0.64676   0.76650   0.00000  Uiso   1.00
H1162  H     0.37899   0.59500   0.74879   0.00000  Uiso   1.00
C1163  C     0.55699   0.88525   0.68250   0.00000  Uiso   1.00
C1164  C     0.59153   0.91556   0.65630   0.00000  Uiso   1.00
C1165  C     0.62433   0.88918   0.62659   0.00000  Uiso   1.00
H1166  H     0.65261   0.87077   0.65124   0.00000  Uiso   1.00
H1167  H     0.60042   0.86588   0.60141   0.00000  Uiso   1.00
H1168  H     0.64522   0.91201   0.60493   0.00000  Uiso   1.00
H1169  H     0.56770   0.93743   0.63106   0.00000  Uiso   1.00
H1170  H     0.61719   0.93603   0.68326   0.00000  Uiso   1.00
H1171  H     0.58148   0.86036   0.70271   0.00000  Uiso   1.00
H1172  H     0.52952   0.86807   0.65416   0.00000  Uiso   1.00
C1173  C     0.59278   0.62203   0.72853   0.00000  Uiso   1.00
C1174  C     0.59147   0.62158   0.67306   0.00000  Uiso   1.00
C1175  C     0.64500   0.62375   0.65888   0.00000  Uiso   1.00
H1176  H     0.33592   0.64923   0.68060   0.00000  Uiso   1.00
H1177  H     0.66336   0.59148   0.66510   0.00000  Uiso   1.00
H1178  H     0.64274   0.63165   0.61975   0.00000  Uiso   1.00
H1179  H     0.57171   0.59118   0.65646   0.00000  Uiso   1.00
H1180  H     0.56971   0.65012   0.65738   0.00000  Uiso   1.00
H1181  H     0.59440   0.65657   0.74203   0.00000  Uiso   1.00
H1182  H     0.62843   0.60804   0.74651   0.00000  Uiso   1.00
C1183  C     0.42436   0.88503   0.79910   0.00000  Uiso   1.00
C1184  C     0.37494   0.90254   0.77063   0.00000  Uiso   1.00
C1185  C     0.66129   0.88731   0.79237   0.00000  Uiso   1.00
H1186  H     0.65346   0.85161   0.78523   0.00000  Uiso   1.00
H1187  H     0.66650   0.89397   0.83209   0.00000  Uiso   1.00
H1188  H     0.62781   0.90554   0.77535   0.00000  Uiso   1.00
H1189  H     0.37594   0.93912   0.76978   0.00000  Uiso   1.00
H1190  H     0.37107   0.89069   0.73237   0.00000  Uiso   1.00
H1191  H     0.42232   0.84891   0.79382   0.00000  Uiso   1.00
H1192  H     0.42631   0.89079   0.83874   0.00000  Uiso   1.00
N1193  N     0.59935   0.52877   0.75141   0.00000  Uiso   1.00
O1194  O     0.61677   0.50545   0.78892   0.00000  Uiso   1.00
O1195  O     0.62287   0.52861   0.71357   0.00000  Uiso   1.00
N1196  N     0.46955   0.97319   0.83343   0.00000  Uiso   1.00
O1197  O     0.50432   0.99745   0.85981   0.00000  Uiso   1.00
O1198  O     0.42383   0.97154   0.84495   0.00000  Uiso   1.00
N1199  N     0.42353   0.70280   0.61851   0.00000  Uiso   1.00
O1200  O     0.43270   0.66287   0.63324   0.00000  Uiso   1.00
O1201  O     0.37647   0.71385   0.60682   0.00000  Uiso   1.00
N1202  N     0.54285   0.82253   0.87778   0.00000  Uiso   1.00
O1203  O     0.58806   0.81823   0.86599   0.00000  Uiso   1.00
O1204  O     0.52458   0.86177   0.87949   0.00000  Uiso   1.00
N1205  N     0.41631   0.71049   0.51718   0.00000  Uiso   1.00
O1206  O     0.38988   0.73504   0.98527   0.00000  Uiso   1.00
O1207  O     0.40227   0.66946   0.52147   0.00000  Uiso   1.00
N1208  N     0.52899   0.82836   0.97571   0.00000  Uiso   1.00
O1209  O     0.49590   0.84631   0.99937   0.00000  Uiso   1.00
O1210  O     0.57368   0.84727   0.97656   0.00000  Uiso   1.00
O1211  O     0.83334   0.68572   0.79071   0.00000  Uiso   1.00
O1212  O     0.83333   0.81427   0.70928   0.00000  Uiso   1.00
O1213  O     0.83334   0.68573   0.70928   0.00000  Uiso   1.00
O1214  O     0.83333   0.81427   0.79072   0.00000  Uiso   1.00
C1215  C     0.83346   0.66510   0.74991   0.00000  Uiso   1.00
C1216  C     0.83269   0.83511   0.74983   0.00000  Uiso   1.00
O1217  O     0.75828   0.74999   0.78132   0.00000  Uiso   1.00
O1218  O     0.90839   0.75000   0.71868   0.00000  Uiso   1.00
O1219  O     0.75828   0.75000   0.69988   0.00000  Uiso   1.00
O1220  O     0.90839   0.75000   0.80011   0.00000  Uiso   1.00
C1221  C     0.73493   0.75146   0.73776   0.00000  Uiso   1.00
C1222  C     0.93192   0.75071   0.76241   0.00000  Uiso   1.00
Cu1223 Cu    0.83333   0.74999   0.79821   0.00000  Uiso   1.00
Cu1224 Cu    0.83333   0.75000   0.70178   0.00000  Uiso   1.00
C1225  C     0.68015   0.75375   0.73103   0.00000  Uiso   1.00
C1226  C     0.98698   0.75246   0.76974   0.00000  Uiso   1.00
C1227  C     0.79570   0.54574   0.76072   0.00000  Uiso   1.00
C1228  C     0.85995   0.95412   0.72043   0.00000  Uiso   1.00
H1229  H     0.76170   0.52621   0.76437   0.00000  Uiso   1.00
H1230  H     0.87551   0.97379   0.69370   0.00000  Uiso   1.00
C1231  C     0.79332   0.59144   0.76104   0.00000  Uiso   1.00
C1232  C     0.86047   0.90810   0.71822   0.00000  Uiso   1.00
C1233  C     0.83560   0.61693   0.75038   0.00000  Uiso   1.00
C1234  C     0.83208   0.88375   0.74940   0.00000  Uiso   1.00
C1235  C     0.88107   0.59596   0.74292   0.00000  Uiso   1.00
C1236  C     0.80384   0.90657   0.78097   0.00000  Uiso   1.00
C1237  C     0.88464   0.54987   0.74980   0.00000  Uiso   1.00
C1238  C     0.81473   0.95193   0.79009   0.00000  Uiso   1.00
C1239  C     0.84106   0.52477   0.75732   0.00000  Uiso   1.00
C1240  C     0.84040   0.97601   0.75749   0.00000  Uiso   1.00
C1241  C     0.87335   0.76974   0.55988   0.00000  Uiso   1.00
C1242  C     0.81893   0.71234   0.94371   0.00000  Uiso   1.00
H1243  H     0.90603   0.78477   0.54671   0.00000  Uiso   1.00
H1244  H     0.80837   0.68177   0.95990   0.00000  Uiso   1.00
C1245  C     0.87129   0.77138   0.61004   0.00000  Uiso   1.00
C1246  C     0.81699   0.71362   0.89298   0.00000  Uiso   1.00
H1247  H     0.90072   0.78934   0.63367   0.00000  Uiso   1.00
H1248  H     0.80339   0.68490   0.87167   0.00000  Uiso   1.00
N1249  N     0.83333   0.75001   0.62934   0.00000  Uiso   1.00
N1250  N     0.83333   0.74999   0.87065   0.00000  Uiso   1.00
C1251  C     0.79556   0.72749   0.59899   0.00000  Uiso   1.00
C1252  C     0.85209   0.78618   0.89870   0.00000  Uiso   1.00
C1253  C     0.79346   0.72884   0.54782   0.00000  Uiso   1.00
C1254  C     0.84962   0.78783   0.94921   0.00000  Uiso   1.00
C1255  C     0.83351   0.74950   0.52740   0.00000  Uiso   1.00
C1256  C     0.83388   0.75001   0.97287   0.00000  Uiso   1.00
N1257  N     0.98923   0.75723   0.68161   0.00000  Uiso   1.00
O1258  O     0.66865   0.78999   0.65558   0.00000  Uiso   1.00
O1259  O     0.96599   0.72289   0.65959   0.00000  Uiso   1.00
N1260  N     0.67818   0.75487   0.81954   0.00000  Uiso   1.00
O1261  O     0.99984   0.72578   0.85052   0.00000  Uiso   1.00
O1262  O     0.70158   0.79126   0.83617   0.00000  Uiso   1.00
C1263  C     0.74466   0.61077   0.77305   0.00000  Uiso   1.00
C1264  C     0.73885   0.60153   0.82629   0.00000  Uiso   1.00
C1265  C     0.68856   0.61758   0.83922   0.00000  Uiso   1.00
H1266  H     0.67911   0.64970   0.82204   0.00000  Uiso   1.00
H1267  H     0.99084   0.59313   0.82678   0.00000  Uiso   1.00
H1268  H     0.69124   0.62135   0.87922   0.00000  Uiso   1.00
H1269  H     0.74069   0.56564   0.83374   0.00000  Uiso   1.00
H1270  H     0.77080   0.61794   0.85038   0.00000  Uiso   1.00
H1271  H     0.74304   0.64676   0.76650   0.00000  Uiso   1.00
H1272  H     0.71233   0.59500   0.74879   0.00000  Uiso   1.00
C1273  C     0.89033   0.88525   0.68250   0.00000  Uiso   1.00
C1274  C     0.92486   0.91556   0.65630   0.00000  Uiso   1.00
C1275  C     0.95766   0.88918   0.62659   0.00000  Uiso   1.00
H1276  H     0.98595   0.87077   0.65124   0.00000  Uiso   1.00
H1277  H     0.93375   0.86588   0.60141   0.00000  Uiso   1.00
H1278  H     0.97856   0.91201   0.60493   0.00000  Uiso   1.00
H1279  H     0.90103   0.93743   0.63106   0.00000  Uiso   1.00
H1280  H     0.95052   0.93603   0.68326   0.00000  Uiso   1.00
H1281  H     0.91481   0.86036   0.70271   0.00000  Uiso   1.00
H1282  H     0.86285   0.86807   0.65416   0.00000  Uiso   1.00
C1283  C     0.92611   0.62203   0.72853   0.00000  Uiso   1.00
C1284  C     0.92480   0.62158   0.67306   0.00000  Uiso   1.00
C1285  C     0.97833   0.62375   0.65888   0.00000  Uiso   1.00
H1286  H     0.66926   0.64923   0.68060   0.00000  Uiso   1.00
H1287  H     0.99670   0.59148   0.66510   0.00000  Uiso   1.00
H1288  H     0.97608   0.63165   0.61975   0.00000  Uiso   1.00
H1289  H     0.90504   0.59118   0.65646   0.00000  Uiso   1.00
H1290  H     0.90304   0.65012   0.65738   0.00000  Uiso   1.00
H1291  H     0.92774   0.65657   0.74203   0.00000  Uiso   1.00
H1292  H     0.96176   0.60804   0.74651   0.00000  Uiso   1.00
C1293  C     0.75769   0.88503   0.79910   0.00000  Uiso   1.00
C1294  C     0.70827   0.90254   0.77063   0.00000  Uiso   1.00
C1295  C     0.99462   0.88731   0.79237   0.00000  Uiso   1.00
H1296  H     0.98679   0.85161   0.78523   0.00000  Uiso   1.00
H1297  H     0.99983   0.89397   0.83209   0.00000  Uiso   1.00
H1298  H     0.96115   0.90554   0.77535   0.00000  Uiso   1.00
H1299  H     0.70927   0.93912   0.76978   0.00000  Uiso   1.00
H1300  H     0.70440   0.89069   0.73237   0.00000  Uiso   1.00
H1301  H     0.75566   0.84891   0.79382   0.00000  Uiso   1.00
H1302  H     0.75964   0.89079   0.83874   0.00000  Uiso   1.00
N1303  N     0.93268   0.52877   0.75141   0.00000  Uiso   1.00
O1304  O     0.95010   0.50545   0.78892   0.00000  Uiso   1.00
O1305  O     0.95620   0.52861   0.71357   0.00000  Uiso   1.00
N1306  N     0.80289   0.97319   0.83343   0.00000  Uiso   1.00
O1307  O     0.83765   0.99745   0.85981   0.00000  Uiso   1.00
O1308  O     0.75716   0.97154   0.84495   0.00000  Uiso   1.00
N1309  N     0.75686   0.70280   0.61851   0.00000  Uiso   1.00
O1310  O     0.76604   0.66287   0.63324   0.00000  Uiso   1.00
O1311  O     0.70980   0.71385   0.60682   0.00000  Uiso   1.00
N1312  N     0.87618   0.82253   0.87778   0.00000  Uiso   1.00
O1313  O     0.92140   0.81823   0.86599   0.00000  Uiso   1.00
O1314  O     0.85791   0.86177   0.87949   0.00000  Uiso   1.00
N1315  N     0.74964   0.71049   0.51718   0.00000  Uiso   1.00
O1316  O     0.72322   0.73504   0.98527   0.00000  Uiso   1.00
O1317  O     0.73560   0.66946   0.52147   0.00000  Uiso   1.00
N1318  N     0.86232   0.82836   0.97571   0.00000  Uiso   1.00
O1319  O     0.82923   0.84631   0.99937   0.00000  Uiso   1.00
O1320  O     0.90701   0.84727   0.97656   0.00000  Uiso   1.00
loop_
_geom_bond_atom_site_label_1
_geom_bond_atom_site_label_2
_geom_bond_distance
_geom_bond_site_symmetry_2
_ccdc_geom_bond_type
O1     C5      1.294   .     A
O1     Cu13    1.960   .     S
O2     C6      1.292   .     A
O2     Cu14    1.960   .     S
O3     Cu14    1.963   .     S
O3     C5      1.296   .     A
O4     Cu13    1.963   .     S
O4     C6      1.304   .     A
C5     C23     1.464   .     S
C6     C24     1.477   .     S
O7     C11     1.281   .     A
O7     Cu13    1.982   .     S
O8     C12     1.285   .     A
O8     Cu14    1.982   .     S
O9     Cu14    1.987   .     S
O9     C11     1.300   .     A
O10    C12     1.297   .     A
O10    Cu13    1.987   .     S
C11    C15     1.444   .     S
C12    C16     1.447   .     S
Cu13   N40     2.017   .     S
Cu13   Cu14    2.684   .     S
Cu14   N39     2.017   .     S
C15    C236    1.370   1_455 S
C15    N267    1.438   1_455 S
C16    C125    1.370   .     S
C16    N160    1.445   .     S
C17    C29     1.393   .     A
C17    C21     1.390   .     A
C17    H19     1.084   .     S
C18    C30     1.393   .     A
C18    C22     1.398   .     A
C18    H20     1.078   .     S
C21    C23     1.414   .     A
C21    C53     1.514   .     S
C22    C63     1.532   .     S
C22    C24     1.427   .     A
C23    C25     1.421   .     A
C24    C26     1.424   .     A
C25    C73     1.520   .     S
C25    C27     1.416   .     A
C26    C83     1.525   .     S
C26    C28     1.412   .     A
C27    C29     1.410   .     A
C27    N93     1.439   .     S
C28    N96     1.443   .     S
C28    C30     1.408   .     A
C29    C360    1.479   1_545 S
C30    C359    1.479   .     S
C31    H33     1.081   .     S
C31    C35     1.406   .     A
C31    C45     1.413   .     A
C32    C36     1.407   .     A
C32    H34     1.081   .     S
C32    C46     1.412   .     A
C35    H37     1.079   .     S
C35    N39     1.361   .     A
C36    N40     1.362   .     A
C36    H38     1.075   .     S
N39    C41     1.378   .     A
N40    C42     1.382   .     A
C41    N99     1.428   .     S
C41    C43     1.418   .     A
C42    C44     1.418   .     A
C42    N102    1.429   .     S
C43    N105    1.437   .     S
C43    C45     1.411   .     A
C44    C46     1.411   .     A
C44    N108    1.436   .     S
C45    C706    1.520   1_554 S
C46    C705    1.520   .     S
N47    O49     1.300   .     A
N47    C125    1.438   .     S
N47    O158    1.300   .     S
O48    N267    1.300   1_455 S
N50    O52     1.301   .     A
N50    C236    1.445   1_455 S
N50    O271    1.301   1_455 S
O51    N160    1.301   .     S
C53    C54     1.539   .     S
C53    H61     1.109   .     S
C53    H62     1.108   .     S
C54    H60     1.107   .     S
C54    H59     1.111   .     S
C54    C55     1.525   .     S
C55    H56     1.107   .     S
C55    H58     1.111   .     S
C55    H277    1.110   1_455 S
H57    C165    1.110   .     S
C63    H71     1.112   .     S
C63    C64     1.541   .     S
C63    H72     1.111   .     S
C64    H70     1.112   .     S
C64    H69     1.112   .     S
C64    C65     1.524   .     S
C65    H67     1.111   .     S
C65    H68     1.110   .     S
C65    H66     1.107   .     S
C73    C74     1.539   .     S
C73    H81     1.109   .     S
C73    H82     1.102   .     S
C74    H80     1.111   .     S
C74    C75     1.530   .     S
C74    H79     1.112   .     S
C75    H77     1.110   .     S
C75    H78     1.110   .     S
C75    H186    1.110   .     S
H76    C295    1.110   1_455 S
C83    H92     1.110   .     S
C83    C84     1.542   .     S
C83    H91     1.104   .     S
C84    H90     1.112   .     S
C84    H89     1.110   .     S
C84    C305    1.526   1_455 S
C85    H87     1.111   .     S
C85    H86     1.109   .     S
C85    H88     1.109   .     S
C85    C194    1.526   .     S
N93    O94     1.301   .     A
N93    O95     1.300   .     A
N96    O98     1.300   .     A
N96    O97     1.301   .     A
N99    O100    1.300   .     A
N99    O101    1.299   .     A
N102   O104    1.301   .     A
N102   O103    1.300   .     A
N105   O107    1.301   .     A
N105   O766    1.301   1_554 S
O106   N765    1.301   .     S
N108   O109    1.301   .     A
N108   O110    1.301   .     A
O111   C115    1.294   .     A
O111   Cu123   1.960   .     S
O112   C116    1.292   .     A
O112   Cu124   1.960   .     S
O113   Cu124   1.963   .     S
O113   C115    1.296   .     A
O114   Cu123   1.963   .     S
O114   C116    1.304   .     A
C115   C133    1.464   .     S
C116   C134    1.477   .     S
O117   C121    1.281   .     A
O117   Cu123   1.982   .     S
O118   C122    1.285   .     A
O118   Cu124   1.982   .     S
O119   Cu124   1.987   .     S
O119   C121    1.300   .     A
O120   C122    1.297   .     A
O120   Cu123   1.987   .     S
C121   C125    1.444   .     S
C122   C126    1.447   .     S
Cu123  N150    2.017   .     S
Cu123  Cu124   2.684   .     S
Cu124  N149    2.017   .     S
C126   C235    1.370   .     S
C126   N270    1.445   .     S
C127   C139    1.393   .     A
C127   C131    1.390   .     A
C127   H129    1.084   .     S
C128   C140    1.393   .     A
C128   C132    1.398   .     A
C128   H130    1.078   .     S
C131   C133    1.414   .     A
C131   C163    1.514   .     S
C132   C173    1.532   .     S
C132   C134    1.427   .     A
C133   C135    1.421   .     A
C134   C136    1.424   .     A
C135   C183    1.520   .     S
C135   C137    1.416   .     A
C136   C193    1.525   .     S
C136   C138    1.412   .     A
C137   C139    1.410   .     A
C137   N203    1.439   .     S
C138   N206    1.443   .     S
C138   C140    1.408   .     A
C139   C470    1.479   1_545 S
C140   C469    1.479   .     S
C141   H143    1.081   .     S
C141   C145    1.406   .     A
C141   C155    1.413   .     A
C142   C146    1.407   .     A
C142   H144    1.081   .     S
C142   C156    1.412   .     A
C145   H147    1.079   .     S
C145   N149    1.361   .     A
C146   N150    1.362   .     A
C146   H148    1.075   .     S
N149   C151    1.378   .     A
N150   C152    1.382   .     A
C151   N209    1.428   .     S
C151   C153    1.418   .     A
C152   C154    1.418   .     A
C152   N212    1.429   .     S
C153   N215    1.437   .     S
C153   C155    1.411   .     A
C154   C156    1.411   .     A
C154   N218    1.436   .     S
C155   C816    1.520   1_554 S
C156   C815    1.520   .     S
N157   O159    1.300   .     A
N157   C235    1.438   .     S
N157   O268    1.300   .     S
N160   O162    1.301   .     A
O161   N270    1.301   .     S
C163   C164    1.539   .     S
C163   H171    1.109   .     S
C163   H172    1.108   .     S
C164   H170    1.107   .     S
C164   H169    1.111   .     S
C164   C165    1.525   .     S
C165   H166    1.107   .     S
C165   H168    1.111   .     S
H167   C275    1.110   .     S
C173   H181    1.112   .     S
C173   C174    1.541   .     S
C173   H182    1.111   .     S
C174   H180    1.112   .     S
C174   H179    1.112   .     S
C174   C175    1.524   .     S
C175   H177    1.111   .     S
C175   H178    1.110   .     S
C175   H176    1.107   .     S
C183   C184    1.539   .     S
C183   H191    1.109   .     S
C183   H192    1.102   .     S
C184   H190    1.111   .     S
C184   C185    1.530   .     S
C184   H189    1.112   .     S
C185   H187    1.110   .     S
C185   H188    1.110   .     S
C185   H296    1.110   .     S
C193   H202    1.110   .     S
C193   C194    1.542   .     S
C193   H201    1.104   .     S
C194   H200    1.112   .     S
C194   H199    1.110   .     S
C195   H197    1.111   .     S
C195   H196    1.109   .     S
C195   H198    1.109   .     S
C195   C304    1.526   .     S
N203   O204    1.301   .     A
N203   O205    1.300   .     A
N206   O208    1.300   .     A
N206   O207    1.301   .     A
N209   O210    1.300   .     A
N209   O211    1.299   .     A
N212   O214    1.301   .     A
N212   O213    1.300   .     A
N215   O217    1.301   .     A
N215   O876    1.301   1_554 S
O216   N875    1.301   .     S
N218   O219    1.301   .     A
N218   O220    1.301   .     A
O221   C225    1.294   .     A
O221   Cu233   1.960   .     S
O222   C226    1.292   .     A
O222   Cu234   1.960   .     S
O223   Cu234   1.963   .     S
O223   C225    1.296   .     A
O224   Cu233   1.963   .     S
O224   C226    1.304   .     A
C225   C243    1.464   .     S
C226   C244    1.477   .     S
O227   C231    1.281   .     A
O227   Cu233   1.982   .     S
O228   C232    1.285   .     A
O228   Cu234   1.982   .     S
O229   Cu234   1.987   .     S
O229   C231    1.300   .     A
O230   C232    1.297   .     A
O230   Cu233   1.987   .     S
C231   C235    1.444   .     S
C232   C236    1.447   .     S
Cu233  N260    2.017   .     S
Cu233  Cu234   2.684   .     S
Cu234  N259    2.017   .     S
C236   C15     1.370   1_655 S
C236   N50     1.445   1_655 S
C237   C249    1.393   .     A
C237   C241    1.390   .     A
C237   H239    1.084   .     S
C238   C250    1.393   .     A
C238   C242    1.398   .     A
C238   H240    1.078   .     S
C241   C243    1.414   .     A
C241   C273    1.514   .     S
C242   C283    1.532   .     S
C242   C244    1.427   .     A
C243   C245    1.421   .     A
C244   C246    1.424   .     A
C245   C293    1.520   .     S
C245   C247    1.416   .     A
C246   C303    1.525   .     S
C246   C248    1.412   .     A
C247   C249    1.410   .     A
C247   N313    1.439   .     S
C248   N316    1.443   .     S
C248   C250    1.408   .     A
C249   C580    1.479   1_545 S
C250   C579    1.479   .     S
C251   H253    1.081   .     S
C251   C255    1.406   .     A
C251   C265    1.413   .     A
C252   C256    1.407   .     A
C252   H254    1.081   .     S
C252   C266    1.412   .     A
C255   H257    1.079   .     S
C255   N259    1.361   .     A
C256   N260    1.362   .     A
C256   H258    1.075   .     S
N259   C261    1.378   .     A
N260   C262    1.382   .     A
C261   N319    1.428   .     S
C261   C263    1.418   .     A
C262   C264    1.418   .     A
C262   N322    1.429   .     S
C263   N325    1.437   .     S
C263   C265    1.411   .     A
C264   C266    1.411   .     A
C264   N328    1.436   .     S
C265   C926    1.520   1_554 S
C266   C925    1.520   .     S
N267   O269    1.300   .     A
N267   C15     1.438   1_655 S
N267   O48     1.300   1_655 S
N270   O272    1.301   .     A
O271   N50     1.301   1_655 S
C273   C274    1.539   .     S
C273   H281    1.109   .     S
C273   H282    1.108   .     S
C274   H280    1.107   .     S
C274   H279    1.111   .     S
C274   C275    1.525   .     S
C275   H276    1.107   .     S
C275   H278    1.111   .     S
H277   C55     1.110   1_655 S
C283   H291    1.112   .     S
C283   C284    1.541   .     S
C283   H292    1.111   .     S
C284   H290    1.112   .     S
C284   H289    1.112   .     S
C284   C285    1.524   .     S
C285   H287    1.111   .     S
C285   H288    1.110   .     S
C285   H286    1.107   .     S
C293   C294    1.539   .     S
C293   H301    1.109   .     S
C293   H302    1.102   .     S
C294   H300    1.111   .     S
C294   C295    1.530   .     S
C294   H299    1.112   .     S
C295   H297    1.110   .     S
C295   H298    1.110   .     S
C295   H76     1.110   1_655 S
C303   H312    1.110   .     S
C303   C304    1.542   .     S
C303   H311    1.104   .     S
C304   H310    1.112   .     S
C304   H309    1.110   .     S
C305   H307    1.111   .     S
C305   H306    1.109   .     S
C305   H308    1.109   .     S
C305   C84     1.526   1_655 S
N313   O314    1.301   .     A
N313   O315    1.300   .     A
N316   O318    1.300   .     A
N316   O317    1.301   .     A
N319   O320    1.300   .     A
N319   O321    1.299   .     A
N322   O324    1.301   .     A
N322   O323    1.300   .     A
N325   O327    1.301   .     A
N325   O986    1.301   1_554 S
O326   N985    1.301   .     S
N328   O329    1.301   .     A
N328   O330    1.301   .     A
O331   C335    1.294   .     A
O331   Cu343   1.960   .     S
O332   C336    1.292   .     A
O332   Cu344   1.960   .     S
O333   Cu344   1.963   .     S
O333   C335    1.296   .     A
O334   Cu343   1.963   .     S
O334   C336    1.304   .     A
C335   C353    1.464   .     S
C336   C354    1.477   .     S
O337   C341    1.281   .     A
O337   Cu343   1.982   .     S
O338   C342    1.285   .     A
O338   Cu344   1.982   .     S
O339   Cu344   1.987   .     S
O339   C341    1.300   .     A
O340   C342    1.297   .     A
O340   Cu343   1.987   .     S
C341   C345    1.444   .     S
C342   C346    1.447   .     S
Cu343  N370    2.017   .     S
Cu343  Cu344   2.684   .     S
Cu344  N369    2.017   .     S
C345   C566    1.370   1_455 S
C345   N597    1.438   1_455 S
C346   C455    1.370   .     S
C346   N490    1.445   .     S
C347   C359    1.393   .     A
C347   C351    1.390   .     A
C347   H349    1.084   .     S
C348   C360    1.393   .     A
C348   C352    1.398   .     A
C348   H350    1.078   .     S
C351   C353    1.414   .     A
C351   C383    1.514   .     S
C352   C393    1.532   .     S
C352   C354    1.427   .     A
C353   C355    1.421   .     A
C354   C356    1.424   .     A
C355   C403    1.520   .     S
C355   C357    1.416   .     A
C356   C413    1.525   .     S
C356   C358    1.412   .     A
C357   C359    1.410   .     A
C357   N423    1.439   .     S
C358   N426    1.443   .     S
C358   C360    1.408   .     A
C360   C29     1.479   1_565 S
C361   H363    1.081   .     S
C361   C365    1.406   .     A
C361   C375    1.413   .     A
C362   C366    1.407   .     A
C362   H364    1.081   .     S
C362   C376    1.412   .     A
C365   H367    1.079   .     S
C365   N369    1.361   .     A
C366   N370    1.362   .     A
C366   H368    1.075   .     S
N369   C371    1.378   .     A
N370   C372    1.382   .     A
C371   N429    1.428   .     S
C371   C373    1.418   .     A
C372   C374    1.418   .     A
C372   N432    1.429   .     S
C373   N435    1.437   .     S
C373   C375    1.411   .     A
C374   C376    1.411   .     A
C374   N438    1.436   .     S
C375   C1036   1.520   1_554 S
C376   C1035   1.520   .     S
N377   O379    1.300   .     A
N377   C455    1.438   .     S
N377   O488    1.300   .     S
O378   N597    1.300   1_455 S
N380   O382    1.301   .     A
N380   C566    1.445   1_455 S
N380   O601    1.301   1_455 S
O381   N490    1.301   .     S
C383   C384    1.539   .     S
C383   H391    1.109   .     S
C383   H392    1.108   .     S
C384   H390    1.107   .     S
C384   H389    1.111   .     S
C384   C385    1.525   .     S
C385   H386    1.107   .     S
C385   H388    1.111   .     S
C385   H607    1.110   1_455 S
H387   C495    1.110   .     S
C393   H401    1.112   .     S
C393   C394    1.541   .     S
C393   H402    1.111   .     S
C394   H400    1.112   .     S
C394   H399    1.112   .     S
C394   C395    1.524   .     S
C395   H397    1.111   .     S
C395   H398    1.110   .     S
C395   H396    1.107   .     S
C403   C404    1.539   .     S
C403   H411    1.109   .     S
C403   H412    1.102   .     S
C404   H410    1.111   .     S
C404   C405    1.530   .     S
C404   H409    1.112   .     S
C405   H407    1.110   .     S
C405   H408    1.110   .     S
C405   H516    1.110   .     S
H406   C625    1.110   1_455 S
C413   H422    1.110   .     S
C413   C414    1.542   .     S
C413   H421    1.104   .     S
C414   H420    1.112   .     S
C414   H419    1.110   .     S
C414   C635    1.526   1_455 S
C415   H417    1.111   .     S
C415   H416    1.109   .     S
C415   H418    1.109   .     S
C415   C524    1.526   .     S
N423   O424    1.301   .     A
N423   O425    1.300   .     A
N426   O428    1.300   .     A
N426   O427    1.301   .     A
N429   O430    1.300   .     A
N429   O431    1.299   .     A
N432   O434    1.301   .     A
N432   O433    1.300   .     A
N435   O437    1.301   .     A
N435   O1096   1.301   1_554 S
O436   N1095   1.301   .     S
N438   O439    1.301   .     A
N438   O440    1.301   .     A
O441   C445    1.294   .     A
O441   Cu453   1.960   .     S
O442   C446    1.292   .     A
O442   Cu454   1.960   .     S
O443   Cu454   1.963   .     S
O443   C445    1.296   .     A
O444   Cu453   1.963   .     S
O444   C446    1.304   .     A
C445   C463    1.464   .     S
C446   C464    1.477   .     S
O447   C451    1.281   .     A
O447   Cu453   1.982   .     S
O448   C452    1.285   .     A
O448   Cu454   1.982   .     S
O449   Cu454   1.987   .     S
O449   C451    1.300   .     A
O450   C452    1.297   .     A
O450   Cu453   1.987   .     S
C451   C455    1.444   .     S
C452   C456    1.447   .     S
Cu453  N480    2.017   .     S
Cu453  Cu454   2.684   .     S
Cu454  N479    2.017   .     S
C456   C565    1.370   .     S
C456   N600    1.445   .     S
C457   C469    1.393   .     A
C457   C461    1.390   .     A
C457   H459    1.084   .     S
C458   C470    1.393   .     A
C458   C462    1.398   .     A
C458   H460    1.078   .     S
C461   C463    1.414   .     A
C461   C493    1.514   .     S
C462   C503    1.532   .     S
C462   C464    1.427   .     A
C463   C465    1.421   .     A
C464   C466    1.424   .     A
C465   C513    1.520   .     S
C465   C467    1.416   .     A
C466   C523    1.525   .     S
C466   C468    1.412   .     A
C467   C469    1.410   .     A
C467   N533    1.439   .     S
C468   N536    1.443   .     S
C468   C470    1.408   .     A
C470   C139    1.479   1_565 S
C471   H473    1.081   .     S
C471   C475    1.406   .     A
C471   C485    1.413   .     A
C472   C476    1.407   .     A
C472   H474    1.081   .     S
C472   C486    1.412   .     A
C475   H477    1.079   .     S
C475   N479    1.361   .     A
C476   N480    1.362   .     A
C476   H478    1.075   .     S
N479   C481    1.378   .     A
N480   C482    1.382   .     A
C481   N539    1.428   .     S
C481   C483    1.418   .     A
C482   C484    1.418   .     A
C482   N542    1.429   .     S
C483   N545    1.437   .     S
C483   C485    1.411   .     A
C484   C486    1.411   .     A
C484   N548    1.436   .     S
C485   C1146   1.520   1_554 S
C486   C1145   1.520   .     S
N487   O489    1.300   .     A
N487   C565    1.438   .     S
N487   O598    1.300   .     S
N490   O492    1.301   .     A
O491   N600    1.301   .     S
C493   C494    1.539   .     S
C493   H501    1.109   .     S
C493   H502    1.108   .     S
C494   H500    1.107   .     S
C494   H499    1.111   .     S
C494   C495    1.525   .     S
C495   H496    1.107   .     S
C495   H498    1.111   .     S
H497   C605    1.110   .     S
C503   H511    1.112   .     S
C503   C504    1.541   .     S
C503   H512    1.111   .     S
C504   H510    1.112   .     S
C504   H509    1.112   .     S
C504   C505    1.524   .     S
C505   H507    1.111   .     S
C505   H508    1.110   .     S
C505   H506    1.107   .     S
C513   C514    1.539   .     S
C513   H521    1.109   .     S
C513   H522    1.102   .     S
C514   H520    1.111   .     S
C514   C515    1.530   .     S
C514   H519    1.112   .     S
C515   H517    1.110   .     S
C515   H518    1.110   .     S
C515   H626    1.110   .     S
C523   H532    1.110   .     S
C523   C524    1.542   .     S
C523   H531    1.104   .     S
C524   H530    1.112   .     S
C524   H529    1.110   .     S
C525   H527    1.111   .     S
C525   H526    1.109   .     S
C525   H528    1.109   .     S
C525   C634    1.526   .     S
N533   O534    1.301   .     A
N533   O535    1.300   .     A
N536   O538    1.300   .     A
N536   O537    1.301   .     A
N539   O540    1.300   .     A
N539   O541    1.299   .     A
N542   O544    1.301   .     A
N542   O543    1.300   .     A
N545   O547    1.301   .     A
N545   O1206   1.301   1_554 S
O546   N1205   1.301   .     S
N548   O549    1.301   .     A
N548   O550    1.301   .     A
O551   C555    1.294   .     A
O551   Cu563   1.960   .     S
O552   C556    1.292   .     A
O552   Cu564   1.960   .     S
O553   Cu564   1.963   .     S
O553   C555    1.296   .     A
O554   Cu563   1.963   .     S
O554   C556    1.304   .     A
C555   C573    1.464   .     S
C556   C574    1.477   .     S
O557   C561    1.281   .     A
O557   Cu563   1.982   .     S
O558   C562    1.285   .     A
O558   Cu564   1.982   .     S
O559   Cu564   1.987   .     S
O559   C561    1.300   .     A
O560   C562    1.297   .     A
O560   Cu563   1.987   .     S
C561   C565    1.444   .     S
C562   C566    1.447   .     S
Cu563  N590    2.017   .     S
Cu563  Cu564   2.684   .     S
Cu564  N589    2.017   .     S
C566   C345    1.370   1_655 S
C566   N380    1.445   1_655 S
C567   C579    1.393   .     A
C567   C571    1.390   .     A
C567   H569    1.084   .     S
C568   C580    1.393   .     A
C568   C572    1.398   .     A
C568   H570    1.078   .     S
C571   C573    1.414   .     A
C571   C603    1.514   .     S
C572   C613    1.532   .     S
C572   C574    1.427   .     A
C573   C575    1.421   .     A
C574   C576    1.424   .     A
C575   C623    1.520   .     S
C575   C577    1.416   .     A
C576   C633    1.525   .     S
C576   C578    1.412   .     A
C577   C579    1.410   .     A
C577   N643    1.439   .     S
C578   N646    1.443   .     S
C578   C580    1.408   .     A
C580   C249    1.479   1_565 S
C581   H583    1.081   .     S
C581   C585    1.406   .     A
C581   C595    1.413   .     A
C582   C586    1.407   .     A
C582   H584    1.081   .     S
C582   C596    1.412   .     A
C585   H587    1.079   .     S
C585   N589    1.361   .     A
C586   N590    1.362   .     A
C586   H588    1.075   .     S
N589   C591    1.378   .     A
N590   C592    1.382   .     A
C591   N649    1.428   .     S
C591   C593    1.418   .     A
C592   C594    1.418   .     A
C592   N652    1.429   .     S
C593   N655    1.437   .     S
C593   C595    1.411   .     A
C594   C596    1.411   .     A
C594   N658    1.436   .     S
C595   C1256   1.520   1_554 S
C596   C1255   1.520   .     S
N597   O599    1.300   .     A
N597   C345    1.438   1_655 S
N597   O378    1.300   1_655 S
N600   O602    1.301   .     A
O601   N380    1.301   1_655 S
C603   C604    1.539   .     S
C603   H611    1.109   .     S
C603   H612    1.108   .     S
C604   H610    1.107   .     S
C604   H609    1.111   .     S
C604   C605    1.525   .     S
C605   H606    1.107   .     S
C605   H608    1.111   .     S
H607   C385    1.110   1_655 S
C613   H621    1.112   .     S
C613   C614    1.541   .     S
C613   H622    1.111   .     S
C614   H620    1.112   .     S
C614   H619    1.112   .     S
C614   C615    1.524   .     S
C615   H617    1.111   .     S
C615   H618    1.110   .     S
C615   H616    1.107   .     S
C623   C624    1.539   .     S
C623   H631    1.109   .     S
C623   H632    1.102   .     S
C624   H630    1.111   .     S
C624   C625    1.530   .     S
C624   H629    1.112   .     S
C625   H627    1.110   .     S
C625   H628    1.110   .     S
C625   H406    1.110   1_655 S
C633   H642    1.110   .     S
C633   C634    1.542   .     S
C633   H641    1.104   .     S
C634   H640    1.112   .     S
C634   H639    1.110   .     S
C635   H637    1.111   .     S
C635   H636    1.109   .     S
C635   H638    1.109   .     S
C635   C414    1.526   1_655 S
N643   O644    1.301   .     A
N643   O645    1.300   .     A
N646   O648    1.300   .     A
N646   O647    1.301   .     A
N649   O650    1.300   .     A
N649   O651    1.299   .     A
N652   O654    1.301   .     A
N652   O653    1.300   .     A
N655   O657    1.301   .     A
N655   O1316   1.301   1_554 S
O656   N1315   1.301   .     S
N658   O659    1.301   .     A
N658   O660    1.301   .     A
O661   C665    1.294   .     A
O661   Cu673   1.960   .     S
O662   C666    1.292   .     A
O662   Cu674   1.960   .     S
O663   Cu674   1.963   .     S
O663   C665    1.296   .     A
O664   Cu673   1.963   .     S
O664   C666    1.304   .     A
C665   C683    1.464   .     S
C666   C684    1.477   .     S
O667   C671    1.281   .     A
O667   Cu673   1.982   .     S
O668   C672    1.285   .     A
O668   Cu674   1.982   .     S
O669   Cu674   1.987   .     S
O669   C671    1.300   .     A
O670   C672    1.297   .     A
O670   Cu673   1.987   .     S
C671   C675    1.444   .     S
C672   C676    1.447   .     S
Cu673  N700    2.017   .     S
Cu673  Cu674   2.684   .     S
Cu674  N699    2.017   .     S
C675   C896    1.370   1_455 S
C675   N927    1.438   1_455 S
C676   C785    1.370   .     S
C676   N820    1.445   .     S
C677   C689    1.393   .     A
C677   C681    1.390   .     A
C677   H679    1.084   .     S
C678   C690    1.393   .     A
C678   C682    1.398   .     A
C678   H680    1.078   .     S
C681   C683    1.414   .     A
C681   C713    1.514   .     S
C682   C723    1.532   .     S
C682   C684    1.427   .     A
C683   C685    1.421   .     A
C684   C686    1.424   .     A
C685   C733    1.520   .     S
C685   C687    1.416   .     A
C686   C743    1.525   .     S
C686   C688    1.412   .     A
C687   C689    1.410   .     A
C687   N753    1.439   .     S
C688   N756    1.443   .     S
C688   C690    1.408   .     A
C689   C1020   1.479   1_545 S
C690   C1019   1.479   .     S
C691   H693    1.081   .     S
C691   C695    1.406   .     A
C691   C705    1.413   .     A
C692   C696    1.407   .     A
C692   H694    1.081   .     S
C692   C706    1.412   .     A
C695   H697    1.079   .     S
C695   N699    1.361   .     A
C696   N700    1.362   .     A
C696   H698    1.075   .     S
N699   C701    1.378   .     A
N700   C702    1.382   .     A
C701   N759    1.428   .     S
C701   C703    1.418   .     A
C702   C704    1.418   .     A
C702   N762    1.429   .     S
C703   N765    1.437   .     S
C703   C705    1.411   .     A
C704   C706    1.411   .     A
C704   N768    1.436   .     S
C706   C45     1.520   1_556 S
N707   O709    1.300   .     A
N707   C785    1.438   .     S
N707   O818    1.300   .     S
O708   N927    1.300   1_455 S
N710   O712    1.301   .     A
N710   C896    1.445   1_455 S
N710   O931    1.301   1_455 S
O711   N820    1.301   .     S
C713   C714    1.539   .     S
C713   H721    1.109   .     S
C713   H722    1.108   .     S
C714   H720    1.107   .     S
C714   H719    1.111   .     S
C714   C715    1.525   .     S
C715   H716    1.107   .     S
C715   H718    1.111   .     S
C715   H937    1.110   1_455 S
H717   C825    1.110   .     S
C723   H731    1.112   .     S
C723   C724    1.541   .     S
C723   H732    1.111   .     S
C724   H730    1.112   .     S
C724   H729    1.112   .     S
C724   C725    1.524   .     S
C725   H727    1.111   .     S
C725   H728    1.110   .     S
C725   H726    1.107   .     S
C733   C734    1.539   .     S
C733   H741    1.109   .     S
C733   H742    1.102   .     S
C734   H740    1.111   .     S
C734   C735    1.530   .     S
C734   H739    1.112   .     S
C735   H737    1.110   .     S
C735   H738    1.110   .     S
C735   H846    1.110   .     S
H736   C955    1.110   1_455 S
C743   H752    1.110   .     S
C743   C744    1.542   .     S
C743   H751    1.104   .     S
C744   H750    1.112   .     S
C744   H749    1.110   .     S
C744   C965    1.526   1_455 S
C745   H747    1.111   .     S
C745   H746    1.109   .     S
C745   H748    1.109   .     S
C745   C854    1.526   .     S
N753   O754    1.301   .     A
N753   O755    1.300   .     A
N756   O758    1.300   .     A
N756   O757    1.301   .     A
N759   O760    1.300   .     A
N759   O761    1.299   .     A
N762   O764    1.301   .     A
N762   O763    1.300   .     A
N765   O767    1.301   .     A
O766   N105    1.301   1_556 S
N768   O769    1.301   .     A
N768   O770    1.301   .     A
O771   C775    1.294   .     A
O771   Cu783   1.960   .     S
O772   C776    1.292   .     A
O772   Cu784   1.960   .     S
O773   Cu784   1.963   .     S
O773   C775    1.296   .     A
O774   Cu783   1.963   .     S
O774   C776    1.304   .     A
C775   C793    1.464   .     S
C776   C794    1.477   .     S
O777   C781    1.281   .     A
O777   Cu783   1.982   .     S
O778   C782    1.285   .     A
O778   Cu784   1.982   .     S
O779   Cu784   1.987   .     S
O779   C781    1.300   .     A
O780   C782    1.297   .     A
O780   Cu783   1.987   .     S
C781   C785    1.444   .     S
C782   C786    1.447   .     S
Cu783  N810    2.017   .     S
Cu783  Cu784   2.684   .     S
Cu784  N809    2.017   .     S
C786   C895    1.370   .     S
C786   N930    1.445   .     S
C787   C799    1.393   .     A
C787   C791    1.390   .     A
C787   H789    1.084   .     S
C788   C800    1.393   .     A
C788   C792    1.398   .     A
C788   H790    1.078   .     S
C791   C793    1.414   .     A
C791   C823    1.514   .     S
C792   C833    1.532   .     S
C792   C794    1.427   .     A
C793   C795    1.421   .     A
C794   C796    1.424   .     A
C795   C843    1.520   .     S
C795   C797    1.416   .     A
C796   C853    1.525   .     S
C796   C798    1.412   .     A
C797   C799    1.410   .     A
C797   N863    1.439   .     S
C798   N866    1.443   .     S
C798   C800    1.408   .     A
C799   C1130   1.479   1_545 S
C800   C1129   1.479   .     S
C801   H803    1.081   .     S
C801   C805    1.406   .     A
C801   C815    1.413   .     A
C802   C806    1.407   .     A
C802   H804    1.081   .     S
C802   C816    1.412   .     A
C805   H807    1.079   .     S
C805   N809    1.361   .     A
C806   N810    1.362   .     A
C806   H808    1.075   .     S
N809   C811    1.378   .     A
N810   C812    1.382   .     A
C811   N869    1.428   .     S
C811   C813    1.418   .     A
C812   C814    1.418   .     A
C812   N872    1.429   .     S
C813   N875    1.437   .     S
C813   C815    1.411   .     A
C814   C816    1.411   .     A
C814   N878    1.436   .     S
C816   C155    1.520   1_556 S
N817   O819    1.300   .     A
N817   C895    1.438   .     S
N817   O928    1.300   .     S
N820   O822    1.301   .     A
O821   N930    1.301   .     S
C823   C824    1.539   .     S
C823   H831    1.109   .     S
C823   H832    1.108   .     S
C824   H830    1.107   .     S
C824   H829    1.111   .     S
C824   C825    1.525   .     S
C825   H826    1.107   .     S
C825   H828    1.111   .     S
H827   C935    1.110   .     S
C833   H841    1.112   .     S
C833   C834    1.541   .     S
C833   H842    1.111   .     S
C834   H840    1.112   .     S
C834   H839    1.112   .     S
C834   C835    1.524   .     S
C835   H837    1.111   .     S
C835   H838    1.110   .     S
C835   H836    1.107   .     S
C843   C844    1.539   .     S
C843   H851    1.109   .     S
C843   H852    1.102   .     S
C844   H850    1.111   .     S
C844   C845    1.530   .     S
C844   H849    1.112   .     S
C845   H847    1.110   .     S
C845   H848    1.110   .     S
C845   H956    1.110   .     S
C853   H862    1.110   .     S
C853   C854    1.542   .     S
C853   H861    1.104   .     S
C854   H860    1.112   .     S
C854   H859    1.110   .     S
C855   H857    1.111   .     S
C855   H856    1.109   .     S
C855   H858    1.109   .     S
C855   C964    1.526   .     S
N863   O864    1.301   .     A
N863   O865    1.300   .     A
N866   O868    1.300   .     A
N866   O867    1.301   .     A
N869   O870    1.300   .     A
N869   O871    1.299   .     A
N872   O874    1.301   .     A
N872   O873    1.300   .     A
N875   O877    1.301   .     A
O876   N215    1.301   1_556 S
N878   O879    1.301   .     A
N878   O880    1.301   .     A
O881   C885    1.294   .     A
O881   Cu893   1.960   .     S
O882   C886    1.292   .     A
O882   Cu894   1.960   .     S
O883   Cu894   1.963   .     S
O883   C885    1.296   .     A
O884   Cu893   1.963   .     S
O884   C886    1.304   .     A
C885   C903    1.464   .     S
C886   C904    1.477   .     S
O887   C891    1.281   .     A
O887   Cu893   1.982   .     S
O888   C892    1.285   .     A
O888   Cu894   1.982   .     S
O889   Cu894   1.987   .     S
O889   C891    1.300   .     A
O890   C892    1.297   .     A
O890   Cu893   1.987   .     S
C891   C895    1.444   .     S
C892   C896    1.447   .     S
Cu893  N920    2.017   .     S
Cu893  Cu894   2.684   .     S
Cu894  N919    2.017   .     S
C896   C675    1.370   1_655 S
C896   N710    1.445   1_655 S
C897   C909    1.393   .     A
C897   C901    1.390   .     A
C897   H899    1.084   .     S
C898   C910    1.393   .     A
C898   C902    1.398   .     A
C898   H900    1.078   .     S
C901   C903    1.414   .     A
C901   C933    1.514   .     S
C902   C943    1.532   .     S
C902   C904    1.427   .     A
C903   C905    1.421   .     A
C904   C906    1.424   .     A
C905   C953    1.520   .     S
C905   C907    1.416   .     A
C906   C963    1.525   .     S
C906   C908    1.412   .     A
C907   C909    1.410   .     A
C907   N973    1.439   .     S
C908   N976    1.443   .     S
C908   C910    1.408   .     A
C909   C1240   1.479   1_545 S
C910   C1239   1.479   .     S
C911   H913    1.081   .     S
C911   C915    1.406   .     A
C911   C925    1.413   .     A
C912   C916    1.407   .     A
C912   H914    1.081   .     S
C912   C926    1.412   .     A
C915   H917    1.079   .     S
C915   N919    1.361   .     A
C916   N920    1.362   .     A
C916   H918    1.075   .     S
N919   C921    1.378   .     A
N920   C922    1.382   .     A
C921   N979    1.428   .     S
C921   C923    1.418   .     A
C922   C924    1.418   .     A
C922   N982    1.429   .     S
C923   N985    1.437   .     S
C923   C925    1.411   .     A
C924   C926    1.411   .     A
C924   N988    1.436   .     S
C926   C265    1.520   1_556 S
N927   O929    1.300   .     A
N927   C675    1.438   1_655 S
N927   O708    1.300   1_655 S
N930   O932    1.301   .     A
O931   N710    1.301   1_655 S
C933   C934    1.539   .     S
C933   H941    1.109   .     S
C933   H942    1.108   .     S
C934   H940    1.107   .     S
C934   H939    1.111   .     S
C934   C935    1.525   .     S
C935   H936    1.107   .     S
C935   H938    1.111   .     S
H937   C715    1.110   1_655 S
C943   H951    1.112   .     S
C943   C944    1.541   .     S
C943   H952    1.111   .     S
C944   H950    1.112   .     S
C944   H949    1.112   .     S
C944   C945    1.524   .     S
C945   H947    1.111   .     S
C945   H948    1.110   .     S
C945   H946    1.107   .     S
C953   C954    1.539   .     S
C953   H961    1.109   .     S
C953   H962    1.102   .     S
C954   H960    1.111   .     S
C954   C955    1.530   .     S
C954   H959    1.112   .     S
C955   H957    1.110   .     S
C955   H958    1.110   .     S
C955   H736    1.110   1_655 S
C963   H972    1.110   .     S
C963   C964    1.542   .     S
C963   H971    1.104   .     S
C964   H970    1.112   .     S
C964   H969    1.110   .     S
C965   H967    1.111   .     S
C965   H966    1.109   .     S
C965   H968    1.109   .     S
C965   C744    1.526   1_655 S
N973   O974    1.301   .     A
N973   O975    1.300   .     A
N976   O978    1.300   .     A
N976   O977    1.301   .     A
N979   O980    1.300   .     A
N979   O981    1.299   .     A
N982   O984    1.301   .     A
N982   O983    1.300   .     A
N985   O987    1.301   .     A
O986   N325    1.301   1_556 S
N988   O989    1.301   .     A
N988   O990    1.301   .     A
O991   C995    1.294   .     A
O991   Cu1003  1.960   .     S
O992   C996    1.292   .     A
O992   Cu1004  1.960   .     S
O993   Cu1004  1.963   .     S
O993   C995    1.296   .     A
O994   Cu1003  1.963   .     S
O994   C996    1.304   .     A
C995   C1013   1.464   .     S
C996   C1014   1.477   .     S
O997   C1001   1.281   .     A
O997   Cu1003  1.982   .     S
O998   C1002   1.285   .     A
O998   Cu1004  1.982   .     S
O999   Cu1004  1.987   .     S
O999   C1001   1.300   .     A
O1000  C1002   1.297   .     A
O1000  Cu1003  1.987   .     S
C1001  C1005   1.444   .     S
C1002  C1006   1.447   .     S
Cu1003 N1030   2.017   .     S
Cu1003 Cu1004  2.684   .     S
Cu1004 N1029   2.017   .     S
C1005  C1226   1.370   1_455 S
C1005  N1257   1.438   1_455 S
C1006  C1115   1.370   .     S
C1006  N1150   1.445   .     S
C1007  C1019   1.393   .     A
C1007  C1011   1.390   .     A
C1007  H1009   1.084   .     S
C1008  C1020   1.393   .     A
C1008  C1012   1.398   .     A
C1008  H1010   1.078   .     S
C1011  C1013   1.414   .     A
C1011  C1043   1.514   .     S
C1012  C1053   1.532   .     S
C1012  C1014   1.427   .     A
C1013  C1015   1.421   .     A
C1014  C1016   1.424   .     A
C1015  C1063   1.520   .     S
C1015  C1017   1.416   .     A
C1016  C1073   1.525   .     S
C1016  C1018   1.412   .     A
C1017  C1019   1.410   .     A
C1017  N1083   1.439   .     S
C1018  N1086   1.443   .     S
C1018  C1020   1.408   .     A
C1020  C689    1.479   1_565 S
C1021  H1023   1.081   .     S
C1021  C1025   1.406   .     A
C1021  C1035   1.413   .     A
C1022  C1026   1.407   .     A
C1022  H1024   1.081   .     S
C1022  C1036   1.412   .     A
C1025  H1027   1.079   .     S
C1025  N1029   1.361   .     A
C1026  N1030   1.362   .     A
C1026  H1028   1.075   .     S
N1029  C1031   1.378   .     A
N1030  C1032   1.382   .     A
C1031  N1089   1.428   .     S
C1031  C1033   1.418   .     A
C1032  C1034   1.418   .     A
C1032  N1092   1.429   .     S
C1033  N1095   1.437   .     S
C1033  C1035   1.411   .     A
C1034  C1036   1.411   .     A
C1034  N1098   1.436   .     S
C1036  C375    1.520   1_556 S
N1037  O1039   1.300   .     A
N1037  C1115   1.438   .     S
N1037  O1148   1.300   .     S
O1038  N1257   1.300   1_455 S
N1040  O1042   1.301   .     A
N1040  C1226   1.445   1_455 S
N1040  O1261   1.301   1_455 S
O1041  N1150   1.301   .     S
C1043  C1044   1.539   .     S
C1043  H1051   1.109   .     S
C1043  H1052   1.108   .     S
C1044  H1050   1.107   .     S
C1044  H1049   1.111   .     S
C1044  C1045   1.525   .     S
C1045  H1046   1.107   .     S
C1045  H1048   1.111   .     S
C1045  H1267   1.110   1_455 S
H1047  C1155   1.110   .     S
C1053  H1061   1.112   .     S
C1053  C1054   1.541   .     S
C1053  H1062   1.111   .     S
C1054  H1060   1.112   .     S
C1054  H1059   1.112   .     S
C1054  C1055   1.524   .     S
C1055  H1057   1.111   .     S
C1055  H1058   1.110   .     S
C1055  H1056   1.107   .     S
C1063  C1064   1.539   .     S
C1063  H1071   1.109   .     S
C1063  H1072   1.102   .     S
C1064  H1070   1.111   .     S
C1064  C1065   1.530   .     S
C1064  H1069   1.112   .     S
C1065  H1067   1.110   .     S
C1065  H1068   1.110   .     S
C1065  H1176   1.110   .     S
H1066  C1285   1.110   1_455 S
C1073  H1082   1.110   .     S
C1073  C1074   1.542   .     S
C1073  H1081   1.104   .     S
C1074  H1080   1.112   .     S
C1074  H1079   1.110   .     S
C1074  C1295   1.526   1_455 S
C1075  H1077   1.111   .     S
C1075  H1076   1.109   .     S
C1075  H1078   1.109   .     S
C1075  C1184   1.526   .     S
N1083  O1084   1.301   .     A
N1083  O1085   1.300   .     A
N1086  O1088   1.300   .     A
N1086  O1087   1.301   .     A
N1089  O1090   1.300   .     A
N1089  O1091   1.299   .     A
N1092  O1094   1.301   .     A
N1092  O1093   1.300   .     A
N1095  O1097   1.301   .     A
O1096  N435    1.301   1_556 S
N1098  O1099   1.301   .     A
N1098  O1100   1.301   .     A
O1101  C1105   1.294   .     A
O1101  Cu1113  1.960   .     S
O1102  C1106   1.292   .     A
O1102  Cu1114  1.960   .     S
O1103  Cu1114  1.963   .     S
O1103  C1105   1.296   .     A
O1104  Cu1113  1.963   .     S
O1104  C1106   1.304   .     A
C1105  C1123   1.464   .     S
C1106  C1124   1.477   .     S
O1107  C1111   1.281   .     A
O1107  Cu1113  1.982   .     S
O1108  C1112   1.285   .     A
O1108  Cu1114  1.982   .     S
O1109  Cu1114  1.987   .     S
O1109  C1111   1.300   .     A
O1110  C1112   1.297   .     A
O1110  Cu1113  1.987   .     S
C1111  C1115   1.444   .     S
C1112  C1116   1.447   .     S
Cu1113 N1140   2.017   .     S
Cu1113 Cu1114  2.684   .     S
Cu1114 N1139   2.017   .     S
C1116  C1225   1.370   .     S
C1116  N1260   1.445   .     S
C1117  C1129   1.393   .     A
C1117  C1121   1.390   .     A
C1117  H1119   1.084   .     S
C1118  C1130   1.393   .     A
C1118  C1122   1.398   .     A
C1118  H1120   1.078   .     S
C1121  C1123   1.414   .     A
C1121  C1153   1.514   .     S
C1122  C1163   1.532   .     S
C1122  C1124   1.427   .     A
C1123  C1125   1.421   .     A
C1124  C1126   1.424   .     A
C1125  C1173   1.520   .     S
C1125  C1127   1.416   .     A
C1126  C1183   1.525   .     S
C1126  C1128   1.412   .     A
C1127  C1129   1.410   .     A
C1127  N1193   1.439   .     S
C1128  N1196   1.443   .     S
C1128  C1130   1.408   .     A
C1130  C799    1.479   1_565 S
C1131  H1133   1.081   .     S
C1131  C1135   1.406   .     A
C1131  C1145   1.413   .     A
C1132  C1136   1.407   .     A
C1132  H1134   1.081   .     S
C1132  C1146   1.412   .     A
C1135  H1137   1.079   .     S
C1135  N1139   1.361   .     A
C1136  N1140   1.362   .     A
C1136  H1138   1.075   .     S
N1139  C1141   1.378   .     A
N1140  C1142   1.382   .     A
C1141  N1199   1.428   .     S
C1141  C1143   1.418   .     A
C1142  C1144   1.418   .     A
C1142  N1202   1.429   .     S
C1143  N1205   1.437   .     S
C1143  C1145   1.411   .     A
C1144  C1146   1.411   .     A
C1144  N1208   1.436   .     S
C1146  C485    1.520   1_556 S
N1147  O1149   1.300   .     A
N1147  C1225   1.438   .     S
N1147  O1258   1.300   .     S
N1150  O1152   1.301   .     A
O1151  N1260   1.301   .     S
C1153  C1154   1.539   .     S
C1153  H1161   1.109   .     S
C1153  H1162   1.108   .     S
C1154  H1160   1.107   .     S
C1154  H1159   1.111   .     S
C1154  C1155   1.525   .     S
C1155  H1156   1.107   .     S
C1155  H1158   1.111   .     S
H1157  C1265   1.110   .     S
C1163  H1171   1.112   .     S
C1163  C1164   1.541   .     S
C1163  H1172   1.111   .     S
C1164  H1170   1.112   .     S
C1164  H1169   1.112   .     S
C1164  C1165   1.524   .     S
C1165  H1167   1.111   .     S
C1165  H1168   1.110   .     S
C1165  H1166   1.107   .     S
C1173  C1174   1.539   .     S
C1173  H1181   1.109   .     S
C1173  H1182   1.102   .     S
C1174  H1180   1.111   .     S
C1174  C1175   1.530   .     S
C1174  H1179   1.112   .     S
C1175  H1177   1.110   .     S
C1175  H1178   1.110   .     S
C1175  H1286   1.110   .     S
C1183  H1192   1.110   .     S
C1183  C1184   1.542   .     S
C1183  H1191   1.104   .     S
C1184  H1190   1.112   .     S
C1184  H1189   1.110   .     S
C1185  H1187   1.111   .     S
C1185  H1186   1.109   .     S
C1185  H1188   1.109   .     S
C1185  C1294   1.526   .     S
N1193  O1194   1.301   .     A
N1193  O1195   1.300   .     A
N1196  O1198   1.300   .     A
N1196  O1197   1.301   .     A
N1199  O1200   1.300   .     A
N1199  O1201   1.299   .     A
N1202  O1204   1.301   .     A
N1202  O1203   1.300   .     A
N1205  O1207   1.301   .     A
O1206  N545    1.301   1_556 S
N1208  O1209   1.301   .     A
N1208  O1210   1.301   .     A
O1211  C1215   1.294   .     A
O1211  Cu1223  1.960   .     S
O1212  C1216   1.292   .     A
O1212  Cu1224  1.960   .     S
O1213  Cu1224  1.963   .     S
O1213  C1215   1.296   .     A
O1214  Cu1223  1.963   .     S
O1214  C1216   1.304   .     A
C1215  C1233   1.464   .     S
C1216  C1234   1.477   .     S
O1217  C1221   1.281   .     A
O1217  Cu1223  1.982   .     S
O1218  C1222   1.285   .     A
O1218  Cu1224  1.982   .     S
O1219  Cu1224  1.987   .     S
O1219  C1221   1.300   .     A
O1220  C1222   1.297   .     A
O1220  Cu1223  1.987   .     S
C1221  C1225   1.444   .     S
C1222  C1226   1.447   .     S
Cu1223 N1250   2.017   .     S
Cu1223 Cu1224  2.684   .     S
Cu1224 N1249   2.017   .     S
C1226  C1005   1.370   1_655 S
C1226  N1040   1.445   1_655 S
C1227  C1239   1.393   .     A
C1227  C1231   1.390   .     A
C1227  H1229   1.084   .     S
C1228  C1240   1.393   .     A
C1228  C1232   1.398   .     A
C1228  H1230   1.078   .     S
C1231  C1233   1.414   .     A
C1231  C1263   1.514   .     S
C1232  C1273   1.532   .     S
C1232  C1234   1.427   .     A
C1233  C1235   1.421   .     A
C1234  C1236   1.424   .     A
C1235  C1283   1.520   .     S
C1235  C1237   1.416   .     A
C1236  C1293   1.525   .     S
C1236  C1238   1.412   .     A
C1237  C1239   1.410   .     A
C1237  N1303   1.439   .     S
C1238  N1306   1.443   .     S
C1238  C1240   1.408   .     A
C1240  C909    1.479   1_565 S
C1241  H1243   1.081   .     S
C1241  C1245   1.406   .     A
C1241  C1255   1.413   .     A
C1242  C1246   1.407   .     A
C1242  H1244   1.081   .     S
C1242  C1256   1.412   .     A
C1245  H1247   1.079   .     S
C1245  N1249   1.361   .     A
C1246  N1250   1.362   .     A
C1246  H1248   1.075   .     S
N1249  C1251   1.378   .     A
N1250  C1252   1.382   .     A
C1251  N1309   1.428   .     S
C1251  C1253   1.418   .     A
C1252  C1254   1.418   .     A
C1252  N1312   1.429   .     S
C1253  N1315   1.437   .     S
C1253  C1255   1.411   .     A
C1254  C1256   1.411   .     A
C1254  N1318   1.436   .     S
C1256  C595    1.520   1_556 S
N1257  O1259   1.300   .     A
N1257  C1005   1.438   1_655 S
N1257  O1038   1.300   1_655 S
N1260  O1262   1.301   .     A
O1261  N1040   1.301   1_655 S
C1263  C1264   1.539   .     S
C1263  H1271   1.109   .     S
C1263  H1272   1.108   .     S
C1264  H1270   1.107   .     S
C1264  H1269   1.111   .     S
C1264  C1265   1.525   .     S
C1265  H1266   1.107   .     S
C1265  H1268   1.111   .     S
H1267  C1045   1.110   1_655 S
C1273  H1281   1.112   .     S
C1273  C1274   1.541   .     S
C1273  H1282   1.111   .     S
C1274  H1280   1.112   .     S
C1274  H1279   1.112   .     S
C1274  C1275   1.524   .     S
C1275  H1277   1.111   .     S
C1275  H1278   1.110   .     S
C1275  H1276   1.107   .     S
C1283  C1284   1.539   .     S
C1283  H1291   1.109   .     S
C1283  H1292   1.102   .     S
C1284  H1290   1.111   .     S
C1284  C1285   1.530   .     S
C1284  H1289   1.112   .     S
C1285  H1287   1.110   .     S
C1285  H1288   1.110   .     S
C1285  H1066   1.110   1_655 S
C1293  H1302   1.110   .     S
C1293  C1294   1.542   .     S
C1293  H1301   1.104   .     S
C1294  H1300   1.112   .     S
C1294  H1299   1.110   .     S
C1295  H1297   1.111   .     S
C1295  H1296   1.109   .     S
C1295  H1298   1.109   .     S
C1295  C1074   1.526   1_655 S
N1303  O1304   1.301   .     A
N1303  O1305   1.300   .     A
N1306  O1308   1.300   .     A
N1306  O1307   1.301   .     A
N1309  O1310   1.300   .     A
N1309  O1311   1.299   .     A
N1312  O1314   1.301   .     A
N1312  O1313   1.300   .     A
N1315  O1317   1.301   .     A
O1316  N655    1.301   1_556 S
N1318  O1319   1.301   .     A
N1318  O1320   1.301   .     A
