data_str_m2_o2_o10_pcu_sym.249
_audit_creation_date              2020-01-03
_audit_creation_method            'Materials Studio'
_symmetry_space_group_name_H-M    'P1'
_symmetry_Int_Tables_number       1
_symmetry_cell_setting            triclinic
loop_
_symmetry_equiv_pos_as_xyz
  x,y,z
_cell_length_a                    26.1999
_cell_length_b                    30.2848
_cell_length_c                    27.8207
_cell_angle_alpha                 90.3809
_cell_angle_beta                  98.1616
_cell_angle_gamma                 90.5059
loop_
_atom_site_label
_atom_site_type_symbol
_atom_site_fract_x
_atom_site_fract_y
_atom_site_fract_z
_atom_site_U_iso_or_equiv
_atom_site_adp_type
_atom_site_occupancy
C1     C     0.16641   0.16499   0.24982   0.00000  Uiso   1.00
C2     C     0.16642   0.33505   0.25007   0.00000  Uiso   1.00
C3     C     0.20562   0.27214   0.05972   0.00000  Uiso   1.00
C4     C     0.13818   0.21815   0.44158   0.00000  Uiso   1.00
C5     C     0.20395   0.27266   0.11003   0.00000  Uiso   1.00
C6     C     0.13779   0.21960   0.39099   0.00000  Uiso   1.00
C7     C     0.13025   0.22622   0.09957   0.00000  Uiso   1.00
C8     C     0.19679   0.27950   0.39966   0.00000  Uiso   1.00
C9     C     0.12949   0.22639   0.04881   0.00000  Uiso   1.00
C10    C     0.19675   0.28003   0.45031   0.00000  Uiso   1.00
C11    C     0.16760   0.24921   0.02750   0.00000  Uiso   1.00
C12    C     0.16748   0.24907   0.47271   0.00000  Uiso   1.00
C13    C     0.06791   0.24996   0.23752   0.00000  Uiso   1.00
C14    C     0.26543   0.25004   0.26247   0.00000  Uiso   1.00
C15    C     0.01257   0.24996   0.23069   0.00000  Uiso   1.00
C16    C     0.32076   0.25003   0.26929   0.00000  Uiso   1.00
C17    C     0.14782   0.04790   0.28761   0.00000  Uiso   1.00
C18    C     0.15054   0.45185   0.20614   0.00000  Uiso   1.00
C19    C     0.14876   0.09379   0.28793   0.00000  Uiso   1.00
C20    C     0.15139   0.40596   0.20635   0.00000  Uiso   1.00
C21    C     0.16564   0.11678   0.24947   0.00000  Uiso   1.00
C22    C     0.16562   0.38333   0.24996   0.00000  Uiso   1.00
C23    C     0.18168   0.09341   0.21071   0.00000  Uiso   1.00
C24    C     0.17908   0.40719   0.29328   0.00000  Uiso   1.00
C25    C     0.18151   0.04749   0.21075   0.00000  Uiso   1.00
C26    C     0.17901   0.45308   0.29298   0.00000  Uiso   1.00
C27    C     0.16452   0.02436   0.24918   0.00000  Uiso   1.00
C28    C     0.16461   0.47580   0.24943   0.00000  Uiso   1.00
Cu29   Cu    0.16667   0.25000   0.29822   0.00000  Uiso   1.00
Cu30   Cu    0.16667   0.25001   0.20179   0.00000  Uiso   1.00
H31    H     0.32578   0.24991   0.19372   0.00000  Uiso   1.00
H32    H     0.00756   0.25007   0.30626   0.00000  Uiso   1.00
H33    H     0.13359   0.03088   0.31721   0.00000  Uiso   1.00
H34    H     0.13838   0.46856   0.17220   0.00000  Uiso   1.00
H35    H     0.13566   0.11126   0.31794   0.00000  Uiso   1.00
H36    H     0.14033   0.38821   0.17249   0.00000  Uiso   1.00
H37    H     0.19516   0.11059   0.18081   0.00000  Uiso   1.00
H38    H     0.19037   0.39049   0.32727   0.00000  Uiso   1.00
H39    H     0.23725   0.28939   0.04696   0.00000  Uiso   1.00
H40    H     0.11588   0.19232   0.45552   0.00000  Uiso   1.00
N41    N     0.16667   0.25001   0.12935   0.00000  Uiso   1.00
N42    N     0.16667   0.24999   0.37066   0.00000  Uiso   1.00
O43    O     0.16667   0.18573   0.29072   0.00000  Uiso   1.00
O44    O     0.16666   0.31428   0.20929   0.00000  Uiso   1.00
O45    O     0.16667   0.18573   0.20928   0.00000  Uiso   1.00
O46    O     0.16666   0.31427   0.29072   0.00000  Uiso   1.00
O47    O     0.09161   0.25000   0.28132   0.00000  Uiso   1.00
O48    O     0.24172   0.25001   0.21868   0.00000  Uiso   1.00
O49    O     0.09161   0.25000   0.19989   0.00000  Uiso   1.00
O50    O     0.24172   0.25000   0.30012   0.00000  Uiso   1.00
H51    H     0.19540   0.03014   0.18109   0.00000  Uiso   1.00
H52    H     0.19090   0.47074   0.32674   0.00000  Uiso   1.00
H53    H     0.23315   0.29088   0.13376   0.00000  Uiso   1.00
H54    H     0.11470   0.19584   0.36796   0.00000  Uiso   1.00
N55    N     0.09298   0.20031   0.11999   0.00000  Uiso   1.00
H56    H     0.05626   0.21084   0.10506   0.00000  Uiso   1.00
H57    H     0.09674   0.16742   0.10946   0.00000  Uiso   1.00
N58    N     0.22930   0.30974   0.37866   0.00000  Uiso   1.00
H59    H     0.26748   0.30327   0.39326   0.00000  Uiso   1.00
H60    H     0.22090   0.34161   0.38963   0.00000  Uiso   1.00
H61    H     0.09861   0.20859   0.02688   0.00000  Uiso   1.00
H62    H     0.21961   0.30519   0.47124   0.00000  Uiso   1.00
C63    C     0.49974   0.16499   0.24982   0.00000  Uiso   1.00
C64    C     0.49975   0.33505   0.25007   0.00000  Uiso   1.00
C65    C     0.53895   0.27214   0.05972   0.00000  Uiso   1.00
C66    C     0.47152   0.21815   0.44158   0.00000  Uiso   1.00
C67    C     0.53728   0.27266   0.11003   0.00000  Uiso   1.00
C68    C     0.47113   0.21960   0.39099   0.00000  Uiso   1.00
C69    C     0.46358   0.22622   0.09957   0.00000  Uiso   1.00
C70    C     0.53012   0.27950   0.39966   0.00000  Uiso   1.00
C71    C     0.46282   0.22639   0.04881   0.00000  Uiso   1.00
C72    C     0.53008   0.28003   0.45031   0.00000  Uiso   1.00
C73    C     0.50093   0.24921   0.02750   0.00000  Uiso   1.00
C74    C     0.50081   0.24907   0.47271   0.00000  Uiso   1.00
C75    C     0.40124   0.24996   0.23752   0.00000  Uiso   1.00
C76    C     0.59876   0.25004   0.26247   0.00000  Uiso   1.00
C77    C     0.34590   0.24996   0.23069   0.00000  Uiso   1.00
C78    C     0.65410   0.25003   0.26929   0.00000  Uiso   1.00
C79    C     0.48115   0.04790   0.28761   0.00000  Uiso   1.00
C80    C     0.48388   0.45185   0.20614   0.00000  Uiso   1.00
C81    C     0.48209   0.09379   0.28793   0.00000  Uiso   1.00
C82    C     0.48472   0.40596   0.20635   0.00000  Uiso   1.00
C83    C     0.49897   0.11678   0.24947   0.00000  Uiso   1.00
C84    C     0.49895   0.38333   0.24996   0.00000  Uiso   1.00
C85    C     0.51501   0.09341   0.21071   0.00000  Uiso   1.00
C86    C     0.51242   0.40719   0.29328   0.00000  Uiso   1.00
C87    C     0.51484   0.04749   0.21075   0.00000  Uiso   1.00
C88    C     0.51234   0.45308   0.29298   0.00000  Uiso   1.00
C89    C     0.49785   0.02436   0.24918   0.00000  Uiso   1.00
C90    C     0.49795   0.47580   0.24943   0.00000  Uiso   1.00
Cu91   Cu    0.50000   0.25000   0.29822   0.00000  Uiso   1.00
Cu92   Cu    0.50000   0.25001   0.20179   0.00000  Uiso   1.00
H93    H     0.65911   0.24991   0.19372   0.00000  Uiso   1.00
H94    H     0.34089   0.25007   0.30626   0.00000  Uiso   1.00
H95    H     0.46692   0.03088   0.31721   0.00000  Uiso   1.00
H96    H     0.47171   0.46856   0.17220   0.00000  Uiso   1.00
H97    H     0.46899   0.11126   0.31794   0.00000  Uiso   1.00
H98    H     0.47366   0.38821   0.17249   0.00000  Uiso   1.00
H99    H     0.52849   0.11059   0.18081   0.00000  Uiso   1.00
H100   H     0.52370   0.39049   0.32727   0.00000  Uiso   1.00
H101   H     0.57058   0.28939   0.04696   0.00000  Uiso   1.00
H102   H     0.44921   0.19232   0.45552   0.00000  Uiso   1.00
N103   N     0.50000   0.25001   0.12935   0.00000  Uiso   1.00
N104   N     0.50000   0.24999   0.37066   0.00000  Uiso   1.00
O105   O     0.50000   0.18573   0.29072   0.00000  Uiso   1.00
O106   O     0.50000   0.31428   0.20929   0.00000  Uiso   1.00
O107   O     0.50000   0.18573   0.20928   0.00000  Uiso   1.00
O108   O     0.50000   0.31427   0.29072   0.00000  Uiso   1.00
O109   O     0.42495   0.25000   0.28132   0.00000  Uiso   1.00
O110   O     0.57505   0.25001   0.21868   0.00000  Uiso   1.00
O111   O     0.42495   0.25000   0.19989   0.00000  Uiso   1.00
O112   O     0.57505   0.25000   0.30012   0.00000  Uiso   1.00
H113   H     0.52873   0.03014   0.18109   0.00000  Uiso   1.00
H114   H     0.52423   0.47074   0.32674   0.00000  Uiso   1.00
H115   H     0.56648   0.29088   0.13376   0.00000  Uiso   1.00
H116   H     0.44804   0.19584   0.36796   0.00000  Uiso   1.00
N117   N     0.42631   0.20031   0.11999   0.00000  Uiso   1.00
H118   H     0.38960   0.21084   0.10506   0.00000  Uiso   1.00
H119   H     0.43007   0.16742   0.10946   0.00000  Uiso   1.00
N120   N     0.56263   0.30974   0.37866   0.00000  Uiso   1.00
H121   H     0.60081   0.30327   0.39326   0.00000  Uiso   1.00
H122   H     0.55423   0.34161   0.38963   0.00000  Uiso   1.00
H123   H     0.43194   0.20859   0.02688   0.00000  Uiso   1.00
H124   H     0.55294   0.30519   0.47124   0.00000  Uiso   1.00
C125   C     0.83307   0.16499   0.24982   0.00000  Uiso   1.00
C126   C     0.83309   0.33505   0.25007   0.00000  Uiso   1.00
C127   C     0.87228   0.27214   0.05972   0.00000  Uiso   1.00
C128   C     0.80485   0.21815   0.44158   0.00000  Uiso   1.00
C129   C     0.87061   0.27266   0.11003   0.00000  Uiso   1.00
C130   C     0.80446   0.21960   0.39099   0.00000  Uiso   1.00
C131   C     0.79692   0.22622   0.09957   0.00000  Uiso   1.00
C132   C     0.86346   0.27950   0.39966   0.00000  Uiso   1.00
C133   C     0.79615   0.22639   0.04881   0.00000  Uiso   1.00
C134   C     0.86342   0.28003   0.45031   0.00000  Uiso   1.00
C135   C     0.83426   0.24921   0.02750   0.00000  Uiso   1.00
C136   C     0.83415   0.24907   0.47271   0.00000  Uiso   1.00
C137   C     0.73457   0.24996   0.23752   0.00000  Uiso   1.00
C138   C     0.93209   0.25004   0.26247   0.00000  Uiso   1.00
C139   C     0.67923   0.24996   0.23069   0.00000  Uiso   1.00
C140   C     0.98743   0.25003   0.26929   0.00000  Uiso   1.00
C141   C     0.81449   0.04790   0.28761   0.00000  Uiso   1.00
C142   C     0.81721   0.45185   0.20614   0.00000  Uiso   1.00
C143   C     0.81543   0.09379   0.28793   0.00000  Uiso   1.00
C144   C     0.81806   0.40596   0.20635   0.00000  Uiso   1.00
C145   C     0.83231   0.11678   0.24947   0.00000  Uiso   1.00
C146   C     0.83228   0.38333   0.24996   0.00000  Uiso   1.00
C147   C     0.84835   0.09341   0.21071   0.00000  Uiso   1.00
C148   C     0.84575   0.40719   0.29328   0.00000  Uiso   1.00
C149   C     0.84818   0.04749   0.21075   0.00000  Uiso   1.00
C150   C     0.84568   0.45308   0.29298   0.00000  Uiso   1.00
C151   C     0.83119   0.02436   0.24918   0.00000  Uiso   1.00
C152   C     0.83128   0.47580   0.24943   0.00000  Uiso   1.00
Cu153  Cu    0.83333   0.25000   0.29822   0.00000  Uiso   1.00
Cu154  Cu    0.83333   0.25001   0.20179   0.00000  Uiso   1.00
H155   H     0.99245   0.24991   0.19372   0.00000  Uiso   1.00
H156   H     0.67422   0.25007   0.30626   0.00000  Uiso   1.00
H157   H     0.80026   0.03088   0.31721   0.00000  Uiso   1.00
H158   H     0.80505   0.46856   0.17220   0.00000  Uiso   1.00
H159   H     0.80233   0.11126   0.31794   0.00000  Uiso   1.00
H160   H     0.80700   0.38821   0.17249   0.00000  Uiso   1.00
H161   H     0.86182   0.11059   0.18081   0.00000  Uiso   1.00
H162   H     0.85704   0.39049   0.32727   0.00000  Uiso   1.00
H163   H     0.90391   0.28939   0.04696   0.00000  Uiso   1.00
H164   H     0.78255   0.19232   0.45552   0.00000  Uiso   1.00
N165   N     0.83333   0.25001   0.12935   0.00000  Uiso   1.00
N166   N     0.83333   0.24999   0.37066   0.00000  Uiso   1.00
O167   O     0.83334   0.18573   0.29072   0.00000  Uiso   1.00
O168   O     0.83333   0.31428   0.20929   0.00000  Uiso   1.00
O169   O     0.83334   0.18573   0.20928   0.00000  Uiso   1.00
O170   O     0.83333   0.31427   0.29072   0.00000  Uiso   1.00
O171   O     0.75828   0.25000   0.28132   0.00000  Uiso   1.00
O172   O     0.90839   0.25001   0.21868   0.00000  Uiso   1.00
O173   O     0.75828   0.25000   0.19989   0.00000  Uiso   1.00
O174   O     0.90839   0.25000   0.30012   0.00000  Uiso   1.00
H175   H     0.86207   0.03014   0.18109   0.00000  Uiso   1.00
H176   H     0.85757   0.47074   0.32674   0.00000  Uiso   1.00
H177   H     0.89982   0.29088   0.13376   0.00000  Uiso   1.00
H178   H     0.78137   0.19584   0.36796   0.00000  Uiso   1.00
N179   N     0.75965   0.20031   0.11999   0.00000  Uiso   1.00
H180   H     0.72293   0.21084   0.10506   0.00000  Uiso   1.00
H181   H     0.76340   0.16742   0.10946   0.00000  Uiso   1.00
N182   N     0.89597   0.30974   0.37866   0.00000  Uiso   1.00
H183   H     0.93414   0.30327   0.39326   0.00000  Uiso   1.00
H184   H     0.88756   0.34161   0.38963   0.00000  Uiso   1.00
H185   H     0.76528   0.20859   0.02688   0.00000  Uiso   1.00
H186   H     0.88628   0.30519   0.47124   0.00000  Uiso   1.00
C187   C     0.16641   0.66499   0.24982   0.00000  Uiso   1.00
C188   C     0.16642   0.83505   0.25007   0.00000  Uiso   1.00
C189   C     0.20562   0.77214   0.05972   0.00000  Uiso   1.00
C190   C     0.13818   0.71815   0.44158   0.00000  Uiso   1.00
C191   C     0.20395   0.77266   0.11003   0.00000  Uiso   1.00
C192   C     0.13779   0.71960   0.39099   0.00000  Uiso   1.00
C193   C     0.13025   0.72622   0.09957   0.00000  Uiso   1.00
C194   C     0.19679   0.77950   0.39966   0.00000  Uiso   1.00
C195   C     0.12949   0.72639   0.04881   0.00000  Uiso   1.00
C196   C     0.19675   0.78003   0.45031   0.00000  Uiso   1.00
C197   C     0.16760   0.74921   0.02750   0.00000  Uiso   1.00
C198   C     0.16748   0.74907   0.47271   0.00000  Uiso   1.00
C199   C     0.06791   0.74996   0.23752   0.00000  Uiso   1.00
C200   C     0.26543   0.75004   0.26247   0.00000  Uiso   1.00
C201   C     0.01257   0.74996   0.23069   0.00000  Uiso   1.00
C202   C     0.32076   0.75003   0.26929   0.00000  Uiso   1.00
C203   C     0.14782   0.54790   0.28761   0.00000  Uiso   1.00
C204   C     0.15054   0.95185   0.20614   0.00000  Uiso   1.00
C205   C     0.14876   0.59379   0.28793   0.00000  Uiso   1.00
C206   C     0.15139   0.90596   0.20635   0.00000  Uiso   1.00
C207   C     0.16564   0.61678   0.24947   0.00000  Uiso   1.00
C208   C     0.16562   0.88333   0.24996   0.00000  Uiso   1.00
C209   C     0.18168   0.59341   0.21071   0.00000  Uiso   1.00
C210   C     0.17908   0.90719   0.29328   0.00000  Uiso   1.00
C211   C     0.18151   0.54749   0.21075   0.00000  Uiso   1.00
C212   C     0.17901   0.95308   0.29298   0.00000  Uiso   1.00
C213   C     0.16452   0.52436   0.24918   0.00000  Uiso   1.00
C214   C     0.16461   0.97580   0.24943   0.00000  Uiso   1.00
Cu215  Cu    0.16667   0.75000   0.29822   0.00000  Uiso   1.00
Cu216  Cu    0.16667   0.75001   0.20179   0.00000  Uiso   1.00
H217   H     0.32578   0.74991   0.19372   0.00000  Uiso   1.00
H218   H     0.00756   0.75007   0.30626   0.00000  Uiso   1.00
H219   H     0.13359   0.53088   0.31721   0.00000  Uiso   1.00
H220   H     0.13838   0.96856   0.17220   0.00000  Uiso   1.00
H221   H     0.13566   0.61126   0.31794   0.00000  Uiso   1.00
H222   H     0.14033   0.88821   0.17249   0.00000  Uiso   1.00
H223   H     0.19516   0.61059   0.18081   0.00000  Uiso   1.00
H224   H     0.19037   0.89049   0.32727   0.00000  Uiso   1.00
H225   H     0.23725   0.78939   0.04696   0.00000  Uiso   1.00
H226   H     0.11588   0.69232   0.45552   0.00000  Uiso   1.00
N227   N     0.16667   0.75001   0.12935   0.00000  Uiso   1.00
N228   N     0.16667   0.74999   0.37066   0.00000  Uiso   1.00
O229   O     0.16667   0.68573   0.29072   0.00000  Uiso   1.00
O230   O     0.16666   0.81428   0.20929   0.00000  Uiso   1.00
O231   O     0.16667   0.68573   0.20928   0.00000  Uiso   1.00
O232   O     0.16666   0.81427   0.29072   0.00000  Uiso   1.00
O233   O     0.09161   0.75000   0.28132   0.00000  Uiso   1.00
O234   O     0.24172   0.75001   0.21868   0.00000  Uiso   1.00
O235   O     0.09161   0.75000   0.19989   0.00000  Uiso   1.00
O236   O     0.24172   0.75000   0.30012   0.00000  Uiso   1.00
H237   H     0.19540   0.53014   0.18109   0.00000  Uiso   1.00
H238   H     0.19090   0.97074   0.32674   0.00000  Uiso   1.00
H239   H     0.23315   0.79088   0.13376   0.00000  Uiso   1.00
H240   H     0.11470   0.69584   0.36796   0.00000  Uiso   1.00
N241   N     0.09298   0.70031   0.11999   0.00000  Uiso   1.00
H242   H     0.05626   0.71084   0.10506   0.00000  Uiso   1.00
H243   H     0.09674   0.66742   0.10946   0.00000  Uiso   1.00
N244   N     0.22930   0.80974   0.37866   0.00000  Uiso   1.00
H245   H     0.26748   0.80327   0.39326   0.00000  Uiso   1.00
H246   H     0.22090   0.84161   0.38963   0.00000  Uiso   1.00
H247   H     0.09861   0.70859   0.02688   0.00000  Uiso   1.00
H248   H     0.21961   0.80519   0.47124   0.00000  Uiso   1.00
C249   C     0.49974   0.66499   0.24982   0.00000  Uiso   1.00
C250   C     0.49975   0.83505   0.25007   0.00000  Uiso   1.00
C251   C     0.53895   0.77214   0.05972   0.00000  Uiso   1.00
C252   C     0.47152   0.71815   0.44158   0.00000  Uiso   1.00
C253   C     0.53728   0.77266   0.11003   0.00000  Uiso   1.00
C254   C     0.47113   0.71960   0.39099   0.00000  Uiso   1.00
C255   C     0.46358   0.72622   0.09957   0.00000  Uiso   1.00
C256   C     0.53012   0.77950   0.39966   0.00000  Uiso   1.00
C257   C     0.46282   0.72639   0.04881   0.00000  Uiso   1.00
C258   C     0.53008   0.78003   0.45031   0.00000  Uiso   1.00
C259   C     0.50093   0.74921   0.02750   0.00000  Uiso   1.00
C260   C     0.50081   0.74907   0.47271   0.00000  Uiso   1.00
C261   C     0.40124   0.74996   0.23752   0.00000  Uiso   1.00
C262   C     0.59876   0.75004   0.26247   0.00000  Uiso   1.00
C263   C     0.34590   0.74996   0.23069   0.00000  Uiso   1.00
C264   C     0.65410   0.75003   0.26929   0.00000  Uiso   1.00
C265   C     0.48115   0.54790   0.28761   0.00000  Uiso   1.00
C266   C     0.48388   0.95185   0.20614   0.00000  Uiso   1.00
C267   C     0.48209   0.59379   0.28793   0.00000  Uiso   1.00
C268   C     0.48472   0.90596   0.20635   0.00000  Uiso   1.00
C269   C     0.49897   0.61678   0.24947   0.00000  Uiso   1.00
C270   C     0.49895   0.88333   0.24996   0.00000  Uiso   1.00
C271   C     0.51501   0.59341   0.21071   0.00000  Uiso   1.00
C272   C     0.51242   0.90719   0.29328   0.00000  Uiso   1.00
C273   C     0.51484   0.54749   0.21075   0.00000  Uiso   1.00
C274   C     0.51234   0.95308   0.29298   0.00000  Uiso   1.00
C275   C     0.49785   0.52436   0.24918   0.00000  Uiso   1.00
C276   C     0.49795   0.97580   0.24943   0.00000  Uiso   1.00
Cu277  Cu    0.50000   0.75000   0.29822   0.00000  Uiso   1.00
Cu278  Cu    0.50000   0.75001   0.20179   0.00000  Uiso   1.00
H279   H     0.65911   0.74991   0.19372   0.00000  Uiso   1.00
H280   H     0.34089   0.75007   0.30626   0.00000  Uiso   1.00
H281   H     0.46692   0.53088   0.31721   0.00000  Uiso   1.00
H282   H     0.47171   0.96856   0.17220   0.00000  Uiso   1.00
H283   H     0.46899   0.61126   0.31794   0.00000  Uiso   1.00
H284   H     0.47366   0.88821   0.17249   0.00000  Uiso   1.00
H285   H     0.52849   0.61059   0.18081   0.00000  Uiso   1.00
H286   H     0.52370   0.89049   0.32727   0.00000  Uiso   1.00
H287   H     0.57058   0.78939   0.04696   0.00000  Uiso   1.00
H288   H     0.44921   0.69232   0.45552   0.00000  Uiso   1.00
N289   N     0.50000   0.75001   0.12935   0.00000  Uiso   1.00
N290   N     0.50000   0.74999   0.37066   0.00000  Uiso   1.00
O291   O     0.50000   0.68573   0.29072   0.00000  Uiso   1.00
O292   O     0.50000   0.81428   0.20929   0.00000  Uiso   1.00
O293   O     0.50000   0.68573   0.20928   0.00000  Uiso   1.00
O294   O     0.50000   0.81427   0.29072   0.00000  Uiso   1.00
O295   O     0.42495   0.75000   0.28132   0.00000  Uiso   1.00
O296   O     0.57505   0.75001   0.21868   0.00000  Uiso   1.00
O297   O     0.42495   0.75000   0.19989   0.00000  Uiso   1.00
O298   O     0.57505   0.75000   0.30012   0.00000  Uiso   1.00
H299   H     0.52873   0.53014   0.18109   0.00000  Uiso   1.00
H300   H     0.52423   0.97074   0.32674   0.00000  Uiso   1.00
H301   H     0.56648   0.79088   0.13376   0.00000  Uiso   1.00
H302   H     0.44804   0.69584   0.36796   0.00000  Uiso   1.00
N303   N     0.42631   0.70031   0.11999   0.00000  Uiso   1.00
H304   H     0.38960   0.71084   0.10506   0.00000  Uiso   1.00
H305   H     0.43007   0.66742   0.10946   0.00000  Uiso   1.00
N306   N     0.56263   0.80974   0.37866   0.00000  Uiso   1.00
H307   H     0.60081   0.80327   0.39326   0.00000  Uiso   1.00
H308   H     0.55423   0.84161   0.38963   0.00000  Uiso   1.00
H309   H     0.43194   0.70859   0.02688   0.00000  Uiso   1.00
H310   H     0.55294   0.80519   0.47124   0.00000  Uiso   1.00
C311   C     0.83307   0.66499   0.24982   0.00000  Uiso   1.00
C312   C     0.83309   0.83505   0.25007   0.00000  Uiso   1.00
C313   C     0.87228   0.77214   0.05972   0.00000  Uiso   1.00
C314   C     0.80485   0.71815   0.44158   0.00000  Uiso   1.00
C315   C     0.87061   0.77266   0.11003   0.00000  Uiso   1.00
C316   C     0.80446   0.71960   0.39099   0.00000  Uiso   1.00
C317   C     0.79692   0.72622   0.09957   0.00000  Uiso   1.00
C318   C     0.86346   0.77950   0.39966   0.00000  Uiso   1.00
C319   C     0.79615   0.72639   0.04881   0.00000  Uiso   1.00
C320   C     0.86342   0.78003   0.45031   0.00000  Uiso   1.00
C321   C     0.83426   0.74921   0.02750   0.00000  Uiso   1.00
C322   C     0.83415   0.74907   0.47271   0.00000  Uiso   1.00
C323   C     0.73457   0.74996   0.23752   0.00000  Uiso   1.00
C324   C     0.93209   0.75004   0.26247   0.00000  Uiso   1.00
C325   C     0.67923   0.74996   0.23069   0.00000  Uiso   1.00
C326   C     0.98743   0.75003   0.26929   0.00000  Uiso   1.00
C327   C     0.81449   0.54790   0.28761   0.00000  Uiso   1.00
C328   C     0.81721   0.95185   0.20614   0.00000  Uiso   1.00
C329   C     0.81543   0.59379   0.28793   0.00000  Uiso   1.00
C330   C     0.81806   0.90596   0.20635   0.00000  Uiso   1.00
C331   C     0.83231   0.61678   0.24947   0.00000  Uiso   1.00
C332   C     0.83228   0.88333   0.24996   0.00000  Uiso   1.00
C333   C     0.84835   0.59341   0.21071   0.00000  Uiso   1.00
C334   C     0.84575   0.90719   0.29328   0.00000  Uiso   1.00
C335   C     0.84818   0.54749   0.21075   0.00000  Uiso   1.00
C336   C     0.84568   0.95308   0.29298   0.00000  Uiso   1.00
C337   C     0.83119   0.52436   0.24918   0.00000  Uiso   1.00
C338   C     0.83128   0.97580   0.24943   0.00000  Uiso   1.00
Cu339  Cu    0.83333   0.75000   0.29822   0.00000  Uiso   1.00
Cu340  Cu    0.83333   0.75001   0.20179   0.00000  Uiso   1.00
H341   H     0.99245   0.74991   0.19372   0.00000  Uiso   1.00
H342   H     0.67422   0.75007   0.30626   0.00000  Uiso   1.00
H343   H     0.80026   0.53088   0.31721   0.00000  Uiso   1.00
H344   H     0.80505   0.96856   0.17220   0.00000  Uiso   1.00
H345   H     0.80233   0.61126   0.31794   0.00000  Uiso   1.00
H346   H     0.80700   0.88821   0.17249   0.00000  Uiso   1.00
H347   H     0.86182   0.61059   0.18081   0.00000  Uiso   1.00
H348   H     0.85704   0.89049   0.32727   0.00000  Uiso   1.00
H349   H     0.90391   0.78939   0.04696   0.00000  Uiso   1.00
H350   H     0.78255   0.69232   0.45552   0.00000  Uiso   1.00
N351   N     0.83333   0.75001   0.12935   0.00000  Uiso   1.00
N352   N     0.83333   0.74999   0.37066   0.00000  Uiso   1.00
O353   O     0.83334   0.68573   0.29072   0.00000  Uiso   1.00
O354   O     0.83333   0.81428   0.20929   0.00000  Uiso   1.00
O355   O     0.83334   0.68573   0.20928   0.00000  Uiso   1.00
O356   O     0.83333   0.81427   0.29072   0.00000  Uiso   1.00
O357   O     0.75828   0.75000   0.28132   0.00000  Uiso   1.00
O358   O     0.90839   0.75001   0.21868   0.00000  Uiso   1.00
O359   O     0.75828   0.75000   0.19989   0.00000  Uiso   1.00
O360   O     0.90839   0.75000   0.30012   0.00000  Uiso   1.00
H361   H     0.86207   0.53014   0.18109   0.00000  Uiso   1.00
H362   H     0.85757   0.97074   0.32674   0.00000  Uiso   1.00
H363   H     0.89982   0.79088   0.13376   0.00000  Uiso   1.00
H364   H     0.78137   0.69584   0.36796   0.00000  Uiso   1.00
N365   N     0.75965   0.70031   0.11999   0.00000  Uiso   1.00
H366   H     0.72293   0.71084   0.10506   0.00000  Uiso   1.00
H367   H     0.76340   0.66742   0.10946   0.00000  Uiso   1.00
N368   N     0.89597   0.80974   0.37866   0.00000  Uiso   1.00
H369   H     0.93414   0.80327   0.39326   0.00000  Uiso   1.00
H370   H     0.88756   0.84161   0.38963   0.00000  Uiso   1.00
H371   H     0.76528   0.70859   0.02688   0.00000  Uiso   1.00
H372   H     0.88628   0.80519   0.47124   0.00000  Uiso   1.00
C373   C     0.16641   0.16499   0.74982   0.00000  Uiso   1.00
C374   C     0.16642   0.33505   0.75007   0.00000  Uiso   1.00
C375   C     0.20562   0.27214   0.55972   0.00000  Uiso   1.00
C376   C     0.13818   0.21815   0.94158   0.00000  Uiso   1.00
C377   C     0.20395   0.27266   0.61003   0.00000  Uiso   1.00
C378   C     0.13779   0.21960   0.89099   0.00000  Uiso   1.00
C379   C     0.13025   0.22622   0.59957   0.00000  Uiso   1.00
C380   C     0.19679   0.27950   0.89966   0.00000  Uiso   1.00
C381   C     0.12949   0.22639   0.54881   0.00000  Uiso   1.00
C382   C     0.19675   0.28003   0.95031   0.00000  Uiso   1.00
C383   C     0.16760   0.24921   0.52750   0.00000  Uiso   1.00
C384   C     0.16748   0.24907   0.97271   0.00000  Uiso   1.00
C385   C     0.06791   0.24996   0.73752   0.00000  Uiso   1.00
C386   C     0.26543   0.25004   0.76247   0.00000  Uiso   1.00
C387   C     0.01257   0.24996   0.73069   0.00000  Uiso   1.00
C388   C     0.32076   0.25003   0.76929   0.00000  Uiso   1.00
C389   C     0.14782   0.04790   0.78761   0.00000  Uiso   1.00
C390   C     0.15054   0.45185   0.70614   0.00000  Uiso   1.00
C391   C     0.14876   0.09379   0.78793   0.00000  Uiso   1.00
C392   C     0.15139   0.40596   0.70635   0.00000  Uiso   1.00
C393   C     0.16564   0.11678   0.74947   0.00000  Uiso   1.00
C394   C     0.16562   0.38333   0.74996   0.00000  Uiso   1.00
C395   C     0.18168   0.09341   0.71071   0.00000  Uiso   1.00
C396   C     0.17908   0.40719   0.79328   0.00000  Uiso   1.00
C397   C     0.18151   0.04749   0.71075   0.00000  Uiso   1.00
C398   C     0.17901   0.45308   0.79298   0.00000  Uiso   1.00
C399   C     0.16452   0.02436   0.74918   0.00000  Uiso   1.00
C400   C     0.16461   0.47580   0.74943   0.00000  Uiso   1.00
Cu401  Cu    0.16667   0.25000   0.79822   0.00000  Uiso   1.00
Cu402  Cu    0.16667   0.25001   0.70179   0.00000  Uiso   1.00
H403   H     0.32578   0.24991   0.69372   0.00000  Uiso   1.00
H404   H     0.00756   0.25007   0.80626   0.00000  Uiso   1.00
H405   H     0.13359   0.03088   0.81721   0.00000  Uiso   1.00
H406   H     0.13838   0.46856   0.67220   0.00000  Uiso   1.00
H407   H     0.13566   0.11126   0.81794   0.00000  Uiso   1.00
H408   H     0.14033   0.38821   0.67249   0.00000  Uiso   1.00
H409   H     0.19516   0.11059   0.68081   0.00000  Uiso   1.00
H410   H     0.19037   0.39049   0.82727   0.00000  Uiso   1.00
H411   H     0.23725   0.28939   0.54696   0.00000  Uiso   1.00
H412   H     0.11588   0.19232   0.95552   0.00000  Uiso   1.00
N413   N     0.16667   0.25001   0.62935   0.00000  Uiso   1.00
N414   N     0.16667   0.24999   0.87066   0.00000  Uiso   1.00
O415   O     0.16667   0.18573   0.79072   0.00000  Uiso   1.00
O416   O     0.16666   0.31428   0.70929   0.00000  Uiso   1.00
O417   O     0.16667   0.18573   0.70928   0.00000  Uiso   1.00
O418   O     0.16666   0.31427   0.79072   0.00000  Uiso   1.00
O419   O     0.09161   0.25000   0.78132   0.00000  Uiso   1.00
O420   O     0.24172   0.25001   0.71868   0.00000  Uiso   1.00
O421   O     0.09161   0.25000   0.69989   0.00000  Uiso   1.00
O422   O     0.24172   0.25000   0.80012   0.00000  Uiso   1.00
H423   H     0.19540   0.03014   0.68109   0.00000  Uiso   1.00
H424   H     0.19090   0.47074   0.82674   0.00000  Uiso   1.00
H425   H     0.23315   0.29088   0.63376   0.00000  Uiso   1.00
H426   H     0.11470   0.19584   0.86796   0.00000  Uiso   1.00
N427   N     0.09298   0.20031   0.61999   0.00000  Uiso   1.00
H428   H     0.05626   0.21084   0.60506   0.00000  Uiso   1.00
H429   H     0.09674   0.16742   0.60946   0.00000  Uiso   1.00
N430   N     0.22930   0.30974   0.87866   0.00000  Uiso   1.00
H431   H     0.26748   0.30327   0.89326   0.00000  Uiso   1.00
H432   H     0.22090   0.34161   0.88963   0.00000  Uiso   1.00
H433   H     0.09861   0.20859   0.52688   0.00000  Uiso   1.00
H434   H     0.21961   0.30519   0.97124   0.00000  Uiso   1.00
C435   C     0.49974   0.16499   0.74982   0.00000  Uiso   1.00
C436   C     0.49975   0.33505   0.75007   0.00000  Uiso   1.00
C437   C     0.53895   0.27214   0.55972   0.00000  Uiso   1.00
C438   C     0.47152   0.21815   0.94158   0.00000  Uiso   1.00
C439   C     0.53728   0.27266   0.61003   0.00000  Uiso   1.00
C440   C     0.47113   0.21960   0.89099   0.00000  Uiso   1.00
C441   C     0.46358   0.22622   0.59957   0.00000  Uiso   1.00
C442   C     0.53012   0.27950   0.89966   0.00000  Uiso   1.00
C443   C     0.46282   0.22639   0.54881   0.00000  Uiso   1.00
C444   C     0.53008   0.28003   0.95031   0.00000  Uiso   1.00
C445   C     0.50093   0.24921   0.52750   0.00000  Uiso   1.00
C446   C     0.50081   0.24907   0.97271   0.00000  Uiso   1.00
C447   C     0.40124   0.24996   0.73752   0.00000  Uiso   1.00
C448   C     0.59876   0.25004   0.76247   0.00000  Uiso   1.00
C449   C     0.34590   0.24996   0.73069   0.00000  Uiso   1.00
C450   C     0.65410   0.25003   0.76929   0.00000  Uiso   1.00
C451   C     0.48115   0.04790   0.78761   0.00000  Uiso   1.00
C452   C     0.48388   0.45185   0.70614   0.00000  Uiso   1.00
C453   C     0.48209   0.09379   0.78793   0.00000  Uiso   1.00
C454   C     0.48472   0.40596   0.70635   0.00000  Uiso   1.00
C455   C     0.49897   0.11678   0.74947   0.00000  Uiso   1.00
C456   C     0.49895   0.38333   0.74996   0.00000  Uiso   1.00
C457   C     0.51501   0.09341   0.71071   0.00000  Uiso   1.00
C458   C     0.51242   0.40719   0.79328   0.00000  Uiso   1.00
C459   C     0.51484   0.04749   0.71075   0.00000  Uiso   1.00
C460   C     0.51234   0.45308   0.79298   0.00000  Uiso   1.00
C461   C     0.49785   0.02436   0.74918   0.00000  Uiso   1.00
C462   C     0.49795   0.47580   0.74943   0.00000  Uiso   1.00
Cu463  Cu    0.50000   0.25000   0.79822   0.00000  Uiso   1.00
Cu464  Cu    0.50000   0.25001   0.70179   0.00000  Uiso   1.00
H465   H     0.65911   0.24991   0.69372   0.00000  Uiso   1.00
H466   H     0.34089   0.25007   0.80626   0.00000  Uiso   1.00
H467   H     0.46692   0.03088   0.81721   0.00000  Uiso   1.00
H468   H     0.47171   0.46856   0.67220   0.00000  Uiso   1.00
H469   H     0.46899   0.11126   0.81794   0.00000  Uiso   1.00
H470   H     0.47366   0.38821   0.67249   0.00000  Uiso   1.00
H471   H     0.52849   0.11059   0.68081   0.00000  Uiso   1.00
H472   H     0.52370   0.39049   0.82727   0.00000  Uiso   1.00
H473   H     0.57058   0.28939   0.54696   0.00000  Uiso   1.00
H474   H     0.44921   0.19232   0.95552   0.00000  Uiso   1.00
N475   N     0.50000   0.25001   0.62935   0.00000  Uiso   1.00
N476   N     0.50000   0.24999   0.87066   0.00000  Uiso   1.00
O477   O     0.50000   0.18573   0.79072   0.00000  Uiso   1.00
O478   O     0.50000   0.31428   0.70929   0.00000  Uiso   1.00
O479   O     0.50000   0.18573   0.70928   0.00000  Uiso   1.00
O480   O     0.50000   0.31427   0.79072   0.00000  Uiso   1.00
O481   O     0.42495   0.25000   0.78132   0.00000  Uiso   1.00
O482   O     0.57505   0.25001   0.71868   0.00000  Uiso   1.00
O483   O     0.42495   0.25000   0.69989   0.00000  Uiso   1.00
O484   O     0.57505   0.25000   0.80012   0.00000  Uiso   1.00
H485   H     0.52873   0.03014   0.68109   0.00000  Uiso   1.00
H486   H     0.52423   0.47074   0.82674   0.00000  Uiso   1.00
H487   H     0.56648   0.29088   0.63376   0.00000  Uiso   1.00
H488   H     0.44804   0.19584   0.86796   0.00000  Uiso   1.00
N489   N     0.42631   0.20031   0.61999   0.00000  Uiso   1.00
H490   H     0.38960   0.21084   0.60506   0.00000  Uiso   1.00
H491   H     0.43007   0.16742   0.60946   0.00000  Uiso   1.00
N492   N     0.56263   0.30974   0.87866   0.00000  Uiso   1.00
H493   H     0.60081   0.30327   0.89326   0.00000  Uiso   1.00
H494   H     0.55423   0.34161   0.88963   0.00000  Uiso   1.00
H495   H     0.43194   0.20859   0.52688   0.00000  Uiso   1.00
H496   H     0.55294   0.30519   0.97124   0.00000  Uiso   1.00
C497   C     0.83307   0.16499   0.74982   0.00000  Uiso   1.00
C498   C     0.83309   0.33505   0.75007   0.00000  Uiso   1.00
C499   C     0.87228   0.27214   0.55972   0.00000  Uiso   1.00
C500   C     0.80485   0.21815   0.94158   0.00000  Uiso   1.00
C501   C     0.87061   0.27266   0.61003   0.00000  Uiso   1.00
C502   C     0.80446   0.21960   0.89099   0.00000  Uiso   1.00
C503   C     0.79692   0.22622   0.59957   0.00000  Uiso   1.00
C504   C     0.86346   0.27950   0.89966   0.00000  Uiso   1.00
C505   C     0.79615   0.22639   0.54881   0.00000  Uiso   1.00
C506   C     0.86342   0.28003   0.95031   0.00000  Uiso   1.00
C507   C     0.83426   0.24921   0.52750   0.00000  Uiso   1.00
C508   C     0.83415   0.24907   0.97271   0.00000  Uiso   1.00
C509   C     0.73457   0.24996   0.73752   0.00000  Uiso   1.00
C510   C     0.93209   0.25004   0.76247   0.00000  Uiso   1.00
C511   C     0.67923   0.24996   0.73069   0.00000  Uiso   1.00
C512   C     0.98743   0.25003   0.76929   0.00000  Uiso   1.00
C513   C     0.81449   0.04790   0.78761   0.00000  Uiso   1.00
C514   C     0.81721   0.45185   0.70614   0.00000  Uiso   1.00
C515   C     0.81543   0.09379   0.78793   0.00000  Uiso   1.00
C516   C     0.81806   0.40596   0.70635   0.00000  Uiso   1.00
C517   C     0.83231   0.11678   0.74947   0.00000  Uiso   1.00
C518   C     0.83228   0.38333   0.74996   0.00000  Uiso   1.00
C519   C     0.84835   0.09341   0.71071   0.00000  Uiso   1.00
C520   C     0.84575   0.40719   0.79328   0.00000  Uiso   1.00
C521   C     0.84818   0.04749   0.71075   0.00000  Uiso   1.00
C522   C     0.84568   0.45308   0.79298   0.00000  Uiso   1.00
C523   C     0.83119   0.02436   0.74918   0.00000  Uiso   1.00
C524   C     0.83128   0.47580   0.74943   0.00000  Uiso   1.00
Cu525  Cu    0.83333   0.25000   0.79822   0.00000  Uiso   1.00
Cu526  Cu    0.83333   0.25001   0.70179   0.00000  Uiso   1.00
H527   H     0.99245   0.24991   0.69372   0.00000  Uiso   1.00
H528   H     0.67422   0.25007   0.80626   0.00000  Uiso   1.00
H529   H     0.80026   0.03088   0.81721   0.00000  Uiso   1.00
H530   H     0.80505   0.46856   0.67220   0.00000  Uiso   1.00
H531   H     0.80233   0.11126   0.81794   0.00000  Uiso   1.00
H532   H     0.80700   0.38821   0.67249   0.00000  Uiso   1.00
H533   H     0.86182   0.11059   0.68081   0.00000  Uiso   1.00
H534   H     0.85704   0.39049   0.82727   0.00000  Uiso   1.00
H535   H     0.90391   0.28939   0.54696   0.00000  Uiso   1.00
H536   H     0.78255   0.19232   0.95552   0.00000  Uiso   1.00
N537   N     0.83333   0.25001   0.62935   0.00000  Uiso   1.00
N538   N     0.83333   0.24999   0.87066   0.00000  Uiso   1.00
O539   O     0.83334   0.18573   0.79072   0.00000  Uiso   1.00
O540   O     0.83333   0.31428   0.70929   0.00000  Uiso   1.00
O541   O     0.83334   0.18573   0.70928   0.00000  Uiso   1.00
O542   O     0.83333   0.31427   0.79072   0.00000  Uiso   1.00
O543   O     0.75828   0.25000   0.78132   0.00000  Uiso   1.00
O544   O     0.90839   0.25001   0.71868   0.00000  Uiso   1.00
O545   O     0.75828   0.25000   0.69989   0.00000  Uiso   1.00
O546   O     0.90839   0.25000   0.80012   0.00000  Uiso   1.00
H547   H     0.86207   0.03014   0.68109   0.00000  Uiso   1.00
H548   H     0.85757   0.47074   0.82674   0.00000  Uiso   1.00
H549   H     0.89982   0.29088   0.63376   0.00000  Uiso   1.00
H550   H     0.78137   0.19584   0.86796   0.00000  Uiso   1.00
N551   N     0.75965   0.20031   0.61999   0.00000  Uiso   1.00
H552   H     0.72293   0.21084   0.60506   0.00000  Uiso   1.00
H553   H     0.76340   0.16742   0.60946   0.00000  Uiso   1.00
N554   N     0.89597   0.30974   0.87866   0.00000  Uiso   1.00
H555   H     0.93414   0.30327   0.89326   0.00000  Uiso   1.00
H556   H     0.88756   0.34161   0.88963   0.00000  Uiso   1.00
H557   H     0.76528   0.20859   0.52688   0.00000  Uiso   1.00
H558   H     0.88628   0.30519   0.97124   0.00000  Uiso   1.00
C559   C     0.16641   0.66499   0.74982   0.00000  Uiso   1.00
C560   C     0.16642   0.83505   0.75007   0.00000  Uiso   1.00
C561   C     0.20562   0.77214   0.55972   0.00000  Uiso   1.00
C562   C     0.13818   0.71815   0.94158   0.00000  Uiso   1.00
C563   C     0.20395   0.77266   0.61003   0.00000  Uiso   1.00
C564   C     0.13779   0.71960   0.89099   0.00000  Uiso   1.00
C565   C     0.13025   0.72622   0.59957   0.00000  Uiso   1.00
C566   C     0.19679   0.77950   0.89966   0.00000  Uiso   1.00
C567   C     0.12949   0.72639   0.54881   0.00000  Uiso   1.00
C568   C     0.19675   0.78003   0.95031   0.00000  Uiso   1.00
C569   C     0.16760   0.74921   0.52750   0.00000  Uiso   1.00
C570   C     0.16748   0.74907   0.97271   0.00000  Uiso   1.00
C571   C     0.06791   0.74996   0.73752   0.00000  Uiso   1.00
C572   C     0.26543   0.75004   0.76247   0.00000  Uiso   1.00
C573   C     0.01257   0.74996   0.73069   0.00000  Uiso   1.00
C574   C     0.32076   0.75003   0.76929   0.00000  Uiso   1.00
C575   C     0.14782   0.54790   0.78761   0.00000  Uiso   1.00
C576   C     0.15054   0.95185   0.70614   0.00000  Uiso   1.00
C577   C     0.14876   0.59379   0.78793   0.00000  Uiso   1.00
C578   C     0.15139   0.90596   0.70635   0.00000  Uiso   1.00
C579   C     0.16564   0.61678   0.74947   0.00000  Uiso   1.00
C580   C     0.16562   0.88333   0.74996   0.00000  Uiso   1.00
C581   C     0.18168   0.59341   0.71071   0.00000  Uiso   1.00
C582   C     0.17908   0.90719   0.79328   0.00000  Uiso   1.00
C583   C     0.18151   0.54749   0.71075   0.00000  Uiso   1.00
C584   C     0.17901   0.95308   0.79298   0.00000  Uiso   1.00
C585   C     0.16452   0.52436   0.74918   0.00000  Uiso   1.00
C586   C     0.16461   0.97580   0.74943   0.00000  Uiso   1.00
Cu587  Cu    0.16667   0.75000   0.79822   0.00000  Uiso   1.00
Cu588  Cu    0.16667   0.75001   0.70179   0.00000  Uiso   1.00
H589   H     0.32578   0.74991   0.69372   0.00000  Uiso   1.00
H590   H     0.00756   0.75007   0.80626   0.00000  Uiso   1.00
H591   H     0.13359   0.53088   0.81721   0.00000  Uiso   1.00
H592   H     0.13838   0.96856   0.67220   0.00000  Uiso   1.00
H593   H     0.13566   0.61126   0.81794   0.00000  Uiso   1.00
H594   H     0.14033   0.88821   0.67249   0.00000  Uiso   1.00
H595   H     0.19516   0.61059   0.68081   0.00000  Uiso   1.00
H596   H     0.19037   0.89049   0.82727   0.00000  Uiso   1.00
H597   H     0.23725   0.78939   0.54696   0.00000  Uiso   1.00
H598   H     0.11588   0.69232   0.95552   0.00000  Uiso   1.00
N599   N     0.16667   0.75001   0.62935   0.00000  Uiso   1.00
N600   N     0.16667   0.74999   0.87066   0.00000  Uiso   1.00
O601   O     0.16667   0.68573   0.79072   0.00000  Uiso   1.00
O602   O     0.16666   0.81428   0.70929   0.00000  Uiso   1.00
O603   O     0.16667   0.68573   0.70928   0.00000  Uiso   1.00
O604   O     0.16666   0.81427   0.79072   0.00000  Uiso   1.00
O605   O     0.09161   0.75000   0.78132   0.00000  Uiso   1.00
O606   O     0.24172   0.75001   0.71868   0.00000  Uiso   1.00
O607   O     0.09161   0.75000   0.69989   0.00000  Uiso   1.00
O608   O     0.24172   0.75000   0.80012   0.00000  Uiso   1.00
H609   H     0.19540   0.53014   0.68109   0.00000  Uiso   1.00
H610   H     0.19090   0.97074   0.82674   0.00000  Uiso   1.00
H611   H     0.23315   0.79088   0.63376   0.00000  Uiso   1.00
H612   H     0.11470   0.69584   0.86796   0.00000  Uiso   1.00
N613   N     0.09298   0.70031   0.61999   0.00000  Uiso   1.00
H614   H     0.05626   0.71084   0.60506   0.00000  Uiso   1.00
H615   H     0.09674   0.66742   0.60946   0.00000  Uiso   1.00
N616   N     0.22930   0.80974   0.87866   0.00000  Uiso   1.00
H617   H     0.26748   0.80327   0.89326   0.00000  Uiso   1.00
H618   H     0.22090   0.84161   0.88963   0.00000  Uiso   1.00
H619   H     0.09861   0.70859   0.52688   0.00000  Uiso   1.00
H620   H     0.21961   0.80519   0.97124   0.00000  Uiso   1.00
C621   C     0.49974   0.66499   0.74982   0.00000  Uiso   1.00
C622   C     0.49975   0.83505   0.75007   0.00000  Uiso   1.00
C623   C     0.53895   0.77214   0.55972   0.00000  Uiso   1.00
C624   C     0.47152   0.71815   0.94158   0.00000  Uiso   1.00
C625   C     0.53728   0.77266   0.61003   0.00000  Uiso   1.00
C626   C     0.47113   0.71960   0.89099   0.00000  Uiso   1.00
C627   C     0.46358   0.72622   0.59957   0.00000  Uiso   1.00
C628   C     0.53012   0.77950   0.89966   0.00000  Uiso   1.00
C629   C     0.46282   0.72639   0.54881   0.00000  Uiso   1.00
C630   C     0.53008   0.78003   0.95031   0.00000  Uiso   1.00
C631   C     0.50093   0.74921   0.52750   0.00000  Uiso   1.00
C632   C     0.50081   0.74907   0.97271   0.00000  Uiso   1.00
C633   C     0.40124   0.74996   0.73752   0.00000  Uiso   1.00
C634   C     0.59876   0.75004   0.76247   0.00000  Uiso   1.00
C635   C     0.34590   0.74996   0.73069   0.00000  Uiso   1.00
C636   C     0.65410   0.75003   0.76929   0.00000  Uiso   1.00
C637   C     0.48115   0.54790   0.78761   0.00000  Uiso   1.00
C638   C     0.48388   0.95185   0.70614   0.00000  Uiso   1.00
C639   C     0.48209   0.59379   0.78793   0.00000  Uiso   1.00
C640   C     0.48472   0.90596   0.70635   0.00000  Uiso   1.00
C641   C     0.49897   0.61678   0.74947   0.00000  Uiso   1.00
C642   C     0.49895   0.88333   0.74996   0.00000  Uiso   1.00
C643   C     0.51501   0.59341   0.71071   0.00000  Uiso   1.00
C644   C     0.51242   0.90719   0.79328   0.00000  Uiso   1.00
C645   C     0.51484   0.54749   0.71075   0.00000  Uiso   1.00
C646   C     0.51234   0.95308   0.79298   0.00000  Uiso   1.00
C647   C     0.49785   0.52436   0.74918   0.00000  Uiso   1.00
C648   C     0.49795   0.97580   0.74943   0.00000  Uiso   1.00
Cu649  Cu    0.50000   0.75000   0.79822   0.00000  Uiso   1.00
Cu650  Cu    0.50000   0.75001   0.70179   0.00000  Uiso   1.00
H651   H     0.65911   0.74991   0.69372   0.00000  Uiso   1.00
H652   H     0.34089   0.75007   0.80626   0.00000  Uiso   1.00
H653   H     0.46692   0.53088   0.81721   0.00000  Uiso   1.00
H654   H     0.47171   0.96856   0.67220   0.00000  Uiso   1.00
H655   H     0.46899   0.61126   0.81794   0.00000  Uiso   1.00
H656   H     0.47366   0.88821   0.67249   0.00000  Uiso   1.00
H657   H     0.52849   0.61059   0.68081   0.00000  Uiso   1.00
H658   H     0.52370   0.89049   0.82727   0.00000  Uiso   1.00
H659   H     0.57058   0.78939   0.54696   0.00000  Uiso   1.00
H660   H     0.44921   0.69232   0.95552   0.00000  Uiso   1.00
N661   N     0.50000   0.75001   0.62935   0.00000  Uiso   1.00
N662   N     0.50000   0.74999   0.87066   0.00000  Uiso   1.00
O663   O     0.50000   0.68573   0.79072   0.00000  Uiso   1.00
O664   O     0.50000   0.81428   0.70929   0.00000  Uiso   1.00
O665   O     0.50000   0.68573   0.70928   0.00000  Uiso   1.00
O666   O     0.50000   0.81427   0.79072   0.00000  Uiso   1.00
O667   O     0.42495   0.75000   0.78132   0.00000  Uiso   1.00
O668   O     0.57505   0.75001   0.71868   0.00000  Uiso   1.00
O669   O     0.42495   0.75000   0.69989   0.00000  Uiso   1.00
O670   O     0.57505   0.75000   0.80012   0.00000  Uiso   1.00
H671   H     0.52873   0.53014   0.68109   0.00000  Uiso   1.00
H672   H     0.52423   0.97074   0.82674   0.00000  Uiso   1.00
H673   H     0.56648   0.79088   0.63376   0.00000  Uiso   1.00
H674   H     0.44804   0.69584   0.86796   0.00000  Uiso   1.00
N675   N     0.42631   0.70031   0.61999   0.00000  Uiso   1.00
H676   H     0.38960   0.71084   0.60506   0.00000  Uiso   1.00
H677   H     0.43007   0.66742   0.60946   0.00000  Uiso   1.00
N678   N     0.56263   0.80974   0.87866   0.00000  Uiso   1.00
H679   H     0.60081   0.80327   0.89326   0.00000  Uiso   1.00
H680   H     0.55423   0.84161   0.88963   0.00000  Uiso   1.00
H681   H     0.43194   0.70859   0.52688   0.00000  Uiso   1.00
H682   H     0.55294   0.80519   0.97124   0.00000  Uiso   1.00
C683   C     0.83307   0.66499   0.74982   0.00000  Uiso   1.00
C684   C     0.83309   0.83505   0.75007   0.00000  Uiso   1.00
C685   C     0.87228   0.77214   0.55972   0.00000  Uiso   1.00
C686   C     0.80485   0.71815   0.94158   0.00000  Uiso   1.00
C687   C     0.87061   0.77266   0.61003   0.00000  Uiso   1.00
C688   C     0.80446   0.71960   0.89099   0.00000  Uiso   1.00
C689   C     0.79692   0.72622   0.59957   0.00000  Uiso   1.00
C690   C     0.86346   0.77950   0.89966   0.00000  Uiso   1.00
C691   C     0.79615   0.72639   0.54881   0.00000  Uiso   1.00
C692   C     0.86342   0.78003   0.95031   0.00000  Uiso   1.00
C693   C     0.83426   0.74921   0.52750   0.00000  Uiso   1.00
C694   C     0.83415   0.74907   0.97271   0.00000  Uiso   1.00
C695   C     0.73457   0.74996   0.73752   0.00000  Uiso   1.00
C696   C     0.93209   0.75004   0.76247   0.00000  Uiso   1.00
C697   C     0.67923   0.74996   0.73069   0.00000  Uiso   1.00
C698   C     0.98743   0.75003   0.76929   0.00000  Uiso   1.00
C699   C     0.81449   0.54790   0.78761   0.00000  Uiso   1.00
C700   C     0.81721   0.95185   0.70614   0.00000  Uiso   1.00
C701   C     0.81543   0.59379   0.78793   0.00000  Uiso   1.00
C702   C     0.81806   0.90596   0.70635   0.00000  Uiso   1.00
C703   C     0.83231   0.61678   0.74947   0.00000  Uiso   1.00
C704   C     0.83228   0.88333   0.74996   0.00000  Uiso   1.00
C705   C     0.84835   0.59341   0.71071   0.00000  Uiso   1.00
C706   C     0.84575   0.90719   0.79328   0.00000  Uiso   1.00
C707   C     0.84818   0.54749   0.71075   0.00000  Uiso   1.00
C708   C     0.84568   0.95308   0.79298   0.00000  Uiso   1.00
C709   C     0.83119   0.52436   0.74918   0.00000  Uiso   1.00
C710   C     0.83128   0.97580   0.74943   0.00000  Uiso   1.00
Cu711  Cu    0.83333   0.75000   0.79822   0.00000  Uiso   1.00
Cu712  Cu    0.83333   0.75001   0.70179   0.00000  Uiso   1.00
H713   H     0.99245   0.74991   0.69372   0.00000  Uiso   1.00
H714   H     0.67422   0.75007   0.80626   0.00000  Uiso   1.00
H715   H     0.80026   0.53088   0.81721   0.00000  Uiso   1.00
H716   H     0.80505   0.96856   0.67220   0.00000  Uiso   1.00
H717   H     0.80233   0.61126   0.81794   0.00000  Uiso   1.00
H718   H     0.80700   0.88821   0.67249   0.00000  Uiso   1.00
H719   H     0.86182   0.61059   0.68081   0.00000  Uiso   1.00
H720   H     0.85704   0.89049   0.82727   0.00000  Uiso   1.00
H721   H     0.90391   0.78939   0.54696   0.00000  Uiso   1.00
H722   H     0.78255   0.69232   0.95552   0.00000  Uiso   1.00
N723   N     0.83333   0.75001   0.62935   0.00000  Uiso   1.00
N724   N     0.83333   0.74999   0.87066   0.00000  Uiso   1.00
O725   O     0.83334   0.68573   0.79072   0.00000  Uiso   1.00
O726   O     0.83333   0.81428   0.70929   0.00000  Uiso   1.00
O727   O     0.83334   0.68573   0.70928   0.00000  Uiso   1.00
O728   O     0.83333   0.81427   0.79072   0.00000  Uiso   1.00
O729   O     0.75828   0.75000   0.78132   0.00000  Uiso   1.00
O730   O     0.90839   0.75001   0.71868   0.00000  Uiso   1.00
O731   O     0.75828   0.75000   0.69989   0.00000  Uiso   1.00
O732   O     0.90839   0.75000   0.80012   0.00000  Uiso   1.00
H733   H     0.86207   0.53014   0.68109   0.00000  Uiso   1.00
H734   H     0.85757   0.97074   0.82674   0.00000  Uiso   1.00
H735   H     0.89982   0.79088   0.63376   0.00000  Uiso   1.00
H736   H     0.78137   0.69584   0.86796   0.00000  Uiso   1.00
N737   N     0.75965   0.70031   0.61999   0.00000  Uiso   1.00
H738   H     0.72293   0.71084   0.60506   0.00000  Uiso   1.00
H739   H     0.76340   0.66742   0.60946   0.00000  Uiso   1.00
N740   N     0.89597   0.80974   0.87866   0.00000  Uiso   1.00
H741   H     0.93414   0.80327   0.89326   0.00000  Uiso   1.00
H742   H     0.88756   0.84161   0.88963   0.00000  Uiso   1.00
H743   H     0.76528   0.70859   0.52688   0.00000  Uiso   1.00
H744   H     0.88628   0.80519   0.97124   0.00000  Uiso   1.00
loop_
_geom_bond_atom_site_label_1
_geom_bond_atom_site_label_2
_geom_bond_distance
_geom_bond_site_symmetry_2
_ccdc_geom_bond_type
C1     C21     1.460   .     S
C1     O45     1.296   .     A
C1     O43     1.295   .     A
C2     C22     1.463   .     S
C2     O44     1.294   .     A
C2     O46     1.297   .     A
C3     H39     1.079   .     S
C3     C11     1.415   .     A
C3     C5      1.407   .     A
C4     C12     1.415   .     A
C4     C6      1.407   .     A
C4     H40     1.079   .     S
C5     H53     1.082   .     S
C5     N41     1.362   .     A
C6     H54     1.082   .     S
C6     N42     1.362   .     A
C7     N55     1.429   .     S
C7     C9      1.410   .     A
C7     N41     1.368   .     A
C8     N58     1.429   .     S
C8     N42     1.367   .     A
C8     C10     1.409   .     A
C9     C11     1.410   .     A
C9     H61     1.079   .     S
C10    C12     1.410   .     A
C10    H62     1.079   .     S
C11    C384    1.524   1_554 S
C12    C383    1.524   .     S
C13    C15     1.435   .     S
C13    O49     1.291   .     A
C13    O47     1.287   .     A
C14    O50     1.291   .     A
C14    C16     1.435   .     S
C14    O48     1.287   .     A
C15    C140    1.337   1_455 S
C15    H155    1.087   1_455 S
C16    C77     1.337   .     S
C16    H94     1.087   .     S
C17    H33     1.083   .     S
C17    C27     1.404   .     A
C17    C19     1.390   .     A
C18    H34     1.083   .     S
C18    C28     1.404   .     A
C18    C20     1.390   .     A
C19    H35     1.083   .     S
C19    C21     1.402   .     A
C20    C22     1.403   .     A
C20    H36     1.083   .     S
C21    C23     1.401   .     A
C22    C24     1.401   .     A
C23    C25     1.390   .     A
C23    H37     1.083   .     S
C24    H38     1.080   .     S
C24    C26     1.390   .     A
C25    H51     1.083   .     S
C25    C27     1.404   .     A
C26    H52     1.083   .     S
C26    C28     1.404   .     A
C27    C214    1.471   1_545 S
C28    C213    1.471   .     S
Cu29   Cu30    2.683   .     S
Cu29   N42     2.015   .     S
Cu29   O46     1.959   .     S
Cu29   O43     1.956   .     S
Cu29   O47     1.956   .     S
Cu29   O50     1.960   .     S
Cu30   N41     2.015   .     S
Cu30   O45     1.959   .     S
Cu30   O44     1.956   .     S
Cu30   O48     1.956   .     S
Cu30   O49     1.960   .     S
H31    C77     1.087   .     S
H32    C140    1.087   1_455 S
N55    H56     1.046   .     S
N55    H57     1.046   .     S
N58    H60     1.045   .     S
N58    H59     1.046   .     S
C63    C83     1.460   .     S
C63    O107    1.296   .     A
C63    O105    1.295   .     A
C64    C84     1.463   .     S
C64    O106    1.294   .     A
C64    O108    1.297   .     A
C65    H101    1.079   .     S
C65    C73     1.415   .     A
C65    C67     1.407   .     A
C66    C74     1.415   .     A
C66    C68     1.407   .     A
C66    H102    1.079   .     S
C67    H115    1.082   .     S
C67    N103    1.362   .     A
C68    H116    1.082   .     S
C68    N104    1.362   .     A
C69    N117    1.429   .     S
C69    C71     1.410   .     A
C69    N103    1.368   .     A
C70    N120    1.429   .     S
C70    N104    1.367   .     A
C70    C72     1.409   .     A
C71    C73     1.410   .     A
C71    H123    1.079   .     S
C72    C74     1.410   .     A
C72    H124    1.079   .     S
C73    C446    1.524   1_554 S
C74    C445    1.524   .     S
C75    C77     1.435   .     S
C75    O111    1.291   .     A
C75    O109    1.287   .     A
C76    O112    1.291   .     A
C76    C78     1.435   .     S
C76    O110    1.287   .     A
C78    C139    1.337   .     S
C78    H156    1.087   .     S
C79    H95     1.083   .     S
C79    C89     1.404   .     A
C79    C81     1.390   .     A
C80    H96     1.083   .     S
C80    C90     1.404   .     A
C80    C82     1.390   .     A
C81    H97     1.083   .     S
C81    C83     1.402   .     A
C82    C84     1.403   .     A
C82    H98     1.083   .     S
C83    C85     1.401   .     A
C84    C86     1.401   .     A
C85    C87     1.390   .     A
C85    H99     1.083   .     S
C86    H100    1.080   .     S
C86    C88     1.390   .     A
C87    H113    1.083   .     S
C87    C89     1.404   .     A
C88    H114    1.083   .     S
C88    C90     1.404   .     A
C89    C276    1.471   1_545 S
C90    C275    1.471   .     S
Cu91   Cu92    2.683   .     S
Cu91   N104    2.015   .     S
Cu91   O108    1.959   .     S
Cu91   O105    1.956   .     S
Cu91   O109    1.956   .     S
Cu91   O112    1.960   .     S
Cu92   N103    2.015   .     S
Cu92   O107    1.959   .     S
Cu92   O106    1.956   .     S
Cu92   O110    1.956   .     S
Cu92   O111    1.960   .     S
H93    C139    1.087   .     S
N117   H118    1.046   .     S
N117   H119    1.046   .     S
N120   H122    1.045   .     S
N120   H121    1.046   .     S
C125   C145    1.460   .     S
C125   O169    1.296   .     A
C125   O167    1.295   .     A
C126   C146    1.463   .     S
C126   O168    1.294   .     A
C126   O170    1.297   .     A
C127   H163    1.079   .     S
C127   C135    1.415   .     A
C127   C129    1.407   .     A
C128   C136    1.415   .     A
C128   C130    1.407   .     A
C128   H164    1.079   .     S
C129   H177    1.082   .     S
C129   N165    1.362   .     A
C130   H178    1.082   .     S
C130   N166    1.362   .     A
C131   N179    1.429   .     S
C131   C133    1.410   .     A
C131   N165    1.368   .     A
C132   N182    1.429   .     S
C132   N166    1.367   .     A
C132   C134    1.409   .     A
C133   C135    1.410   .     A
C133   H185    1.079   .     S
C134   C136    1.410   .     A
C134   H186    1.079   .     S
C135   C508    1.524   1_554 S
C136   C507    1.524   .     S
C137   C139    1.435   .     S
C137   O173    1.291   .     A
C137   O171    1.287   .     A
C138   O174    1.291   .     A
C138   C140    1.435   .     S
C138   O172    1.287   .     A
C140   C15     1.337   1_655 S
C140   H32     1.087   1_655 S
C141   H157    1.083   .     S
C141   C151    1.404   .     A
C141   C143    1.390   .     A
C142   H158    1.083   .     S
C142   C152    1.404   .     A
C142   C144    1.390   .     A
C143   H159    1.083   .     S
C143   C145    1.402   .     A
C144   C146    1.403   .     A
C144   H160    1.083   .     S
C145   C147    1.401   .     A
C146   C148    1.401   .     A
C147   C149    1.390   .     A
C147   H161    1.083   .     S
C148   H162    1.080   .     S
C148   C150    1.390   .     A
C149   H175    1.083   .     S
C149   C151    1.404   .     A
C150   H176    1.083   .     S
C150   C152    1.404   .     A
C151   C338    1.471   1_545 S
C152   C337    1.471   .     S
Cu153  Cu154   2.683   .     S
Cu153  N166    2.015   .     S
Cu153  O170    1.959   .     S
Cu153  O167    1.956   .     S
Cu153  O171    1.956   .     S
Cu153  O174    1.960   .     S
Cu154  N165    2.015   .     S
Cu154  O169    1.959   .     S
Cu154  O168    1.956   .     S
Cu154  O172    1.956   .     S
Cu154  O173    1.960   .     S
H155   C15     1.087   1_655 S
N179   H180    1.046   .     S
N179   H181    1.046   .     S
N182   H184    1.045   .     S
N182   H183    1.046   .     S
C187   C207    1.460   .     S
C187   O231    1.296   .     A
C187   O229    1.295   .     A
C188   C208    1.463   .     S
C188   O230    1.294   .     A
C188   O232    1.297   .     A
C189   H225    1.079   .     S
C189   C197    1.415   .     A
C189   C191    1.407   .     A
C190   C198    1.415   .     A
C190   C192    1.407   .     A
C190   H226    1.079   .     S
C191   H239    1.082   .     S
C191   N227    1.362   .     A
C192   H240    1.082   .     S
C192   N228    1.362   .     A
C193   N241    1.429   .     S
C193   C195    1.410   .     A
C193   N227    1.368   .     A
C194   N244    1.429   .     S
C194   N228    1.367   .     A
C194   C196    1.409   .     A
C195   C197    1.410   .     A
C195   H247    1.079   .     S
C196   C198    1.410   .     A
C196   H248    1.079   .     S
C197   C570    1.524   1_554 S
C198   C569    1.524   .     S
C199   C201    1.435   .     S
C199   O235    1.291   .     A
C199   O233    1.287   .     A
C200   O236    1.291   .     A
C200   C202    1.435   .     S
C200   O234    1.287   .     A
C201   C326    1.337   1_455 S
C201   H341    1.087   1_455 S
C202   C263    1.337   .     S
C202   H280    1.087   .     S
C203   H219    1.083   .     S
C203   C213    1.404   .     A
C203   C205    1.390   .     A
C204   H220    1.083   .     S
C204   C214    1.404   .     A
C204   C206    1.390   .     A
C205   H221    1.083   .     S
C205   C207    1.402   .     A
C206   C208    1.403   .     A
C206   H222    1.083   .     S
C207   C209    1.401   .     A
C208   C210    1.401   .     A
C209   C211    1.390   .     A
C209   H223    1.083   .     S
C210   H224    1.080   .     S
C210   C212    1.390   .     A
C211   H237    1.083   .     S
C211   C213    1.404   .     A
C212   H238    1.083   .     S
C212   C214    1.404   .     A
C214   C27     1.471   1_565 S
Cu215  Cu216   2.683   .     S
Cu215  N228    2.015   .     S
Cu215  O232    1.959   .     S
Cu215  O229    1.956   .     S
Cu215  O233    1.956   .     S
Cu215  O236    1.960   .     S
Cu216  N227    2.015   .     S
Cu216  O231    1.959   .     S
Cu216  O230    1.956   .     S
Cu216  O234    1.956   .     S
Cu216  O235    1.960   .     S
H217   C263    1.087   .     S
H218   C326    1.087   1_455 S
N241   H242    1.046   .     S
N241   H243    1.046   .     S
N244   H246    1.045   .     S
N244   H245    1.046   .     S
C249   C269    1.460   .     S
C249   O293    1.296   .     A
C249   O291    1.295   .     A
C250   C270    1.463   .     S
C250   O292    1.294   .     A
C250   O294    1.297   .     A
C251   H287    1.079   .     S
C251   C259    1.415   .     A
C251   C253    1.407   .     A
C252   C260    1.415   .     A
C252   C254    1.407   .     A
C252   H288    1.079   .     S
C253   H301    1.082   .     S
C253   N289    1.362   .     A
C254   H302    1.082   .     S
C254   N290    1.362   .     A
C255   N303    1.429   .     S
C255   C257    1.410   .     A
C255   N289    1.368   .     A
C256   N306    1.429   .     S
C256   N290    1.367   .     A
C256   C258    1.409   .     A
C257   C259    1.410   .     A
C257   H309    1.079   .     S
C258   C260    1.410   .     A
C258   H310    1.079   .     S
C259   C632    1.524   1_554 S
C260   C631    1.524   .     S
C261   C263    1.435   .     S
C261   O297    1.291   .     A
C261   O295    1.287   .     A
C262   O298    1.291   .     A
C262   C264    1.435   .     S
C262   O296    1.287   .     A
C264   C325    1.337   .     S
C264   H342    1.087   .     S
C265   H281    1.083   .     S
C265   C275    1.404   .     A
C265   C267    1.390   .     A
C266   H282    1.083   .     S
C266   C276    1.404   .     A
C266   C268    1.390   .     A
C267   H283    1.083   .     S
C267   C269    1.402   .     A
C268   C270    1.403   .     A
C268   H284    1.083   .     S
C269   C271    1.401   .     A
C270   C272    1.401   .     A
C271   C273    1.390   .     A
C271   H285    1.083   .     S
C272   H286    1.080   .     S
C272   C274    1.390   .     A
C273   H299    1.083   .     S
C273   C275    1.404   .     A
C274   H300    1.083   .     S
C274   C276    1.404   .     A
C276   C89     1.471   1_565 S
Cu277  Cu278   2.683   .     S
Cu277  N290    2.015   .     S
Cu277  O294    1.959   .     S
Cu277  O291    1.956   .     S
Cu277  O295    1.956   .     S
Cu277  O298    1.960   .     S
Cu278  N289    2.015   .     S
Cu278  O293    1.959   .     S
Cu278  O292    1.956   .     S
Cu278  O296    1.956   .     S
Cu278  O297    1.960   .     S
H279   C325    1.087   .     S
N303   H304    1.046   .     S
N303   H305    1.046   .     S
N306   H308    1.045   .     S
N306   H307    1.046   .     S
C311   C331    1.460   .     S
C311   O355    1.296   .     A
C311   O353    1.295   .     A
C312   C332    1.463   .     S
C312   O354    1.294   .     A
C312   O356    1.297   .     A
C313   H349    1.079   .     S
C313   C321    1.415   .     A
C313   C315    1.407   .     A
C314   C322    1.415   .     A
C314   C316    1.407   .     A
C314   H350    1.079   .     S
C315   H363    1.082   .     S
C315   N351    1.362   .     A
C316   H364    1.082   .     S
C316   N352    1.362   .     A
C317   N365    1.429   .     S
C317   C319    1.410   .     A
C317   N351    1.368   .     A
C318   N368    1.429   .     S
C318   N352    1.367   .     A
C318   C320    1.409   .     A
C319   C321    1.410   .     A
C319   H371    1.079   .     S
C320   C322    1.410   .     A
C320   H372    1.079   .     S
C321   C694    1.524   1_554 S
C322   C693    1.524   .     S
C323   C325    1.435   .     S
C323   O359    1.291   .     A
C323   O357    1.287   .     A
C324   O360    1.291   .     A
C324   C326    1.435   .     S
C324   O358    1.287   .     A
C326   C201    1.337   1_655 S
C326   H218    1.087   1_655 S
C327   H343    1.083   .     S
C327   C337    1.404   .     A
C327   C329    1.390   .     A
C328   H344    1.083   .     S
C328   C338    1.404   .     A
C328   C330    1.390   .     A
C329   H345    1.083   .     S
C329   C331    1.402   .     A
C330   C332    1.403   .     A
C330   H346    1.083   .     S
C331   C333    1.401   .     A
C332   C334    1.401   .     A
C333   C335    1.390   .     A
C333   H347    1.083   .     S
C334   H348    1.080   .     S
C334   C336    1.390   .     A
C335   H361    1.083   .     S
C335   C337    1.404   .     A
C336   H362    1.083   .     S
C336   C338    1.404   .     A
C338   C151    1.471   1_565 S
Cu339  Cu340   2.683   .     S
Cu339  N352    2.015   .     S
Cu339  O356    1.959   .     S
Cu339  O353    1.956   .     S
Cu339  O357    1.956   .     S
Cu339  O360    1.960   .     S
Cu340  N351    2.015   .     S
Cu340  O355    1.959   .     S
Cu340  O354    1.956   .     S
Cu340  O358    1.956   .     S
Cu340  O359    1.960   .     S
H341   C201    1.087   1_655 S
N365   H366    1.046   .     S
N365   H367    1.046   .     S
N368   H370    1.045   .     S
N368   H369    1.046   .     S
C373   C393    1.460   .     S
C373   O417    1.296   .     A
C373   O415    1.295   .     A
C374   C394    1.463   .     S
C374   O416    1.294   .     A
C374   O418    1.297   .     A
C375   H411    1.079   .     S
C375   C383    1.415   .     A
C375   C377    1.407   .     A
C376   C384    1.415   .     A
C376   C378    1.407   .     A
C376   H412    1.079   .     S
C377   H425    1.082   .     S
C377   N413    1.362   .     A
C378   H426    1.082   .     S
C378   N414    1.362   .     A
C379   N427    1.429   .     S
C379   C381    1.410   .     A
C379   N413    1.368   .     A
C380   N430    1.429   .     S
C380   N414    1.367   .     A
C380   C382    1.409   .     A
C381   C383    1.410   .     A
C381   H433    1.079   .     S
C382   C384    1.410   .     A
C382   H434    1.079   .     S
C384   C11     1.524   1_556 S
C385   C387    1.435   .     S
C385   O421    1.291   .     A
C385   O419    1.287   .     A
C386   O422    1.291   .     A
C386   C388    1.435   .     S
C386   O420    1.287   .     A
C387   C512    1.337   1_455 S
C387   H527    1.087   1_455 S
C388   C449    1.337   .     S
C388   H466    1.087   .     S
C389   H405    1.083   .     S
C389   C399    1.404   .     A
C389   C391    1.390   .     A
C390   H406    1.083   .     S
C390   C400    1.404   .     A
C390   C392    1.390   .     A
C391   H407    1.083   .     S
C391   C393    1.402   .     A
C392   C394    1.403   .     A
C392   H408    1.083   .     S
C393   C395    1.401   .     A
C394   C396    1.401   .     A
C395   C397    1.390   .     A
C395   H409    1.083   .     S
C396   H410    1.080   .     S
C396   C398    1.390   .     A
C397   H423    1.083   .     S
C397   C399    1.404   .     A
C398   H424    1.083   .     S
C398   C400    1.404   .     A
C399   C586    1.471   1_545 S
C400   C585    1.471   .     S
Cu401  Cu402   2.683   .     S
Cu401  N414    2.015   .     S
Cu401  O418    1.959   .     S
Cu401  O415    1.956   .     S
Cu401  O419    1.956   .     S
Cu401  O422    1.960   .     S
Cu402  N413    2.015   .     S
Cu402  O417    1.959   .     S
Cu402  O416    1.956   .     S
Cu402  O420    1.956   .     S
Cu402  O421    1.960   .     S
H403   C449    1.087   .     S
H404   C512    1.087   1_455 S
N427   H428    1.046   .     S
N427   H429    1.046   .     S
N430   H432    1.045   .     S
N430   H431    1.046   .     S
C435   C455    1.460   .     S
C435   O479    1.296   .     A
C435   O477    1.295   .     A
C436   C456    1.463   .     S
C436   O478    1.294   .     A
C436   O480    1.297   .     A
C437   H473    1.079   .     S
C437   C445    1.415   .     A
C437   C439    1.407   .     A
C438   C446    1.415   .     A
C438   C440    1.407   .     A
C438   H474    1.079   .     S
C439   H487    1.082   .     S
C439   N475    1.362   .     A
C440   H488    1.082   .     S
C440   N476    1.362   .     A
C441   N489    1.429   .     S
C441   C443    1.410   .     A
C441   N475    1.368   .     A
C442   N492    1.429   .     S
C442   N476    1.367   .     A
C442   C444    1.409   .     A
C443   C445    1.410   .     A
C443   H495    1.079   .     S
C444   C446    1.410   .     A
C444   H496    1.079   .     S
C446   C73     1.524   1_556 S
C447   C449    1.435   .     S
C447   O483    1.291   .     A
C447   O481    1.287   .     A
C448   O484    1.291   .     A
C448   C450    1.435   .     S
C448   O482    1.287   .     A
C450   C511    1.337   .     S
C450   H528    1.087   .     S
C451   H467    1.083   .     S
C451   C461    1.404   .     A
C451   C453    1.390   .     A
C452   H468    1.083   .     S
C452   C462    1.404   .     A
C452   C454    1.390   .     A
C453   H469    1.083   .     S
C453   C455    1.402   .     A
C454   C456    1.403   .     A
C454   H470    1.083   .     S
C455   C457    1.401   .     A
C456   C458    1.401   .     A
C457   C459    1.390   .     A
C457   H471    1.083   .     S
C458   H472    1.080   .     S
C458   C460    1.390   .     A
C459   H485    1.083   .     S
C459   C461    1.404   .     A
C460   H486    1.083   .     S
C460   C462    1.404   .     A
C461   C648    1.471   1_545 S
C462   C647    1.471   .     S
Cu463  Cu464   2.683   .     S
Cu463  N476    2.015   .     S
Cu463  O480    1.959   .     S
Cu463  O477    1.956   .     S
Cu463  O481    1.956   .     S
Cu463  O484    1.960   .     S
Cu464  N475    2.015   .     S
Cu464  O479    1.959   .     S
Cu464  O478    1.956   .     S
Cu464  O482    1.956   .     S
Cu464  O483    1.960   .     S
H465   C511    1.087   .     S
N489   H490    1.046   .     S
N489   H491    1.046   .     S
N492   H494    1.045   .     S
N492   H493    1.046   .     S
C497   C517    1.460   .     S
C497   O541    1.296   .     A
C497   O539    1.295   .     A
C498   C518    1.463   .     S
C498   O540    1.294   .     A
C498   O542    1.297   .     A
C499   H535    1.079   .     S
C499   C507    1.415   .     A
C499   C501    1.407   .     A
C500   C508    1.415   .     A
C500   C502    1.407   .     A
C500   H536    1.079   .     S
C501   H549    1.082   .     S
C501   N537    1.362   .     A
C502   H550    1.082   .     S
C502   N538    1.362   .     A
C503   N551    1.429   .     S
C503   C505    1.410   .     A
C503   N537    1.368   .     A
C504   N554    1.429   .     S
C504   N538    1.367   .     A
C504   C506    1.409   .     A
C505   C507    1.410   .     A
C505   H557    1.079   .     S
C506   C508    1.410   .     A
C506   H558    1.079   .     S
C508   C135    1.524   1_556 S
C509   C511    1.435   .     S
C509   O545    1.291   .     A
C509   O543    1.287   .     A
C510   O546    1.291   .     A
C510   C512    1.435   .     S
C510   O544    1.287   .     A
C512   C387    1.337   1_655 S
C512   H404    1.087   1_655 S
C513   H529    1.083   .     S
C513   C523    1.404   .     A
C513   C515    1.390   .     A
C514   H530    1.083   .     S
C514   C524    1.404   .     A
C514   C516    1.390   .     A
C515   H531    1.083   .     S
C515   C517    1.402   .     A
C516   C518    1.403   .     A
C516   H532    1.083   .     S
C517   C519    1.401   .     A
C518   C520    1.401   .     A
C519   C521    1.390   .     A
C519   H533    1.083   .     S
C520   H534    1.080   .     S
C520   C522    1.390   .     A
C521   H547    1.083   .     S
C521   C523    1.404   .     A
C522   H548    1.083   .     S
C522   C524    1.404   .     A
C523   C710    1.471   1_545 S
C524   C709    1.471   .     S
Cu525  Cu526   2.683   .     S
Cu525  N538    2.015   .     S
Cu525  O542    1.959   .     S
Cu525  O539    1.956   .     S
Cu525  O543    1.956   .     S
Cu525  O546    1.960   .     S
Cu526  N537    2.015   .     S
Cu526  O541    1.959   .     S
Cu526  O540    1.956   .     S
Cu526  O544    1.956   .     S
Cu526  O545    1.960   .     S
H527   C387    1.087   1_655 S
N551   H552    1.046   .     S
N551   H553    1.046   .     S
N554   H556    1.045   .     S
N554   H555    1.046   .     S
C559   C579    1.460   .     S
C559   O603    1.296   .     A
C559   O601    1.295   .     A
C560   C580    1.463   .     S
C560   O602    1.294   .     A
C560   O604    1.297   .     A
C561   H597    1.079   .     S
C561   C569    1.415   .     A
C561   C563    1.407   .     A
C562   C570    1.415   .     A
C562   C564    1.407   .     A
C562   H598    1.079   .     S
C563   H611    1.082   .     S
C563   N599    1.362   .     A
C564   H612    1.082   .     S
C564   N600    1.362   .     A
C565   N613    1.429   .     S
C565   C567    1.410   .     A
C565   N599    1.368   .     A
C566   N616    1.429   .     S
C566   N600    1.367   .     A
C566   C568    1.409   .     A
C567   C569    1.410   .     A
C567   H619    1.079   .     S
C568   C570    1.410   .     A
C568   H620    1.079   .     S
C570   C197    1.524   1_556 S
C571   C573    1.435   .     S
C571   O607    1.291   .     A
C571   O605    1.287   .     A
C572   O608    1.291   .     A
C572   C574    1.435   .     S
C572   O606    1.287   .     A
C573   C698    1.337   1_455 S
C573   H713    1.087   1_455 S
C574   C635    1.337   .     S
C574   H652    1.087   .     S
C575   H591    1.083   .     S
C575   C585    1.404   .     A
C575   C577    1.390   .     A
C576   H592    1.083   .     S
C576   C586    1.404   .     A
C576   C578    1.390   .     A
C577   H593    1.083   .     S
C577   C579    1.402   .     A
C578   C580    1.403   .     A
C578   H594    1.083   .     S
C579   C581    1.401   .     A
C580   C582    1.401   .     A
C581   C583    1.390   .     A
C581   H595    1.083   .     S
C582   H596    1.080   .     S
C582   C584    1.390   .     A
C583   H609    1.083   .     S
C583   C585    1.404   .     A
C584   H610    1.083   .     S
C584   C586    1.404   .     A
C586   C399    1.471   1_565 S
Cu587  Cu588   2.683   .     S
Cu587  N600    2.015   .     S
Cu587  O604    1.959   .     S
Cu587  O601    1.956   .     S
Cu587  O605    1.956   .     S
Cu587  O608    1.960   .     S
Cu588  N599    2.015   .     S
Cu588  O603    1.959   .     S
Cu588  O602    1.956   .     S
Cu588  O606    1.956   .     S
Cu588  O607    1.960   .     S
H589   C635    1.087   .     S
H590   C698    1.087   1_455 S
N613   H614    1.046   .     S
N613   H615    1.046   .     S
N616   H618    1.045   .     S
N616   H617    1.046   .     S
C621   C641    1.460   .     S
C621   O665    1.296   .     A
C621   O663    1.295   .     A
C622   C642    1.463   .     S
C622   O664    1.294   .     A
C622   O666    1.297   .     A
C623   H659    1.079   .     S
C623   C631    1.415   .     A
C623   C625    1.407   .     A
C624   C632    1.415   .     A
C624   C626    1.407   .     A
C624   H660    1.079   .     S
C625   H673    1.082   .     S
C625   N661    1.362   .     A
C626   H674    1.082   .     S
C626   N662    1.362   .     A
C627   N675    1.429   .     S
C627   C629    1.410   .     A
C627   N661    1.368   .     A
C628   N678    1.429   .     S
C628   N662    1.367   .     A
C628   C630    1.409   .     A
C629   C631    1.410   .     A
C629   H681    1.079   .     S
C630   C632    1.410   .     A
C630   H682    1.079   .     S
C632   C259    1.524   1_556 S
C633   C635    1.435   .     S
C633   O669    1.291   .     A
C633   O667    1.287   .     A
C634   O670    1.291   .     A
C634   C636    1.435   .     S
C634   O668    1.287   .     A
C636   C697    1.337   .     S
C636   H714    1.087   .     S
C637   H653    1.083   .     S
C637   C647    1.404   .     A
C637   C639    1.390   .     A
C638   H654    1.083   .     S
C638   C648    1.404   .     A
C638   C640    1.390   .     A
C639   H655    1.083   .     S
C639   C641    1.402   .     A
C640   C642    1.403   .     A
C640   H656    1.083   .     S
C641   C643    1.401   .     A
C642   C644    1.401   .     A
C643   C645    1.390   .     A
C643   H657    1.083   .     S
C644   H658    1.080   .     S
C644   C646    1.390   .     A
C645   H671    1.083   .     S
C645   C647    1.404   .     A
C646   H672    1.083   .     S
C646   C648    1.404   .     A
C648   C461    1.471   1_565 S
Cu649  Cu650   2.683   .     S
Cu649  N662    2.015   .     S
Cu649  O666    1.959   .     S
Cu649  O663    1.956   .     S
Cu649  O667    1.956   .     S
Cu649  O670    1.960   .     S
Cu650  N661    2.015   .     S
Cu650  O665    1.959   .     S
Cu650  O664    1.956   .     S
Cu650  O668    1.956   .     S
Cu650  O669    1.960   .     S
H651   C697    1.087   .     S
N675   H676    1.046   .     S
N675   H677    1.046   .     S
N678   H680    1.045   .     S
N678   H679    1.046   .     S
C683   C703    1.460   .     S
C683   O727    1.296   .     A
C683   O725    1.295   .     A
C684   C704    1.463   .     S
C684   O726    1.294   .     A
C684   O728    1.297   .     A
C685   H721    1.079   .     S
C685   C693    1.415   .     A
C685   C687    1.407   .     A
C686   C694    1.415   .     A
C686   C688    1.407   .     A
C686   H722    1.079   .     S
C687   H735    1.082   .     S
C687   N723    1.362   .     A
C688   H736    1.082   .     S
C688   N724    1.362   .     A
C689   N737    1.429   .     S
C689   C691    1.410   .     A
C689   N723    1.368   .     A
C690   N740    1.429   .     S
C690   N724    1.367   .     A
C690   C692    1.409   .     A
C691   C693    1.410   .     A
C691   H743    1.079   .     S
C692   C694    1.410   .     A
C692   H744    1.079   .     S
C694   C321    1.524   1_556 S
C695   C697    1.435   .     S
C695   O731    1.291   .     A
C695   O729    1.287   .     A
C696   O732    1.291   .     A
C696   C698    1.435   .     S
C696   O730    1.287   .     A
C698   C573    1.337   1_655 S
C698   H590    1.087   1_655 S
C699   H715    1.083   .     S
C699   C709    1.404   .     A
C699   C701    1.390   .     A
C700   H716    1.083   .     S
C700   C710    1.404   .     A
C700   C702    1.390   .     A
C701   H717    1.083   .     S
C701   C703    1.402   .     A
C702   C704    1.403   .     A
C702   H718    1.083   .     S
C703   C705    1.401   .     A
C704   C706    1.401   .     A
C705   C707    1.390   .     A
C705   H719    1.083   .     S
C706   H720    1.080   .     S
C706   C708    1.390   .     A
C707   H733    1.083   .     S
C707   C709    1.404   .     A
C708   H734    1.083   .     S
C708   C710    1.404   .     A
C710   C523    1.471   1_565 S
Cu711  Cu712   2.683   .     S
Cu711  N724    2.015   .     S
Cu711  O728    1.959   .     S
Cu711  O725    1.956   .     S
Cu711  O729    1.956   .     S
Cu711  O732    1.960   .     S
Cu712  N723    2.015   .     S
Cu712  O727    1.959   .     S
Cu712  O726    1.956   .     S
Cu712  O730    1.956   .     S
Cu712  O731    1.960   .     S
H713   C573    1.087   1_655 S
N737   H738    1.046   .     S
N737   H739    1.046   .     S
N740   H742    1.045   .     S
N740   H741    1.046   .     S
