data_str_m2_o2_o5_pcu_sym.119
_audit_creation_date              2020-01-03
_audit_creation_method            'Materials Studio'
_symmetry_space_group_name_H-M    'P1'
_symmetry_Int_Tables_number       1
_symmetry_cell_setting            triclinic
loop_
_symmetry_equiv_pos_as_xyz
  x,y,z
_cell_length_a                    30.2394
_cell_length_b                    27.9370
_cell_length_c                    27.2206
_cell_angle_alpha                 89.7899
_cell_angle_beta                  91.2322
_cell_angle_gamma                 89.9626
loop_
_atom_site_label
_atom_site_type_symbol
_atom_site_fract_x
_atom_site_fract_y
_atom_site_fract_z
_atom_site_U_iso_or_equiv
_atom_site_adp_type
_atom_site_occupancy
C1     C     0.16513   0.24999   0.16687   0.00000  Uiso   1.00
C2     C     0.28787   0.44583   0.18354   0.00000  Uiso   1.00
C3     C     0.24992   0.25005   0.07359   0.00000  Uiso   1.00
C4     C     0.25006   0.24995   0.25974   0.00000  Uiso   1.00
C5     C     0.25016   0.02758   0.16780   0.00000  Uiso   1.00
C6     C     0.24999   0.47284   0.16847   0.00000  Uiso   1.00
C7     C     0.24995   0.25006   0.02186   0.00000  Uiso   1.00
C8     C     0.25000   0.24992   0.31147   0.00000  Uiso   1.00
C9     C     0.04695   0.27543   0.12991   0.00000  Uiso   1.00
C10    C     0.45132   0.21942   0.13193   0.00000  Uiso   1.00
C11    C     0.45357   0.27740   0.20013   0.00000  Uiso   1.00
C12    C     0.33491   0.24992   0.16674   0.00000  Uiso   1.00
C13    C     0.04818   0.22109   0.20142   0.00000  Uiso   1.00
C14    C     0.09351   0.27517   0.13046   0.00000  Uiso   1.00
C15    C     0.40480   0.22093   0.13193   0.00000  Uiso   1.00
C16    C     0.40709   0.27674   0.20105   0.00000  Uiso   1.00
C17    C     0.09421   0.22342   0.20343   0.00000  Uiso   1.00
C18    C     0.11686   0.24990   0.16746   0.00000  Uiso   1.00
C19    C     0.38322   0.24945   0.16641   0.00000  Uiso   1.00
C20    C     0.02431   0.24793   0.16537   0.00000  Uiso   1.00
C21    C     0.47566   0.24828   0.16574   0.00000  Uiso   1.00
C22    C     0.26970   0.10506   0.20510   0.00000  Uiso   1.00
C23    C     0.21463   0.39648   0.14784   0.00000  Uiso   1.00
C24    C     0.23057   0.10462   0.12861   0.00000  Uiso   1.00
C25    C     0.28502   0.39502   0.18748   0.00000  Uiso   1.00
C26    C     0.26584   0.05444   0.20888   0.00000  Uiso   1.00
C27    C     0.21194   0.44648   0.15360   0.00000  Uiso   1.00
C28    C     0.23452   0.05392   0.12602   0.00000  Uiso   1.00
Cu29   Cu    0.25000   0.29822   0.16667   0.00000  Uiso   1.00
Cu30   Cu    0.25000   0.20179   0.16667   0.00000  Uiso   1.00
H31    H     0.30847   0.10912   0.26338   0.00000  Uiso   1.00
H32    H     0.39816   0.17734   0.07583   0.00000  Uiso   1.00
H33    H     0.40427   0.31821   0.25896   0.00000  Uiso   1.00
H34    H     0.14576   0.21243   0.24659   0.00000  Uiso   1.00
H35    H     0.26178   0.00206   0.25592   0.00000  Uiso   1.00
H36    H     0.17028   0.49900   0.15965   0.00000  Uiso   1.00
H37    H     0.23898   0.00097   0.08014   0.00000  Uiso   1.00
H38    H     0.32960   0.49836   0.17710   0.00000  Uiso   1.00
H39    H     0.19313   0.34922   0.10306   0.00000  Uiso   1.00
H40    H     0.19246   0.10801   0.06977   0.00000  Uiso   1.00
H41    H     0.33815   0.39118   0.22940   0.00000  Uiso   1.00
H42    H     0.49296   0.30347   0.09988   0.00000  Uiso   1.00
H43    H     0.00368   0.18776   0.10505   0.00000  Uiso   1.00
H44    H     0.00761   0.30888   0.22551   0.00000  Uiso   1.00
H45    H     0.49614   0.18926   0.22848   0.00000  Uiso   1.00
H46    H     0.09732   0.31373   0.07024   0.00000  Uiso   1.00
N47    N     0.25000   0.12935   0.16667   0.00000  Uiso   1.00
N48    N     0.25000   0.37066   0.16667   0.00000  Uiso   1.00
O49    O     0.18573   0.29072   0.16667   0.00000  Uiso   1.00
O50    O     0.18015   0.37465   0.12326   0.00000  Uiso   1.00
O51    O     0.20812   0.13016   0.09247   0.00000  Uiso   1.00
O52    O     0.31761   0.36924   0.21183   0.00000  Uiso   1.00
O53    O     0.02511   0.30268   0.09430   0.00000  Uiso   1.00
O54    O     0.47150   0.18980   0.09837   0.00000  Uiso   1.00
O55    O     0.47597   0.30648   0.23346   0.00000  Uiso   1.00
O56    O     0.02796   0.19311   0.23652   0.00000  Uiso   1.00
O57    O     0.11745   0.29860   0.09487   0.00000  Uiso   1.00
O58    O     0.37915   0.19520   0.09853   0.00000  Uiso   1.00
O59    O     0.38375   0.30160   0.23595   0.00000  Uiso   1.00
O60    O     0.31427   0.20929   0.16666   0.00000  Uiso   1.00
O61    O     0.11568   0.19921   0.24143   0.00000  Uiso   1.00
O62    O     0.27760   0.03291   0.25307   0.00000  Uiso   1.00
O63    O     0.17192   0.46809   0.14214   0.00000  Uiso   1.00
O64    O     0.22295   0.03176   0.08229   0.00000  Uiso   1.00
O65    O     0.32800   0.46733   0.19459   0.00000  Uiso   1.00
O66    O     0.31427   0.29072   0.16666   0.00000  Uiso   1.00
O67    O     0.18573   0.20929   0.16667   0.00000  Uiso   1.00
O68    O     0.25000   0.29071   0.09613   0.00000  Uiso   1.00
O69    O     0.25000   0.20929   0.23720   0.00000  Uiso   1.00
O70    O     0.25000   0.29071   0.23720   0.00000  Uiso   1.00
O71    O     0.25000   0.20929   0.09613   0.00000  Uiso   1.00
O72    O     0.29251   0.13100   0.24045   0.00000  Uiso   1.00
C73    C     0.66513   0.24999   0.16687   0.00000  Uiso   1.00
C74    C     0.78787   0.44583   0.18354   0.00000  Uiso   1.00
C75    C     0.74992   0.25005   0.07359   0.00000  Uiso   1.00
C76    C     0.75006   0.24995   0.25974   0.00000  Uiso   1.00
C77    C     0.75016   0.02758   0.16780   0.00000  Uiso   1.00
C78    C     0.74999   0.47284   0.16847   0.00000  Uiso   1.00
C79    C     0.74995   0.25006   0.02186   0.00000  Uiso   1.00
C80    C     0.75000   0.24992   0.31147   0.00000  Uiso   1.00
C81    C     0.54695   0.27543   0.12991   0.00000  Uiso   1.00
C82    C     0.95132   0.21942   0.13193   0.00000  Uiso   1.00
C83    C     0.95357   0.27740   0.20013   0.00000  Uiso   1.00
C84    C     0.83491   0.24992   0.16674   0.00000  Uiso   1.00
C85    C     0.54818   0.22109   0.20142   0.00000  Uiso   1.00
C86    C     0.59351   0.27517   0.13046   0.00000  Uiso   1.00
C87    C     0.90480   0.22093   0.13193   0.00000  Uiso   1.00
C88    C     0.90709   0.27674   0.20105   0.00000  Uiso   1.00
C89    C     0.59421   0.22342   0.20343   0.00000  Uiso   1.00
C90    C     0.61686   0.24990   0.16746   0.00000  Uiso   1.00
C91    C     0.88322   0.24945   0.16641   0.00000  Uiso   1.00
C92    C     0.52431   0.24793   0.16537   0.00000  Uiso   1.00
C93    C     0.97566   0.24828   0.16574   0.00000  Uiso   1.00
C94    C     0.76970   0.10506   0.20510   0.00000  Uiso   1.00
C95    C     0.71463   0.39648   0.14784   0.00000  Uiso   1.00
C96    C     0.73057   0.10462   0.12861   0.00000  Uiso   1.00
C97    C     0.78502   0.39502   0.18748   0.00000  Uiso   1.00
C98    C     0.76584   0.05444   0.20888   0.00000  Uiso   1.00
C99    C     0.71194   0.44648   0.15360   0.00000  Uiso   1.00
C100   C     0.73452   0.05392   0.12602   0.00000  Uiso   1.00
Cu101  Cu    0.75000   0.29822   0.16667   0.00000  Uiso   1.00
Cu102  Cu    0.75000   0.20179   0.16667   0.00000  Uiso   1.00
H103   H     0.80847   0.10912   0.26338   0.00000  Uiso   1.00
H104   H     0.89816   0.17734   0.07583   0.00000  Uiso   1.00
H105   H     0.90427   0.31821   0.25896   0.00000  Uiso   1.00
H106   H     0.64576   0.21243   0.24659   0.00000  Uiso   1.00
H107   H     0.76178   0.00206   0.25592   0.00000  Uiso   1.00
H108   H     0.67028   0.49900   0.15965   0.00000  Uiso   1.00
H109   H     0.73898   0.00097   0.08014   0.00000  Uiso   1.00
H110   H     0.82960   0.49836   0.17710   0.00000  Uiso   1.00
H111   H     0.69313   0.34922   0.10306   0.00000  Uiso   1.00
H112   H     0.69246   0.10801   0.06977   0.00000  Uiso   1.00
H113   H     0.83815   0.39118   0.22940   0.00000  Uiso   1.00
H114   H     0.99296   0.30347   0.09988   0.00000  Uiso   1.00
H115   H     0.50368   0.18776   0.10505   0.00000  Uiso   1.00
H116   H     0.50761   0.30888   0.22551   0.00000  Uiso   1.00
H117   H     0.99614   0.18926   0.22848   0.00000  Uiso   1.00
H118   H     0.59732   0.31373   0.07024   0.00000  Uiso   1.00
N119   N     0.75000   0.12935   0.16667   0.00000  Uiso   1.00
N120   N     0.75000   0.37066   0.16667   0.00000  Uiso   1.00
O121   O     0.68573   0.29072   0.16667   0.00000  Uiso   1.00
O122   O     0.68015   0.37465   0.12326   0.00000  Uiso   1.00
O123   O     0.70812   0.13016   0.09247   0.00000  Uiso   1.00
O124   O     0.81761   0.36924   0.21183   0.00000  Uiso   1.00
O125   O     0.52511   0.30268   0.09430   0.00000  Uiso   1.00
O126   O     0.97150   0.18980   0.09837   0.00000  Uiso   1.00
O127   O     0.97597   0.30648   0.23346   0.00000  Uiso   1.00
O128   O     0.52796   0.19311   0.23652   0.00000  Uiso   1.00
O129   O     0.61745   0.29860   0.09487   0.00000  Uiso   1.00
O130   O     0.87915   0.19520   0.09853   0.00000  Uiso   1.00
O131   O     0.88375   0.30160   0.23595   0.00000  Uiso   1.00
O132   O     0.81427   0.20929   0.16666   0.00000  Uiso   1.00
O133   O     0.61568   0.19921   0.24143   0.00000  Uiso   1.00
O134   O     0.77760   0.03291   0.25307   0.00000  Uiso   1.00
O135   O     0.67192   0.46809   0.14214   0.00000  Uiso   1.00
O136   O     0.72295   0.03176   0.08229   0.00000  Uiso   1.00
O137   O     0.82800   0.46733   0.19459   0.00000  Uiso   1.00
O138   O     0.81427   0.29072   0.16666   0.00000  Uiso   1.00
O139   O     0.68573   0.20929   0.16667   0.00000  Uiso   1.00
O140   O     0.75000   0.29071   0.09613   0.00000  Uiso   1.00
O141   O     0.75000   0.20929   0.23720   0.00000  Uiso   1.00
O142   O     0.75000   0.29071   0.23720   0.00000  Uiso   1.00
O143   O     0.75000   0.20929   0.09613   0.00000  Uiso   1.00
O144   O     0.79251   0.13100   0.24045   0.00000  Uiso   1.00
C145   C     0.16513   0.74999   0.16687   0.00000  Uiso   1.00
C146   C     0.28787   0.94583   0.18354   0.00000  Uiso   1.00
C147   C     0.24992   0.75005   0.07359   0.00000  Uiso   1.00
C148   C     0.25006   0.74995   0.25974   0.00000  Uiso   1.00
C149   C     0.25016   0.52758   0.16780   0.00000  Uiso   1.00
C150   C     0.24999   0.97284   0.16847   0.00000  Uiso   1.00
C151   C     0.24995   0.75006   0.02186   0.00000  Uiso   1.00
C152   C     0.25000   0.74992   0.31147   0.00000  Uiso   1.00
C153   C     0.04695   0.77543   0.12991   0.00000  Uiso   1.00
C154   C     0.45132   0.71942   0.13193   0.00000  Uiso   1.00
C155   C     0.45357   0.77740   0.20013   0.00000  Uiso   1.00
C156   C     0.33491   0.74992   0.16674   0.00000  Uiso   1.00
C157   C     0.04818   0.72109   0.20142   0.00000  Uiso   1.00
C158   C     0.09351   0.77517   0.13046   0.00000  Uiso   1.00
C159   C     0.40480   0.72093   0.13193   0.00000  Uiso   1.00
C160   C     0.40709   0.77674   0.20105   0.00000  Uiso   1.00
C161   C     0.09421   0.72342   0.20343   0.00000  Uiso   1.00
C162   C     0.11686   0.74990   0.16746   0.00000  Uiso   1.00
C163   C     0.38322   0.74945   0.16641   0.00000  Uiso   1.00
C164   C     0.02431   0.74793   0.16537   0.00000  Uiso   1.00
C165   C     0.47566   0.74828   0.16574   0.00000  Uiso   1.00
C166   C     0.26970   0.60506   0.20510   0.00000  Uiso   1.00
C167   C     0.21463   0.89648   0.14784   0.00000  Uiso   1.00
C168   C     0.23057   0.60462   0.12861   0.00000  Uiso   1.00
C169   C     0.28502   0.89502   0.18748   0.00000  Uiso   1.00
C170   C     0.26584   0.55444   0.20888   0.00000  Uiso   1.00
C171   C     0.21194   0.94648   0.15360   0.00000  Uiso   1.00
C172   C     0.23452   0.55392   0.12602   0.00000  Uiso   1.00
Cu173  Cu    0.25000   0.79822   0.16667   0.00000  Uiso   1.00
Cu174  Cu    0.25000   0.70179   0.16667   0.00000  Uiso   1.00
H175   H     0.30847   0.60912   0.26338   0.00000  Uiso   1.00
H176   H     0.39816   0.67734   0.07583   0.00000  Uiso   1.00
H177   H     0.40427   0.81821   0.25896   0.00000  Uiso   1.00
H178   H     0.14576   0.71243   0.24659   0.00000  Uiso   1.00
H179   H     0.26178   0.50206   0.25592   0.00000  Uiso   1.00
H180   H     0.17028   0.99900   0.15965   0.00000  Uiso   1.00
H181   H     0.23898   0.50097   0.08014   0.00000  Uiso   1.00
H182   H     0.32960   0.99836   0.17710   0.00000  Uiso   1.00
H183   H     0.19313   0.84922   0.10306   0.00000  Uiso   1.00
H184   H     0.19246   0.60801   0.06977   0.00000  Uiso   1.00
H185   H     0.33815   0.89118   0.22940   0.00000  Uiso   1.00
H186   H     0.49296   0.80347   0.09988   0.00000  Uiso   1.00
H187   H     0.00368   0.68776   0.10505   0.00000  Uiso   1.00
H188   H     0.00761   0.80888   0.22551   0.00000  Uiso   1.00
H189   H     0.49614   0.68926   0.22848   0.00000  Uiso   1.00
H190   H     0.09732   0.81373   0.07024   0.00000  Uiso   1.00
N191   N     0.25000   0.62935   0.16667   0.00000  Uiso   1.00
N192   N     0.25000   0.87066   0.16667   0.00000  Uiso   1.00
O193   O     0.18573   0.79072   0.16667   0.00000  Uiso   1.00
O194   O     0.18015   0.87465   0.12326   0.00000  Uiso   1.00
O195   O     0.20812   0.63016   0.09247   0.00000  Uiso   1.00
O196   O     0.31761   0.86924   0.21183   0.00000  Uiso   1.00
O197   O     0.02511   0.80268   0.09430   0.00000  Uiso   1.00
O198   O     0.47150   0.68980   0.09837   0.00000  Uiso   1.00
O199   O     0.47597   0.80648   0.23346   0.00000  Uiso   1.00
O200   O     0.02796   0.69311   0.23652   0.00000  Uiso   1.00
O201   O     0.11745   0.79860   0.09487   0.00000  Uiso   1.00
O202   O     0.37915   0.69520   0.09853   0.00000  Uiso   1.00
O203   O     0.38375   0.80160   0.23595   0.00000  Uiso   1.00
O204   O     0.31427   0.70929   0.16666   0.00000  Uiso   1.00
O205   O     0.11568   0.69921   0.24143   0.00000  Uiso   1.00
O206   O     0.27760   0.53291   0.25307   0.00000  Uiso   1.00
O207   O     0.17192   0.96809   0.14214   0.00000  Uiso   1.00
O208   O     0.22295   0.53176   0.08229   0.00000  Uiso   1.00
O209   O     0.32800   0.96733   0.19459   0.00000  Uiso   1.00
O210   O     0.31427   0.79072   0.16666   0.00000  Uiso   1.00
O211   O     0.18573   0.70929   0.16667   0.00000  Uiso   1.00
O212   O     0.25000   0.79071   0.09613   0.00000  Uiso   1.00
O213   O     0.25000   0.70929   0.23720   0.00000  Uiso   1.00
O214   O     0.25000   0.79071   0.23720   0.00000  Uiso   1.00
O215   O     0.25000   0.70929   0.09613   0.00000  Uiso   1.00
O216   O     0.29251   0.63100   0.24045   0.00000  Uiso   1.00
C217   C     0.66513   0.74999   0.16687   0.00000  Uiso   1.00
C218   C     0.78787   0.94583   0.18354   0.00000  Uiso   1.00
C219   C     0.74992   0.75005   0.07359   0.00000  Uiso   1.00
C220   C     0.75006   0.74995   0.25974   0.00000  Uiso   1.00
C221   C     0.75016   0.52758   0.16780   0.00000  Uiso   1.00
C222   C     0.74999   0.97284   0.16847   0.00000  Uiso   1.00
C223   C     0.74995   0.75006   0.02186   0.00000  Uiso   1.00
C224   C     0.75000   0.74992   0.31147   0.00000  Uiso   1.00
C225   C     0.54695   0.77543   0.12991   0.00000  Uiso   1.00
C226   C     0.95132   0.71942   0.13193   0.00000  Uiso   1.00
C227   C     0.95357   0.77740   0.20013   0.00000  Uiso   1.00
C228   C     0.83491   0.74992   0.16674   0.00000  Uiso   1.00
C229   C     0.54818   0.72109   0.20142   0.00000  Uiso   1.00
C230   C     0.59351   0.77517   0.13046   0.00000  Uiso   1.00
C231   C     0.90480   0.72093   0.13193   0.00000  Uiso   1.00
C232   C     0.90709   0.77674   0.20105   0.00000  Uiso   1.00
C233   C     0.59421   0.72342   0.20343   0.00000  Uiso   1.00
C234   C     0.61686   0.74990   0.16746   0.00000  Uiso   1.00
C235   C     0.88322   0.74945   0.16641   0.00000  Uiso   1.00
C236   C     0.52431   0.74793   0.16537   0.00000  Uiso   1.00
C237   C     0.97566   0.74828   0.16574   0.00000  Uiso   1.00
C238   C     0.76970   0.60506   0.20510   0.00000  Uiso   1.00
C239   C     0.71463   0.89648   0.14784   0.00000  Uiso   1.00
C240   C     0.73057   0.60462   0.12861   0.00000  Uiso   1.00
C241   C     0.78502   0.89502   0.18748   0.00000  Uiso   1.00
C242   C     0.76584   0.55444   0.20888   0.00000  Uiso   1.00
C243   C     0.71194   0.94648   0.15360   0.00000  Uiso   1.00
C244   C     0.73452   0.55392   0.12602   0.00000  Uiso   1.00
Cu245  Cu    0.75000   0.79822   0.16667   0.00000  Uiso   1.00
Cu246  Cu    0.75000   0.70179   0.16667   0.00000  Uiso   1.00
H247   H     0.80847   0.60912   0.26338   0.00000  Uiso   1.00
H248   H     0.89816   0.67734   0.07583   0.00000  Uiso   1.00
H249   H     0.90427   0.81821   0.25896   0.00000  Uiso   1.00
H250   H     0.64576   0.71243   0.24659   0.00000  Uiso   1.00
H251   H     0.76178   0.50206   0.25592   0.00000  Uiso   1.00
H252   H     0.67028   0.99900   0.15965   0.00000  Uiso   1.00
H253   H     0.73898   0.50097   0.08014   0.00000  Uiso   1.00
H254   H     0.82960   0.99836   0.17710   0.00000  Uiso   1.00
H255   H     0.69313   0.84922   0.10306   0.00000  Uiso   1.00
H256   H     0.69246   0.60801   0.06977   0.00000  Uiso   1.00
H257   H     0.83815   0.89118   0.22940   0.00000  Uiso   1.00
H258   H     0.99296   0.80347   0.09988   0.00000  Uiso   1.00
H259   H     0.50368   0.68776   0.10505   0.00000  Uiso   1.00
H260   H     0.50761   0.80888   0.22551   0.00000  Uiso   1.00
H261   H     0.99614   0.68926   0.22848   0.00000  Uiso   1.00
H262   H     0.59732   0.81373   0.07024   0.00000  Uiso   1.00
N263   N     0.75000   0.62935   0.16667   0.00000  Uiso   1.00
N264   N     0.75000   0.87066   0.16667   0.00000  Uiso   1.00
O265   O     0.68573   0.79072   0.16667   0.00000  Uiso   1.00
O266   O     0.68015   0.87465   0.12326   0.00000  Uiso   1.00
O267   O     0.70812   0.63016   0.09247   0.00000  Uiso   1.00
O268   O     0.81761   0.86924   0.21183   0.00000  Uiso   1.00
O269   O     0.52511   0.80268   0.09430   0.00000  Uiso   1.00
O270   O     0.97150   0.68980   0.09837   0.00000  Uiso   1.00
O271   O     0.97597   0.80648   0.23346   0.00000  Uiso   1.00
O272   O     0.52796   0.69311   0.23652   0.00000  Uiso   1.00
O273   O     0.61745   0.79860   0.09487   0.00000  Uiso   1.00
O274   O     0.87915   0.69520   0.09853   0.00000  Uiso   1.00
O275   O     0.88375   0.80160   0.23595   0.00000  Uiso   1.00
O276   O     0.81427   0.70929   0.16666   0.00000  Uiso   1.00
O277   O     0.61568   0.69921   0.24143   0.00000  Uiso   1.00
O278   O     0.77760   0.53291   0.25307   0.00000  Uiso   1.00
O279   O     0.67192   0.96809   0.14214   0.00000  Uiso   1.00
O280   O     0.72295   0.53176   0.08229   0.00000  Uiso   1.00
O281   O     0.82800   0.96733   0.19459   0.00000  Uiso   1.00
O282   O     0.81427   0.79072   0.16666   0.00000  Uiso   1.00
O283   O     0.68573   0.70929   0.16667   0.00000  Uiso   1.00
O284   O     0.75000   0.79071   0.09613   0.00000  Uiso   1.00
O285   O     0.75000   0.70929   0.23720   0.00000  Uiso   1.00
O286   O     0.75000   0.79071   0.23720   0.00000  Uiso   1.00
O287   O     0.75000   0.70929   0.09613   0.00000  Uiso   1.00
O288   O     0.79251   0.63100   0.24045   0.00000  Uiso   1.00
C289   C     0.16513   0.24999   0.50020   0.00000  Uiso   1.00
C290   C     0.28787   0.44583   0.51687   0.00000  Uiso   1.00
C291   C     0.24992   0.25005   0.40692   0.00000  Uiso   1.00
C292   C     0.25006   0.24995   0.59308   0.00000  Uiso   1.00
C293   C     0.25016   0.02758   0.50113   0.00000  Uiso   1.00
C294   C     0.24999   0.47284   0.50180   0.00000  Uiso   1.00
C295   C     0.24995   0.25006   0.35519   0.00000  Uiso   1.00
C296   C     0.25000   0.24992   0.64481   0.00000  Uiso   1.00
C297   C     0.04695   0.27543   0.46324   0.00000  Uiso   1.00
C298   C     0.45132   0.21942   0.46527   0.00000  Uiso   1.00
C299   C     0.45357   0.27740   0.53346   0.00000  Uiso   1.00
C300   C     0.33491   0.24992   0.50008   0.00000  Uiso   1.00
C301   C     0.04818   0.22109   0.53475   0.00000  Uiso   1.00
C302   C     0.09351   0.27517   0.46379   0.00000  Uiso   1.00
C303   C     0.40480   0.22093   0.46526   0.00000  Uiso   1.00
C304   C     0.40709   0.27674   0.53438   0.00000  Uiso   1.00
C305   C     0.09421   0.22342   0.53677   0.00000  Uiso   1.00
C306   C     0.11686   0.24990   0.50079   0.00000  Uiso   1.00
C307   C     0.38322   0.24945   0.49974   0.00000  Uiso   1.00
C308   C     0.02431   0.24793   0.49871   0.00000  Uiso   1.00
C309   C     0.47566   0.24828   0.49908   0.00000  Uiso   1.00
C310   C     0.26970   0.10506   0.53844   0.00000  Uiso   1.00
C311   C     0.21463   0.39648   0.48117   0.00000  Uiso   1.00
C312   C     0.23057   0.10462   0.46195   0.00000  Uiso   1.00
C313   C     0.28502   0.39502   0.52081   0.00000  Uiso   1.00
C314   C     0.26584   0.05444   0.54221   0.00000  Uiso   1.00
C315   C     0.21194   0.44648   0.48693   0.00000  Uiso   1.00
C316   C     0.23452   0.05392   0.45935   0.00000  Uiso   1.00
Cu317  Cu    0.25000   0.29822   0.50000   0.00000  Uiso   1.00
Cu318  Cu    0.25000   0.20179   0.50000   0.00000  Uiso   1.00
H319   H     0.30847   0.10912   0.59671   0.00000  Uiso   1.00
H320   H     0.39816   0.17734   0.40916   0.00000  Uiso   1.00
H321   H     0.40427   0.31821   0.59229   0.00000  Uiso   1.00
H322   H     0.14576   0.21243   0.57993   0.00000  Uiso   1.00
H323   H     0.26178   0.00206   0.58926   0.00000  Uiso   1.00
H324   H     0.17028   0.49900   0.49298   0.00000  Uiso   1.00
H325   H     0.23898   0.00097   0.41347   0.00000  Uiso   1.00
H326   H     0.32960   0.49836   0.51043   0.00000  Uiso   1.00
H327   H     0.19313   0.34922   0.43640   0.00000  Uiso   1.00
H328   H     0.19246   0.10801   0.40310   0.00000  Uiso   1.00
H329   H     0.33815   0.39118   0.56273   0.00000  Uiso   1.00
H330   H     0.49296   0.30347   0.43322   0.00000  Uiso   1.00
H331   H     0.00368   0.18776   0.43838   0.00000  Uiso   1.00
H332   H     0.00761   0.30888   0.55884   0.00000  Uiso   1.00
H333   H     0.49614   0.18926   0.56181   0.00000  Uiso   1.00
H334   H     0.09732   0.31373   0.40358   0.00000  Uiso   1.00
N335   N     0.25000   0.12935   0.50000   0.00000  Uiso   1.00
N336   N     0.25000   0.37066   0.50000   0.00000  Uiso   1.00
O337   O     0.18573   0.29072   0.50000   0.00000  Uiso   1.00
O338   O     0.18015   0.37465   0.45659   0.00000  Uiso   1.00
O339   O     0.20812   0.13016   0.42580   0.00000  Uiso   1.00
O340   O     0.31761   0.36924   0.54516   0.00000  Uiso   1.00
O341   O     0.02511   0.30268   0.42763   0.00000  Uiso   1.00
O342   O     0.47150   0.18980   0.43170   0.00000  Uiso   1.00
O343   O     0.47597   0.30648   0.56679   0.00000  Uiso   1.00
O344   O     0.02796   0.19311   0.56985   0.00000  Uiso   1.00
O345   O     0.11745   0.29860   0.42820   0.00000  Uiso   1.00
O346   O     0.37915   0.19520   0.43186   0.00000  Uiso   1.00
O347   O     0.38375   0.30160   0.56928   0.00000  Uiso   1.00
O348   O     0.31427   0.20929   0.50000   0.00000  Uiso   1.00
O349   O     0.11568   0.19921   0.57476   0.00000  Uiso   1.00
O350   O     0.27760   0.03291   0.58640   0.00000  Uiso   1.00
O351   O     0.17192   0.46809   0.47547   0.00000  Uiso   1.00
O352   O     0.22295   0.03176   0.41562   0.00000  Uiso   1.00
O353   O     0.32800   0.46733   0.52793   0.00000  Uiso   1.00
O354   O     0.31427   0.29072   0.50000   0.00000  Uiso   1.00
O355   O     0.18573   0.20929   0.50000   0.00000  Uiso   1.00
O356   O     0.25000   0.29071   0.42946   0.00000  Uiso   1.00
O357   O     0.25000   0.20929   0.57054   0.00000  Uiso   1.00
O358   O     0.25000   0.29071   0.57054   0.00000  Uiso   1.00
O359   O     0.25000   0.20929   0.42946   0.00000  Uiso   1.00
O360   O     0.29251   0.13100   0.57379   0.00000  Uiso   1.00
C361   C     0.66513   0.24999   0.50020   0.00000  Uiso   1.00
C362   C     0.78787   0.44583   0.51687   0.00000  Uiso   1.00
C363   C     0.74992   0.25005   0.40692   0.00000  Uiso   1.00
C364   C     0.75006   0.24995   0.59308   0.00000  Uiso   1.00
C365   C     0.75016   0.02758   0.50113   0.00000  Uiso   1.00
C366   C     0.74999   0.47284   0.50180   0.00000  Uiso   1.00
C367   C     0.74995   0.25006   0.35519   0.00000  Uiso   1.00
C368   C     0.75000   0.24992   0.64481   0.00000  Uiso   1.00
C369   C     0.54695   0.27543   0.46324   0.00000  Uiso   1.00
C370   C     0.95132   0.21942   0.46527   0.00000  Uiso   1.00
C371   C     0.95357   0.27740   0.53346   0.00000  Uiso   1.00
C372   C     0.83491   0.24992   0.50008   0.00000  Uiso   1.00
C373   C     0.54818   0.22109   0.53475   0.00000  Uiso   1.00
C374   C     0.59351   0.27517   0.46379   0.00000  Uiso   1.00
C375   C     0.90480   0.22093   0.46526   0.00000  Uiso   1.00
C376   C     0.90709   0.27674   0.53438   0.00000  Uiso   1.00
C377   C     0.59421   0.22342   0.53677   0.00000  Uiso   1.00
C378   C     0.61686   0.24990   0.50079   0.00000  Uiso   1.00
C379   C     0.88322   0.24945   0.49974   0.00000  Uiso   1.00
C380   C     0.52431   0.24793   0.49871   0.00000  Uiso   1.00
C381   C     0.97566   0.24828   0.49908   0.00000  Uiso   1.00
C382   C     0.76970   0.10506   0.53844   0.00000  Uiso   1.00
C383   C     0.71463   0.39648   0.48117   0.00000  Uiso   1.00
C384   C     0.73057   0.10462   0.46195   0.00000  Uiso   1.00
C385   C     0.78502   0.39502   0.52081   0.00000  Uiso   1.00
C386   C     0.76584   0.05444   0.54221   0.00000  Uiso   1.00
C387   C     0.71194   0.44648   0.48693   0.00000  Uiso   1.00
C388   C     0.73452   0.05392   0.45935   0.00000  Uiso   1.00
Cu389  Cu    0.75000   0.29822   0.50000   0.00000  Uiso   1.00
Cu390  Cu    0.75000   0.20179   0.50000   0.00000  Uiso   1.00
H391   H     0.80847   0.10912   0.59671   0.00000  Uiso   1.00
H392   H     0.89816   0.17734   0.40916   0.00000  Uiso   1.00
H393   H     0.90427   0.31821   0.59229   0.00000  Uiso   1.00
H394   H     0.64576   0.21243   0.57993   0.00000  Uiso   1.00
H395   H     0.76178   0.00206   0.58926   0.00000  Uiso   1.00
H396   H     0.67028   0.49900   0.49298   0.00000  Uiso   1.00
H397   H     0.73898   0.00097   0.41347   0.00000  Uiso   1.00
H398   H     0.82960   0.49836   0.51043   0.00000  Uiso   1.00
H399   H     0.69313   0.34922   0.43640   0.00000  Uiso   1.00
H400   H     0.69246   0.10801   0.40310   0.00000  Uiso   1.00
H401   H     0.83815   0.39118   0.56273   0.00000  Uiso   1.00
H402   H     0.99296   0.30347   0.43322   0.00000  Uiso   1.00
H403   H     0.50368   0.18776   0.43838   0.00000  Uiso   1.00
H404   H     0.50761   0.30888   0.55884   0.00000  Uiso   1.00
H405   H     0.99614   0.18926   0.56181   0.00000  Uiso   1.00
H406   H     0.59732   0.31373   0.40358   0.00000  Uiso   1.00
N407   N     0.75000   0.12935   0.50000   0.00000  Uiso   1.00
N408   N     0.75000   0.37066   0.50000   0.00000  Uiso   1.00
O409   O     0.68573   0.29072   0.50000   0.00000  Uiso   1.00
O410   O     0.68015   0.37465   0.45659   0.00000  Uiso   1.00
O411   O     0.70812   0.13016   0.42580   0.00000  Uiso   1.00
O412   O     0.81761   0.36924   0.54516   0.00000  Uiso   1.00
O413   O     0.52511   0.30268   0.42763   0.00000  Uiso   1.00
O414   O     0.97150   0.18980   0.43170   0.00000  Uiso   1.00
O415   O     0.97597   0.30648   0.56679   0.00000  Uiso   1.00
O416   O     0.52796   0.19311   0.56985   0.00000  Uiso   1.00
O417   O     0.61745   0.29860   0.42820   0.00000  Uiso   1.00
O418   O     0.87915   0.19520   0.43186   0.00000  Uiso   1.00
O419   O     0.88375   0.30160   0.56928   0.00000  Uiso   1.00
O420   O     0.81427   0.20929   0.50000   0.00000  Uiso   1.00
O421   O     0.61568   0.19921   0.57476   0.00000  Uiso   1.00
O422   O     0.77760   0.03291   0.58640   0.00000  Uiso   1.00
O423   O     0.67192   0.46809   0.47547   0.00000  Uiso   1.00
O424   O     0.72295   0.03176   0.41562   0.00000  Uiso   1.00
O425   O     0.82800   0.46733   0.52793   0.00000  Uiso   1.00
O426   O     0.81427   0.29072   0.50000   0.00000  Uiso   1.00
O427   O     0.68573   0.20929   0.50000   0.00000  Uiso   1.00
O428   O     0.75000   0.29071   0.42946   0.00000  Uiso   1.00
O429   O     0.75000   0.20929   0.57054   0.00000  Uiso   1.00
O430   O     0.75000   0.29071   0.57054   0.00000  Uiso   1.00
O431   O     0.75000   0.20929   0.42946   0.00000  Uiso   1.00
O432   O     0.79251   0.13100   0.57379   0.00000  Uiso   1.00
C433   C     0.16513   0.74999   0.50020   0.00000  Uiso   1.00
C434   C     0.28787   0.94583   0.51687   0.00000  Uiso   1.00
C435   C     0.24992   0.75005   0.40692   0.00000  Uiso   1.00
C436   C     0.25006   0.74995   0.59308   0.00000  Uiso   1.00
C437   C     0.25016   0.52758   0.50113   0.00000  Uiso   1.00
C438   C     0.24999   0.97284   0.50180   0.00000  Uiso   1.00
C439   C     0.24995   0.75006   0.35519   0.00000  Uiso   1.00
C440   C     0.25000   0.74992   0.64481   0.00000  Uiso   1.00
C441   C     0.04695   0.77543   0.46324   0.00000  Uiso   1.00
C442   C     0.45132   0.71942   0.46527   0.00000  Uiso   1.00
C443   C     0.45357   0.77740   0.53346   0.00000  Uiso   1.00
C444   C     0.33491   0.74992   0.50008   0.00000  Uiso   1.00
C445   C     0.04818   0.72109   0.53475   0.00000  Uiso   1.00
C446   C     0.09351   0.77517   0.46379   0.00000  Uiso   1.00
C447   C     0.40480   0.72093   0.46526   0.00000  Uiso   1.00
C448   C     0.40709   0.77674   0.53438   0.00000  Uiso   1.00
C449   C     0.09421   0.72342   0.53677   0.00000  Uiso   1.00
C450   C     0.11686   0.74990   0.50079   0.00000  Uiso   1.00
C451   C     0.38322   0.74945   0.49974   0.00000  Uiso   1.00
C452   C     0.02431   0.74793   0.49871   0.00000  Uiso   1.00
C453   C     0.47566   0.74828   0.49908   0.00000  Uiso   1.00
C454   C     0.26970   0.60506   0.53844   0.00000  Uiso   1.00
C455   C     0.21463   0.89648   0.48117   0.00000  Uiso   1.00
C456   C     0.23057   0.60462   0.46195   0.00000  Uiso   1.00
C457   C     0.28502   0.89502   0.52081   0.00000  Uiso   1.00
C458   C     0.26584   0.55444   0.54221   0.00000  Uiso   1.00
C459   C     0.21194   0.94648   0.48693   0.00000  Uiso   1.00
C460   C     0.23452   0.55392   0.45935   0.00000  Uiso   1.00
Cu461  Cu    0.25000   0.79822   0.50000   0.00000  Uiso   1.00
Cu462  Cu    0.25000   0.70179   0.50000   0.00000  Uiso   1.00
H463   H     0.30847   0.60912   0.59671   0.00000  Uiso   1.00
H464   H     0.39816   0.67734   0.40916   0.00000  Uiso   1.00
H465   H     0.40427   0.81821   0.59229   0.00000  Uiso   1.00
H466   H     0.14576   0.71243   0.57993   0.00000  Uiso   1.00
H467   H     0.26178   0.50206   0.58926   0.00000  Uiso   1.00
H468   H     0.17028   0.99900   0.49298   0.00000  Uiso   1.00
H469   H     0.23898   0.50097   0.41347   0.00000  Uiso   1.00
H470   H     0.32960   0.99836   0.51043   0.00000  Uiso   1.00
H471   H     0.19313   0.84922   0.43640   0.00000  Uiso   1.00
H472   H     0.19246   0.60801   0.40310   0.00000  Uiso   1.00
H473   H     0.33815   0.89118   0.56273   0.00000  Uiso   1.00
H474   H     0.49296   0.80347   0.43322   0.00000  Uiso   1.00
H475   H     0.00368   0.68776   0.43838   0.00000  Uiso   1.00
H476   H     0.00761   0.80888   0.55884   0.00000  Uiso   1.00
H477   H     0.49614   0.68926   0.56181   0.00000  Uiso   1.00
H478   H     0.09732   0.81373   0.40358   0.00000  Uiso   1.00
N479   N     0.25000   0.62935   0.50000   0.00000  Uiso   1.00
N480   N     0.25000   0.87066   0.50000   0.00000  Uiso   1.00
O481   O     0.18573   0.79072   0.50000   0.00000  Uiso   1.00
O482   O     0.18015   0.87465   0.45659   0.00000  Uiso   1.00
O483   O     0.20812   0.63016   0.42580   0.00000  Uiso   1.00
O484   O     0.31761   0.86924   0.54516   0.00000  Uiso   1.00
O485   O     0.02511   0.80268   0.42763   0.00000  Uiso   1.00
O486   O     0.47150   0.68980   0.43170   0.00000  Uiso   1.00
O487   O     0.47597   0.80648   0.56679   0.00000  Uiso   1.00
O488   O     0.02796   0.69311   0.56985   0.00000  Uiso   1.00
O489   O     0.11745   0.79860   0.42820   0.00000  Uiso   1.00
O490   O     0.37915   0.69520   0.43186   0.00000  Uiso   1.00
O491   O     0.38375   0.80160   0.56928   0.00000  Uiso   1.00
O492   O     0.31427   0.70929   0.50000   0.00000  Uiso   1.00
O493   O     0.11568   0.69921   0.57476   0.00000  Uiso   1.00
O494   O     0.27760   0.53291   0.58640   0.00000  Uiso   1.00
O495   O     0.17192   0.96809   0.47547   0.00000  Uiso   1.00
O496   O     0.22295   0.53176   0.41562   0.00000  Uiso   1.00
O497   O     0.32800   0.96733   0.52793   0.00000  Uiso   1.00
O498   O     0.31427   0.79072   0.50000   0.00000  Uiso   1.00
O499   O     0.18573   0.70929   0.50000   0.00000  Uiso   1.00
O500   O     0.25000   0.79071   0.42946   0.00000  Uiso   1.00
O501   O     0.25000   0.70929   0.57054   0.00000  Uiso   1.00
O502   O     0.25000   0.79071   0.57054   0.00000  Uiso   1.00
O503   O     0.25000   0.70929   0.42946   0.00000  Uiso   1.00
O504   O     0.29251   0.63100   0.57379   0.00000  Uiso   1.00
C505   C     0.66513   0.74999   0.50020   0.00000  Uiso   1.00
C506   C     0.78787   0.94583   0.51687   0.00000  Uiso   1.00
C507   C     0.74992   0.75005   0.40692   0.00000  Uiso   1.00
C508   C     0.75006   0.74995   0.59308   0.00000  Uiso   1.00
C509   C     0.75016   0.52758   0.50113   0.00000  Uiso   1.00
C510   C     0.74999   0.97284   0.50180   0.00000  Uiso   1.00
C511   C     0.74995   0.75006   0.35519   0.00000  Uiso   1.00
C512   C     0.75000   0.74992   0.64481   0.00000  Uiso   1.00
C513   C     0.54695   0.77543   0.46324   0.00000  Uiso   1.00
C514   C     0.95132   0.71942   0.46527   0.00000  Uiso   1.00
C515   C     0.95357   0.77740   0.53346   0.00000  Uiso   1.00
C516   C     0.83491   0.74992   0.50008   0.00000  Uiso   1.00
C517   C     0.54818   0.72109   0.53475   0.00000  Uiso   1.00
C518   C     0.59351   0.77517   0.46379   0.00000  Uiso   1.00
C519   C     0.90480   0.72093   0.46526   0.00000  Uiso   1.00
C520   C     0.90709   0.77674   0.53438   0.00000  Uiso   1.00
C521   C     0.59421   0.72342   0.53677   0.00000  Uiso   1.00
C522   C     0.61686   0.74990   0.50079   0.00000  Uiso   1.00
C523   C     0.88322   0.74945   0.49974   0.00000  Uiso   1.00
C524   C     0.52431   0.74793   0.49871   0.00000  Uiso   1.00
C525   C     0.97566   0.74828   0.49908   0.00000  Uiso   1.00
C526   C     0.76970   0.60506   0.53844   0.00000  Uiso   1.00
C527   C     0.71463   0.89648   0.48117   0.00000  Uiso   1.00
C528   C     0.73057   0.60462   0.46195   0.00000  Uiso   1.00
C529   C     0.78502   0.89502   0.52081   0.00000  Uiso   1.00
C530   C     0.76584   0.55444   0.54221   0.00000  Uiso   1.00
C531   C     0.71194   0.94648   0.48693   0.00000  Uiso   1.00
C532   C     0.73452   0.55392   0.45935   0.00000  Uiso   1.00
Cu533  Cu    0.75000   0.79822   0.50000   0.00000  Uiso   1.00
Cu534  Cu    0.75000   0.70179   0.50000   0.00000  Uiso   1.00
H535   H     0.80847   0.60912   0.59671   0.00000  Uiso   1.00
H536   H     0.89816   0.67734   0.40916   0.00000  Uiso   1.00
H537   H     0.90427   0.81821   0.59229   0.00000  Uiso   1.00
H538   H     0.64576   0.71243   0.57993   0.00000  Uiso   1.00
H539   H     0.76178   0.50206   0.58926   0.00000  Uiso   1.00
H540   H     0.67028   0.99900   0.49298   0.00000  Uiso   1.00
H541   H     0.73898   0.50097   0.41347   0.00000  Uiso   1.00
H542   H     0.82960   0.99836   0.51043   0.00000  Uiso   1.00
H543   H     0.69313   0.84922   0.43640   0.00000  Uiso   1.00
H544   H     0.69246   0.60801   0.40310   0.00000  Uiso   1.00
H545   H     0.83815   0.89118   0.56273   0.00000  Uiso   1.00
H546   H     0.99296   0.80347   0.43322   0.00000  Uiso   1.00
H547   H     0.50368   0.68776   0.43838   0.00000  Uiso   1.00
H548   H     0.50761   0.80888   0.55884   0.00000  Uiso   1.00
H549   H     0.99614   0.68926   0.56181   0.00000  Uiso   1.00
H550   H     0.59732   0.81373   0.40358   0.00000  Uiso   1.00
N551   N     0.75000   0.62935   0.50000   0.00000  Uiso   1.00
N552   N     0.75000   0.87066   0.50000   0.00000  Uiso   1.00
O553   O     0.68573   0.79072   0.50000   0.00000  Uiso   1.00
O554   O     0.68015   0.87465   0.45659   0.00000  Uiso   1.00
O555   O     0.70812   0.63016   0.42580   0.00000  Uiso   1.00
O556   O     0.81761   0.86924   0.54516   0.00000  Uiso   1.00
O557   O     0.52511   0.80268   0.42763   0.00000  Uiso   1.00
O558   O     0.97150   0.68980   0.43170   0.00000  Uiso   1.00
O559   O     0.97597   0.80648   0.56679   0.00000  Uiso   1.00
O560   O     0.52796   0.69311   0.56985   0.00000  Uiso   1.00
O561   O     0.61745   0.79860   0.42820   0.00000  Uiso   1.00
O562   O     0.87915   0.69520   0.43186   0.00000  Uiso   1.00
O563   O     0.88375   0.80160   0.56928   0.00000  Uiso   1.00
O564   O     0.81427   0.70929   0.50000   0.00000  Uiso   1.00
O565   O     0.61568   0.69921   0.57476   0.00000  Uiso   1.00
O566   O     0.77760   0.53291   0.58640   0.00000  Uiso   1.00
O567   O     0.67192   0.96809   0.47547   0.00000  Uiso   1.00
O568   O     0.72295   0.53176   0.41562   0.00000  Uiso   1.00
O569   O     0.82800   0.96733   0.52793   0.00000  Uiso   1.00
O570   O     0.81427   0.79072   0.50000   0.00000  Uiso   1.00
O571   O     0.68573   0.70929   0.50000   0.00000  Uiso   1.00
O572   O     0.75000   0.79071   0.42946   0.00000  Uiso   1.00
O573   O     0.75000   0.70929   0.57054   0.00000  Uiso   1.00
O574   O     0.75000   0.79071   0.57054   0.00000  Uiso   1.00
O575   O     0.75000   0.70929   0.42946   0.00000  Uiso   1.00
O576   O     0.79251   0.63100   0.57379   0.00000  Uiso   1.00
C577   C     0.16513   0.24999   0.83353   0.00000  Uiso   1.00
C578   C     0.28787   0.44583   0.85021   0.00000  Uiso   1.00
C579   C     0.24992   0.25005   0.74025   0.00000  Uiso   1.00
C580   C     0.25006   0.24995   0.92641   0.00000  Uiso   1.00
C581   C     0.25016   0.02758   0.83446   0.00000  Uiso   1.00
C582   C     0.24999   0.47284   0.83514   0.00000  Uiso   1.00
C583   C     0.24995   0.25006   0.68852   0.00000  Uiso   1.00
C584   C     0.25000   0.24992   0.97814   0.00000  Uiso   1.00
C585   C     0.04695   0.27543   0.79657   0.00000  Uiso   1.00
C586   C     0.45132   0.21942   0.79860   0.00000  Uiso   1.00
C587   C     0.45357   0.27740   0.86679   0.00000  Uiso   1.00
C588   C     0.33491   0.24992   0.83341   0.00000  Uiso   1.00
C589   C     0.04818   0.22109   0.86809   0.00000  Uiso   1.00
C590   C     0.09351   0.27517   0.79713   0.00000  Uiso   1.00
C591   C     0.40480   0.22093   0.79859   0.00000  Uiso   1.00
C592   C     0.40709   0.27674   0.86771   0.00000  Uiso   1.00
C593   C     0.09421   0.22342   0.87010   0.00000  Uiso   1.00
C594   C     0.11686   0.24990   0.83413   0.00000  Uiso   1.00
C595   C     0.38322   0.24945   0.83307   0.00000  Uiso   1.00
C596   C     0.02431   0.24793   0.83204   0.00000  Uiso   1.00
C597   C     0.47566   0.24828   0.83241   0.00000  Uiso   1.00
C598   C     0.26970   0.10506   0.87177   0.00000  Uiso   1.00
C599   C     0.21463   0.39648   0.81451   0.00000  Uiso   1.00
C600   C     0.23057   0.10462   0.79528   0.00000  Uiso   1.00
C601   C     0.28502   0.39502   0.85415   0.00000  Uiso   1.00
C602   C     0.26584   0.05444   0.87555   0.00000  Uiso   1.00
C603   C     0.21194   0.44648   0.82027   0.00000  Uiso   1.00
C604   C     0.23452   0.05392   0.79269   0.00000  Uiso   1.00
Cu605  Cu    0.25000   0.29822   0.83333   0.00000  Uiso   1.00
Cu606  Cu    0.25000   0.20179   0.83333   0.00000  Uiso   1.00
H607   H     0.30847   0.10912   0.93005   0.00000  Uiso   1.00
H608   H     0.39816   0.17734   0.74250   0.00000  Uiso   1.00
H609   H     0.40427   0.31821   0.92563   0.00000  Uiso   1.00
H610   H     0.14576   0.21243   0.91326   0.00000  Uiso   1.00
H611   H     0.26178   0.00206   0.92259   0.00000  Uiso   1.00
H612   H     0.17028   0.49900   0.82632   0.00000  Uiso   1.00
H613   H     0.23898   0.00097   0.74680   0.00000  Uiso   1.00
H614   H     0.32960   0.49836   0.84377   0.00000  Uiso   1.00
H615   H     0.19313   0.34922   0.76973   0.00000  Uiso   1.00
H616   H     0.19246   0.10801   0.73643   0.00000  Uiso   1.00
H617   H     0.33815   0.39118   0.89607   0.00000  Uiso   1.00
H618   H     0.49296   0.30347   0.76655   0.00000  Uiso   1.00
H619   H     0.00368   0.18776   0.77171   0.00000  Uiso   1.00
H620   H     0.00761   0.30888   0.89217   0.00000  Uiso   1.00
H621   H     0.49614   0.18926   0.89515   0.00000  Uiso   1.00
H622   H     0.09732   0.31373   0.73691   0.00000  Uiso   1.00
N623   N     0.25000   0.12935   0.83333   0.00000  Uiso   1.00
N624   N     0.25000   0.37066   0.83333   0.00000  Uiso   1.00
O625   O     0.18573   0.29072   0.83334   0.00000  Uiso   1.00
O626   O     0.18015   0.37465   0.78992   0.00000  Uiso   1.00
O627   O     0.20812   0.13016   0.75914   0.00000  Uiso   1.00
O628   O     0.31761   0.36924   0.87850   0.00000  Uiso   1.00
O629   O     0.02511   0.30268   0.76096   0.00000  Uiso   1.00
O630   O     0.47150   0.18980   0.76503   0.00000  Uiso   1.00
O631   O     0.47597   0.30648   0.90012   0.00000  Uiso   1.00
O632   O     0.02796   0.19311   0.90318   0.00000  Uiso   1.00
O633   O     0.11745   0.29860   0.76154   0.00000  Uiso   1.00
O634   O     0.37915   0.19520   0.76519   0.00000  Uiso   1.00
O635   O     0.38375   0.30160   0.90261   0.00000  Uiso   1.00
O636   O     0.31427   0.20929   0.83333   0.00000  Uiso   1.00
O637   O     0.11568   0.19921   0.90810   0.00000  Uiso   1.00
O638   O     0.27760   0.03291   0.91973   0.00000  Uiso   1.00
O639   O     0.17192   0.46809   0.80880   0.00000  Uiso   1.00
O640   O     0.22295   0.03176   0.74895   0.00000  Uiso   1.00
O641   O     0.32800   0.46733   0.86126   0.00000  Uiso   1.00
O642   O     0.31427   0.29072   0.83333   0.00000  Uiso   1.00
O643   O     0.18573   0.20929   0.83334   0.00000  Uiso   1.00
O644   O     0.25000   0.29071   0.76280   0.00000  Uiso   1.00
O645   O     0.25000   0.20929   0.90387   0.00000  Uiso   1.00
O646   O     0.25000   0.29071   0.90387   0.00000  Uiso   1.00
O647   O     0.25000   0.20929   0.76280   0.00000  Uiso   1.00
O648   O     0.29251   0.13100   0.90712   0.00000  Uiso   1.00
C649   C     0.66513   0.24999   0.83353   0.00000  Uiso   1.00
C650   C     0.78787   0.44583   0.85021   0.00000  Uiso   1.00
C651   C     0.74992   0.25005   0.74025   0.00000  Uiso   1.00
C652   C     0.75006   0.24995   0.92641   0.00000  Uiso   1.00
C653   C     0.75016   0.02758   0.83446   0.00000  Uiso   1.00
C654   C     0.74999   0.47284   0.83514   0.00000  Uiso   1.00
C655   C     0.74995   0.25006   0.68852   0.00000  Uiso   1.00
C656   C     0.75000   0.24992   0.97814   0.00000  Uiso   1.00
C657   C     0.54695   0.27543   0.79657   0.00000  Uiso   1.00
C658   C     0.95132   0.21942   0.79860   0.00000  Uiso   1.00
C659   C     0.95357   0.27740   0.86679   0.00000  Uiso   1.00
C660   C     0.83491   0.24992   0.83341   0.00000  Uiso   1.00
C661   C     0.54818   0.22109   0.86809   0.00000  Uiso   1.00
C662   C     0.59351   0.27517   0.79713   0.00000  Uiso   1.00
C663   C     0.90480   0.22093   0.79859   0.00000  Uiso   1.00
C664   C     0.90709   0.27674   0.86771   0.00000  Uiso   1.00
C665   C     0.59421   0.22342   0.87010   0.00000  Uiso   1.00
C666   C     0.61686   0.24990   0.83413   0.00000  Uiso   1.00
C667   C     0.88322   0.24945   0.83307   0.00000  Uiso   1.00
C668   C     0.52431   0.24793   0.83204   0.00000  Uiso   1.00
C669   C     0.97566   0.24828   0.83241   0.00000  Uiso   1.00
C670   C     0.76970   0.10506   0.87177   0.00000  Uiso   1.00
C671   C     0.71463   0.39648   0.81451   0.00000  Uiso   1.00
C672   C     0.73057   0.10462   0.79528   0.00000  Uiso   1.00
C673   C     0.78502   0.39502   0.85415   0.00000  Uiso   1.00
C674   C     0.76584   0.05444   0.87555   0.00000  Uiso   1.00
C675   C     0.71194   0.44648   0.82027   0.00000  Uiso   1.00
C676   C     0.73452   0.05392   0.79269   0.00000  Uiso   1.00
Cu677  Cu    0.75000   0.29822   0.83333   0.00000  Uiso   1.00
Cu678  Cu    0.75000   0.20179   0.83333   0.00000  Uiso   1.00
H679   H     0.80847   0.10912   0.93005   0.00000  Uiso   1.00
H680   H     0.89816   0.17734   0.74250   0.00000  Uiso   1.00
H681   H     0.90427   0.31821   0.92563   0.00000  Uiso   1.00
H682   H     0.64576   0.21243   0.91326   0.00000  Uiso   1.00
H683   H     0.76178   0.00206   0.92259   0.00000  Uiso   1.00
H684   H     0.67028   0.49900   0.82632   0.00000  Uiso   1.00
H685   H     0.73898   0.00097   0.74680   0.00000  Uiso   1.00
H686   H     0.82960   0.49836   0.84377   0.00000  Uiso   1.00
H687   H     0.69313   0.34922   0.76973   0.00000  Uiso   1.00
H688   H     0.69246   0.10801   0.73643   0.00000  Uiso   1.00
H689   H     0.83815   0.39118   0.89607   0.00000  Uiso   1.00
H690   H     0.99296   0.30347   0.76655   0.00000  Uiso   1.00
H691   H     0.50368   0.18776   0.77171   0.00000  Uiso   1.00
H692   H     0.50761   0.30888   0.89217   0.00000  Uiso   1.00
H693   H     0.99614   0.18926   0.89515   0.00000  Uiso   1.00
H694   H     0.59732   0.31373   0.73691   0.00000  Uiso   1.00
N695   N     0.75000   0.12935   0.83333   0.00000  Uiso   1.00
N696   N     0.75000   0.37066   0.83333   0.00000  Uiso   1.00
O697   O     0.68573   0.29072   0.83334   0.00000  Uiso   1.00
O698   O     0.68015   0.37465   0.78992   0.00000  Uiso   1.00
O699   O     0.70812   0.13016   0.75914   0.00000  Uiso   1.00
O700   O     0.81761   0.36924   0.87850   0.00000  Uiso   1.00
O701   O     0.52511   0.30268   0.76096   0.00000  Uiso   1.00
O702   O     0.97150   0.18980   0.76503   0.00000  Uiso   1.00
O703   O     0.97597   0.30648   0.90012   0.00000  Uiso   1.00
O704   O     0.52796   0.19311   0.90318   0.00000  Uiso   1.00
O705   O     0.61745   0.29860   0.76154   0.00000  Uiso   1.00
O706   O     0.87915   0.19520   0.76519   0.00000  Uiso   1.00
O707   O     0.88375   0.30160   0.90261   0.00000  Uiso   1.00
O708   O     0.81427   0.20929   0.83333   0.00000  Uiso   1.00
O709   O     0.61568   0.19921   0.90810   0.00000  Uiso   1.00
O710   O     0.77760   0.03291   0.91973   0.00000  Uiso   1.00
O711   O     0.67192   0.46809   0.80880   0.00000  Uiso   1.00
O712   O     0.72295   0.03176   0.74895   0.00000  Uiso   1.00
O713   O     0.82800   0.46733   0.86126   0.00000  Uiso   1.00
O714   O     0.81427   0.29072   0.83333   0.00000  Uiso   1.00
O715   O     0.68573   0.20929   0.83334   0.00000  Uiso   1.00
O716   O     0.75000   0.29071   0.76280   0.00000  Uiso   1.00
O717   O     0.75000   0.20929   0.90387   0.00000  Uiso   1.00
O718   O     0.75000   0.29071   0.90387   0.00000  Uiso   1.00
O719   O     0.75000   0.20929   0.76280   0.00000  Uiso   1.00
O720   O     0.79251   0.13100   0.90712   0.00000  Uiso   1.00
C721   C     0.16513   0.74999   0.83353   0.00000  Uiso   1.00
C722   C     0.28787   0.94583   0.85021   0.00000  Uiso   1.00
C723   C     0.24992   0.75005   0.74025   0.00000  Uiso   1.00
C724   C     0.25006   0.74995   0.92641   0.00000  Uiso   1.00
C725   C     0.25016   0.52758   0.83446   0.00000  Uiso   1.00
C726   C     0.24999   0.97284   0.83514   0.00000  Uiso   1.00
C727   C     0.24995   0.75006   0.68852   0.00000  Uiso   1.00
C728   C     0.25000   0.74992   0.97814   0.00000  Uiso   1.00
C729   C     0.04695   0.77543   0.79657   0.00000  Uiso   1.00
C730   C     0.45132   0.71942   0.79860   0.00000  Uiso   1.00
C731   C     0.45357   0.77740   0.86679   0.00000  Uiso   1.00
C732   C     0.33491   0.74992   0.83341   0.00000  Uiso   1.00
C733   C     0.04818   0.72109   0.86809   0.00000  Uiso   1.00
C734   C     0.09351   0.77517   0.79713   0.00000  Uiso   1.00
C735   C     0.40480   0.72093   0.79859   0.00000  Uiso   1.00
C736   C     0.40709   0.77674   0.86771   0.00000  Uiso   1.00
C737   C     0.09421   0.72342   0.87010   0.00000  Uiso   1.00
C738   C     0.11686   0.74990   0.83413   0.00000  Uiso   1.00
C739   C     0.38322   0.74945   0.83307   0.00000  Uiso   1.00
C740   C     0.02431   0.74793   0.83204   0.00000  Uiso   1.00
C741   C     0.47566   0.74828   0.83241   0.00000  Uiso   1.00
C742   C     0.26970   0.60506   0.87177   0.00000  Uiso   1.00
C743   C     0.21463   0.89648   0.81451   0.00000  Uiso   1.00
C744   C     0.23057   0.60462   0.79528   0.00000  Uiso   1.00
C745   C     0.28502   0.89502   0.85415   0.00000  Uiso   1.00
C746   C     0.26584   0.55444   0.87555   0.00000  Uiso   1.00
C747   C     0.21194   0.94648   0.82027   0.00000  Uiso   1.00
C748   C     0.23452   0.55392   0.79269   0.00000  Uiso   1.00
Cu749  Cu    0.25000   0.79822   0.83333   0.00000  Uiso   1.00
Cu750  Cu    0.25000   0.70179   0.83333   0.00000  Uiso   1.00
H751   H     0.30847   0.60912   0.93005   0.00000  Uiso   1.00
H752   H     0.39816   0.67734   0.74250   0.00000  Uiso   1.00
H753   H     0.40427   0.81821   0.92563   0.00000  Uiso   1.00
H754   H     0.14576   0.71243   0.91326   0.00000  Uiso   1.00
H755   H     0.26178   0.50206   0.92259   0.00000  Uiso   1.00
H756   H     0.17028   0.99900   0.82632   0.00000  Uiso   1.00
H757   H     0.23898   0.50097   0.74680   0.00000  Uiso   1.00
H758   H     0.32960   0.99836   0.84377   0.00000  Uiso   1.00
H759   H     0.19313   0.84922   0.76973   0.00000  Uiso   1.00
H760   H     0.19246   0.60801   0.73643   0.00000  Uiso   1.00
H761   H     0.33815   0.89118   0.89607   0.00000  Uiso   1.00
H762   H     0.49296   0.80347   0.76655   0.00000  Uiso   1.00
H763   H     0.00368   0.68776   0.77171   0.00000  Uiso   1.00
H764   H     0.00761   0.80888   0.89217   0.00000  Uiso   1.00
H765   H     0.49614   0.68926   0.89515   0.00000  Uiso   1.00
H766   H     0.09732   0.81373   0.73691   0.00000  Uiso   1.00
N767   N     0.25000   0.62935   0.83333   0.00000  Uiso   1.00
N768   N     0.25000   0.87066   0.83333   0.00000  Uiso   1.00
O769   O     0.18573   0.79072   0.83334   0.00000  Uiso   1.00
O770   O     0.18015   0.87465   0.78992   0.00000  Uiso   1.00
O771   O     0.20812   0.63016   0.75914   0.00000  Uiso   1.00
O772   O     0.31761   0.86924   0.87850   0.00000  Uiso   1.00
O773   O     0.02511   0.80268   0.76096   0.00000  Uiso   1.00
O774   O     0.47150   0.68980   0.76503   0.00000  Uiso   1.00
O775   O     0.47597   0.80648   0.90012   0.00000  Uiso   1.00
O776   O     0.02796   0.69311   0.90318   0.00000  Uiso   1.00
O777   O     0.11745   0.79860   0.76154   0.00000  Uiso   1.00
O778   O     0.37915   0.69520   0.76519   0.00000  Uiso   1.00
O779   O     0.38375   0.80160   0.90261   0.00000  Uiso   1.00
O780   O     0.31427   0.70929   0.83333   0.00000  Uiso   1.00
O781   O     0.11568   0.69921   0.90810   0.00000  Uiso   1.00
O782   O     0.27760   0.53291   0.91973   0.00000  Uiso   1.00
O783   O     0.17192   0.96809   0.80880   0.00000  Uiso   1.00
O784   O     0.22295   0.53176   0.74895   0.00000  Uiso   1.00
O785   O     0.32800   0.96733   0.86126   0.00000  Uiso   1.00
O786   O     0.31427   0.79072   0.83333   0.00000  Uiso   1.00
O787   O     0.18573   0.70929   0.83334   0.00000  Uiso   1.00
O788   O     0.25000   0.79071   0.76280   0.00000  Uiso   1.00
O789   O     0.25000   0.70929   0.90387   0.00000  Uiso   1.00
O790   O     0.25000   0.79071   0.90387   0.00000  Uiso   1.00
O791   O     0.25000   0.70929   0.76280   0.00000  Uiso   1.00
O792   O     0.29251   0.63100   0.90712   0.00000  Uiso   1.00
C793   C     0.66513   0.74999   0.83353   0.00000  Uiso   1.00
C794   C     0.78787   0.94583   0.85021   0.00000  Uiso   1.00
C795   C     0.74992   0.75005   0.74025   0.00000  Uiso   1.00
C796   C     0.75006   0.74995   0.92641   0.00000  Uiso   1.00
C797   C     0.75016   0.52758   0.83446   0.00000  Uiso   1.00
C798   C     0.74999   0.97284   0.83514   0.00000  Uiso   1.00
C799   C     0.74995   0.75006   0.68852   0.00000  Uiso   1.00
C800   C     0.75000   0.74992   0.97814   0.00000  Uiso   1.00
C801   C     0.54695   0.77543   0.79657   0.00000  Uiso   1.00
C802   C     0.95132   0.71942   0.79860   0.00000  Uiso   1.00
C803   C     0.95357   0.77740   0.86679   0.00000  Uiso   1.00
C804   C     0.83491   0.74992   0.83341   0.00000  Uiso   1.00
C805   C     0.54818   0.72109   0.86809   0.00000  Uiso   1.00
C806   C     0.59351   0.77517   0.79713   0.00000  Uiso   1.00
C807   C     0.90480   0.72093   0.79859   0.00000  Uiso   1.00
C808   C     0.90709   0.77674   0.86771   0.00000  Uiso   1.00
C809   C     0.59421   0.72342   0.87010   0.00000  Uiso   1.00
C810   C     0.61686   0.74990   0.83413   0.00000  Uiso   1.00
C811   C     0.88322   0.74945   0.83307   0.00000  Uiso   1.00
C812   C     0.52431   0.74793   0.83204   0.00000  Uiso   1.00
C813   C     0.97566   0.74828   0.83241   0.00000  Uiso   1.00
C814   C     0.76970   0.60506   0.87177   0.00000  Uiso   1.00
C815   C     0.71463   0.89648   0.81451   0.00000  Uiso   1.00
C816   C     0.73057   0.60462   0.79528   0.00000  Uiso   1.00
C817   C     0.78502   0.89502   0.85415   0.00000  Uiso   1.00
C818   C     0.76584   0.55444   0.87555   0.00000  Uiso   1.00
C819   C     0.71194   0.94648   0.82027   0.00000  Uiso   1.00
C820   C     0.73452   0.55392   0.79269   0.00000  Uiso   1.00
Cu821  Cu    0.75000   0.79822   0.83333   0.00000  Uiso   1.00
Cu822  Cu    0.75000   0.70179   0.83333   0.00000  Uiso   1.00
H823   H     0.80847   0.60912   0.93005   0.00000  Uiso   1.00
H824   H     0.89816   0.67734   0.74250   0.00000  Uiso   1.00
H825   H     0.90427   0.81821   0.92563   0.00000  Uiso   1.00
H826   H     0.64576   0.71243   0.91326   0.00000  Uiso   1.00
H827   H     0.76178   0.50206   0.92259   0.00000  Uiso   1.00
H828   H     0.67028   0.99900   0.82632   0.00000  Uiso   1.00
H829   H     0.73898   0.50097   0.74680   0.00000  Uiso   1.00
H830   H     0.82960   0.99836   0.84377   0.00000  Uiso   1.00
H831   H     0.69313   0.84922   0.76973   0.00000  Uiso   1.00
H832   H     0.69246   0.60801   0.73643   0.00000  Uiso   1.00
H833   H     0.83815   0.89118   0.89607   0.00000  Uiso   1.00
H834   H     0.99296   0.80347   0.76655   0.00000  Uiso   1.00
H835   H     0.50368   0.68776   0.77171   0.00000  Uiso   1.00
H836   H     0.50761   0.80888   0.89217   0.00000  Uiso   1.00
H837   H     0.99614   0.68926   0.89515   0.00000  Uiso   1.00
H838   H     0.59732   0.81373   0.73691   0.00000  Uiso   1.00
N839   N     0.75000   0.62935   0.83333   0.00000  Uiso   1.00
N840   N     0.75000   0.87066   0.83333   0.00000  Uiso   1.00
O841   O     0.68573   0.79072   0.83334   0.00000  Uiso   1.00
O842   O     0.68015   0.87465   0.78992   0.00000  Uiso   1.00
O843   O     0.70812   0.63016   0.75914   0.00000  Uiso   1.00
O844   O     0.81761   0.86924   0.87850   0.00000  Uiso   1.00
O845   O     0.52511   0.80268   0.76096   0.00000  Uiso   1.00
O846   O     0.97150   0.68980   0.76503   0.00000  Uiso   1.00
O847   O     0.97597   0.80648   0.90012   0.00000  Uiso   1.00
O848   O     0.52796   0.69311   0.90318   0.00000  Uiso   1.00
O849   O     0.61745   0.79860   0.76154   0.00000  Uiso   1.00
O850   O     0.87915   0.69520   0.76519   0.00000  Uiso   1.00
O851   O     0.88375   0.80160   0.90261   0.00000  Uiso   1.00
O852   O     0.81427   0.70929   0.83333   0.00000  Uiso   1.00
O853   O     0.61568   0.69921   0.90810   0.00000  Uiso   1.00
O854   O     0.77760   0.53291   0.91973   0.00000  Uiso   1.00
O855   O     0.67192   0.96809   0.80880   0.00000  Uiso   1.00
O856   O     0.72295   0.53176   0.74895   0.00000  Uiso   1.00
O857   O     0.82800   0.96733   0.86126   0.00000  Uiso   1.00
O858   O     0.81427   0.79072   0.83333   0.00000  Uiso   1.00
O859   O     0.68573   0.70929   0.83334   0.00000  Uiso   1.00
O860   O     0.75000   0.79071   0.76280   0.00000  Uiso   1.00
O861   O     0.75000   0.70929   0.90387   0.00000  Uiso   1.00
O862   O     0.75000   0.79071   0.90387   0.00000  Uiso   1.00
O863   O     0.75000   0.70929   0.76280   0.00000  Uiso   1.00
O864   O     0.79251   0.63100   0.90712   0.00000  Uiso   1.00
loop_
_geom_bond_atom_site_label_1
_geom_bond_atom_site_label_2
_geom_bond_distance
_geom_bond_site_symmetry_2
_ccdc_geom_bond_type
C1     C18     1.460   .     S
C1     O67     1.296   .     A
C1     O49     1.297   .     A
C2     O65     1.382   .     S
C2     C6      1.423   .     A
C2     C25     1.426   .     A
C3     O71     1.292   .     A
C3     C7      1.408   .     S
C3     O68     1.293   .     A
C4     C8      1.408   .     S
C4     O70     1.292   .     A
C4     O69     1.293   .     A
C5     C28     1.424   .     A
C5     C26     1.422   .     A
C5     C150    1.529   1_545 S
C6     C27     1.419   .     A
C6     C149    1.529   .     S
C7     C584    1.190   1_554 S
C8     C295    1.190   .     S
C9     C14     1.408   .     A
C9     O53     1.386   .     S
C9     C20     1.419   .     A
C10    C21     1.420   .     A
C10    O54     1.386   .     S
C10    C15     1.407   .     A
C11    C16     1.407   .     A
C11    O55     1.386   .     S
C11    C21     1.420   .     A
C12    C19     1.461   .     S
C12    O60     1.296   .     A
C12    O66     1.299   .     A
C13    C17     1.393   .     A
C13    O56     1.385   .     S
C13    C20     1.418   .     A
C14    C18     1.405   .     A
C14    O57     1.385   .     S
C15    C19     1.404   .     A
C15    O58     1.386   .     S
C16    C19     1.403   .     A
C16    O59     1.384   .     S
C17    C18     1.414   .     A
C17    O61     1.384   .     S
C20    C93     1.471   1_455 S
C21    C92     1.471   .     S
C22    O72     1.380   .     S
C22    N47     1.370   .     A
C22    C26     1.423   .     A
C23    C27     1.408   .     A
C23    O50     1.371   .     S
C23    N48     1.378   .     A
C24    O51     1.380   .     S
C24    C28     1.424   .     A
C24    N47     1.369   .     A
C25    N48     1.372   .     A
C25    O52     1.377   .     S
C26    O62     1.382   .     S
C27    O63     1.381   .     S
C28    O64     1.382   .     S
Cu29   Cu30    2.694   .     S
Cu29   O66     1.955   .     S
Cu29   O49     1.955   .     S
Cu29   N48     2.024   .     S
Cu29   O68     1.932   .     S
Cu29   O70     1.931   .     S
Cu30   O67     1.955   .     S
Cu30   O71     1.931   .     S
Cu30   N47     2.024   .     S
Cu30   O69     1.932   .     S
Cu30   O60     1.955   .     S
H31    O72     0.990   .     S
H32    O58     0.989   .     S
H33    O59     0.989   .     S
H34    O61     0.989   .     S
H35    O62     0.990   .     S
H36    O63     0.990   .     S
H37    O64     0.990   .     S
H38    O65     0.989   .     S
H39    O50     0.986   .     S
H40    O51     0.990   .     S
H41    O52     0.990   .     S
H42    O125    0.988   .     S
H43    O126    0.988   1_455 S
H44    O127    0.988   1_455 S
H45    O128    0.988   .     S
H46    O57     0.989   .     S
O53    H114    0.988   1_455 S
O54    H115    0.988   .     S
O55    H116    0.988   .     S
O56    H117    0.988   1_455 S
C73    C90     1.460   .     S
C73    O139    1.296   .     A
C73    O121    1.297   .     A
C74    O137    1.382   .     S
C74    C78     1.423   .     A
C74    C97     1.426   .     A
C75    O143    1.292   .     A
C75    C79     1.408   .     S
C75    O140    1.293   .     A
C76    C80     1.408   .     S
C76    O142    1.292   .     A
C76    O141    1.293   .     A
C77    C100    1.424   .     A
C77    C98     1.422   .     A
C77    C222    1.529   1_545 S
C78    C99     1.419   .     A
C78    C221    1.529   .     S
C79    C656    1.190   1_554 S
C80    C367    1.190   .     S
C81    C86     1.408   .     A
C81    O125    1.386   .     S
C81    C92     1.419   .     A
C82    C93     1.420   .     A
C82    O126    1.386   .     S
C82    C87     1.407   .     A
C83    C88     1.407   .     A
C83    O127    1.386   .     S
C83    C93     1.420   .     A
C84    C91     1.461   .     S
C84    O132    1.296   .     A
C84    O138    1.299   .     A
C85    C89     1.393   .     A
C85    O128    1.385   .     S
C85    C92     1.418   .     A
C86    C90     1.405   .     A
C86    O129    1.385   .     S
C87    C91     1.404   .     A
C87    O130    1.386   .     S
C88    C91     1.403   .     A
C88    O131    1.384   .     S
C89    C90     1.414   .     A
C89    O133    1.384   .     S
C93    C20     1.471   1_655 S
C94    O144    1.380   .     S
C94    N119    1.370   .     A
C94    C98     1.423   .     A
C95    C99     1.408   .     A
C95    O122    1.371   .     S
C95    N120    1.378   .     A
C96    O123    1.380   .     S
C96    C100    1.424   .     A
C96    N119    1.369   .     A
C97    N120    1.372   .     A
C97    O124    1.377   .     S
C98    O134    1.382   .     S
C99    O135    1.381   .     S
C100   O136    1.382   .     S
Cu101  Cu102   2.694   .     S
Cu101  O138    1.955   .     S
Cu101  O121    1.955   .     S
Cu101  N120    2.024   .     S
Cu101  O140    1.932   .     S
Cu101  O142    1.931   .     S
Cu102  O139    1.955   .     S
Cu102  O143    1.931   .     S
Cu102  N119    2.024   .     S
Cu102  O141    1.932   .     S
Cu102  O132    1.955   .     S
H103   O144    0.990   .     S
H104   O130    0.989   .     S
H105   O131    0.989   .     S
H106   O133    0.989   .     S
H107   O134    0.990   .     S
H108   O135    0.990   .     S
H109   O136    0.990   .     S
H110   O137    0.989   .     S
H111   O122    0.986   .     S
H112   O123    0.990   .     S
H113   O124    0.990   .     S
H114   O53     0.988   1_655 S
H117   O56     0.988   1_655 S
H118   O129    0.989   .     S
O126   H43     0.988   1_655 S
O127   H44     0.988   1_655 S
C145   C162    1.460   .     S
C145   O211    1.296   .     A
C145   O193    1.297   .     A
C146   O209    1.382   .     S
C146   C150    1.423   .     A
C146   C169    1.426   .     A
C147   O215    1.292   .     A
C147   C151    1.408   .     S
C147   O212    1.293   .     A
C148   C152    1.408   .     S
C148   O214    1.292   .     A
C148   O213    1.293   .     A
C149   C172    1.424   .     A
C149   C170    1.422   .     A
C150   C171    1.419   .     A
C150   C5      1.529   1_565 S
C151   C728    1.190   1_554 S
C152   C439    1.190   .     S
C153   C158    1.408   .     A
C153   O197    1.386   .     S
C153   C164    1.419   .     A
C154   C165    1.420   .     A
C154   O198    1.386   .     S
C154   C159    1.407   .     A
C155   C160    1.407   .     A
C155   O199    1.386   .     S
C155   C165    1.420   .     A
C156   C163    1.461   .     S
C156   O204    1.296   .     A
C156   O210    1.299   .     A
C157   C161    1.393   .     A
C157   O200    1.385   .     S
C157   C164    1.418   .     A
C158   C162    1.405   .     A
C158   O201    1.385   .     S
C159   C163    1.404   .     A
C159   O202    1.386   .     S
C160   C163    1.403   .     A
C160   O203    1.384   .     S
C161   C162    1.414   .     A
C161   O205    1.384   .     S
C164   C237    1.471   1_455 S
C165   C236    1.471   .     S
C166   O216    1.380   .     S
C166   N191    1.370   .     A
C166   C170    1.423   .     A
C167   C171    1.408   .     A
C167   O194    1.371   .     S
C167   N192    1.378   .     A
C168   O195    1.380   .     S
C168   C172    1.424   .     A
C168   N191    1.369   .     A
C169   N192    1.372   .     A
C169   O196    1.377   .     S
C170   O206    1.382   .     S
C171   O207    1.381   .     S
C172   O208    1.382   .     S
Cu173  Cu174   2.694   .     S
Cu173  O210    1.955   .     S
Cu173  O193    1.955   .     S
Cu173  N192    2.024   .     S
Cu173  O212    1.932   .     S
Cu173  O214    1.931   .     S
Cu174  O211    1.955   .     S
Cu174  O215    1.931   .     S
Cu174  N191    2.024   .     S
Cu174  O213    1.932   .     S
Cu174  O204    1.955   .     S
H175   O216    0.990   .     S
H176   O202    0.989   .     S
H177   O203    0.989   .     S
H178   O205    0.989   .     S
H179   O206    0.990   .     S
H180   O207    0.990   .     S
H181   O208    0.990   .     S
H182   O209    0.989   .     S
H183   O194    0.986   .     S
H184   O195    0.990   .     S
H185   O196    0.990   .     S
H186   O269    0.988   .     S
H187   O270    0.988   1_455 S
H188   O271    0.988   1_455 S
H189   O272    0.988   .     S
H190   O201    0.989   .     S
O197   H258    0.988   1_455 S
O198   H259    0.988   .     S
O199   H260    0.988   .     S
O200   H261    0.988   1_455 S
C217   C234    1.460   .     S
C217   O283    1.296   .     A
C217   O265    1.297   .     A
C218   O281    1.382   .     S
C218   C222    1.423   .     A
C218   C241    1.426   .     A
C219   O287    1.292   .     A
C219   C223    1.408   .     S
C219   O284    1.293   .     A
C220   C224    1.408   .     S
C220   O286    1.292   .     A
C220   O285    1.293   .     A
C221   C244    1.424   .     A
C221   C242    1.422   .     A
C222   C243    1.419   .     A
C222   C77     1.529   1_565 S
C223   C800    1.190   1_554 S
C224   C511    1.190   .     S
C225   C230    1.408   .     A
C225   O269    1.386   .     S
C225   C236    1.419   .     A
C226   C237    1.420   .     A
C226   O270    1.386   .     S
C226   C231    1.407   .     A
C227   C232    1.407   .     A
C227   O271    1.386   .     S
C227   C237    1.420   .     A
C228   C235    1.461   .     S
C228   O276    1.296   .     A
C228   O282    1.299   .     A
C229   C233    1.393   .     A
C229   O272    1.385   .     S
C229   C236    1.418   .     A
C230   C234    1.405   .     A
C230   O273    1.385   .     S
C231   C235    1.404   .     A
C231   O274    1.386   .     S
C232   C235    1.403   .     A
C232   O275    1.384   .     S
C233   C234    1.414   .     A
C233   O277    1.384   .     S
C237   C164    1.471   1_655 S
C238   O288    1.380   .     S
C238   N263    1.370   .     A
C238   C242    1.423   .     A
C239   C243    1.408   .     A
C239   O266    1.371   .     S
C239   N264    1.378   .     A
C240   O267    1.380   .     S
C240   C244    1.424   .     A
C240   N263    1.369   .     A
C241   N264    1.372   .     A
C241   O268    1.377   .     S
C242   O278    1.382   .     S
C243   O279    1.381   .     S
C244   O280    1.382   .     S
Cu245  Cu246   2.694   .     S
Cu245  O282    1.955   .     S
Cu245  O265    1.955   .     S
Cu245  N264    2.024   .     S
Cu245  O284    1.932   .     S
Cu245  O286    1.931   .     S
Cu246  O283    1.955   .     S
Cu246  O287    1.931   .     S
Cu246  N263    2.024   .     S
Cu246  O285    1.932   .     S
Cu246  O276    1.955   .     S
H247   O288    0.990   .     S
H248   O274    0.989   .     S
H249   O275    0.989   .     S
H250   O277    0.989   .     S
H251   O278    0.990   .     S
H252   O279    0.990   .     S
H253   O280    0.990   .     S
H254   O281    0.989   .     S
H255   O266    0.986   .     S
H256   O267    0.990   .     S
H257   O268    0.990   .     S
H258   O197    0.988   1_655 S
H261   O200    0.988   1_655 S
H262   O273    0.989   .     S
O270   H187    0.988   1_655 S
O271   H188    0.988   1_655 S
C289   C306    1.460   .     S
C289   O355    1.296   .     A
C289   O337    1.297   .     A
C290   O353    1.382   .     S
C290   C294    1.423   .     A
C290   C313    1.426   .     A
C291   O359    1.292   .     A
C291   C295    1.408   .     S
C291   O356    1.293   .     A
C292   C296    1.408   .     S
C292   O358    1.292   .     A
C292   O357    1.293   .     A
C293   C316    1.424   .     A
C293   C314    1.422   .     A
C293   C438    1.529   1_545 S
C294   C315    1.419   .     A
C294   C437    1.529   .     S
C296   C583    1.190   .     S
C297   C302    1.408   .     A
C297   O341    1.386   .     S
C297   C308    1.419   .     A
C298   C309    1.420   .     A
C298   O342    1.386   .     S
C298   C303    1.407   .     A
C299   C304    1.407   .     A
C299   O343    1.386   .     S
C299   C309    1.420   .     A
C300   C307    1.461   .     S
C300   O348    1.296   .     A
C300   O354    1.299   .     A
C301   C305    1.393   .     A
C301   O344    1.385   .     S
C301   C308    1.418   .     A
C302   C306    1.405   .     A
C302   O345    1.385   .     S
C303   C307    1.404   .     A
C303   O346    1.386   .     S
C304   C307    1.403   .     A
C304   O347    1.384   .     S
C305   C306    1.414   .     A
C305   O349    1.384   .     S
C308   C381    1.471   1_455 S
C309   C380    1.471   .     S
C310   O360    1.380   .     S
C310   N335    1.370   .     A
C310   C314    1.423   .     A
C311   C315    1.408   .     A
C311   O338    1.371   .     S
C311   N336    1.378   .     A
C312   O339    1.380   .     S
C312   C316    1.424   .     A
C312   N335    1.369   .     A
C313   N336    1.372   .     A
C313   O340    1.377   .     S
C314   O350    1.382   .     S
C315   O351    1.381   .     S
C316   O352    1.382   .     S
Cu317  Cu318   2.694   .     S
Cu317  O354    1.955   .     S
Cu317  O337    1.955   .     S
Cu317  N336    2.024   .     S
Cu317  O356    1.932   .     S
Cu317  O358    1.931   .     S
Cu318  O355    1.955   .     S
Cu318  O359    1.931   .     S
Cu318  N335    2.024   .     S
Cu318  O357    1.932   .     S
Cu318  O348    1.955   .     S
H319   O360    0.990   .     S
H320   O346    0.989   .     S
H321   O347    0.989   .     S
H322   O349    0.989   .     S
H323   O350    0.990   .     S
H324   O351    0.990   .     S
H325   O352    0.990   .     S
H326   O353    0.989   .     S
H327   O338    0.986   .     S
H328   O339    0.990   .     S
H329   O340    0.990   .     S
H330   O413    0.988   .     S
H331   O414    0.988   1_455 S
H332   O415    0.988   1_455 S
H333   O416    0.988   .     S
H334   O345    0.989   .     S
O341   H402    0.988   1_455 S
O342   H403    0.988   .     S
O343   H404    0.988   .     S
O344   H405    0.988   1_455 S
C361   C378    1.460   .     S
C361   O427    1.296   .     A
C361   O409    1.297   .     A
C362   O425    1.382   .     S
C362   C366    1.423   .     A
C362   C385    1.426   .     A
C363   O431    1.292   .     A
C363   C367    1.408   .     S
C363   O428    1.293   .     A
C364   C368    1.408   .     S
C364   O430    1.292   .     A
C364   O429    1.293   .     A
C365   C388    1.424   .     A
C365   C386    1.422   .     A
C365   C510    1.529   1_545 S
C366   C387    1.419   .     A
C366   C509    1.529   .     S
C368   C655    1.190   .     S
C369   C374    1.408   .     A
C369   O413    1.386   .     S
C369   C380    1.419   .     A
C370   C381    1.420   .     A
C370   O414    1.386   .     S
C370   C375    1.407   .     A
C371   C376    1.407   .     A
C371   O415    1.386   .     S
C371   C381    1.420   .     A
C372   C379    1.461   .     S
C372   O420    1.296   .     A
C372   O426    1.299   .     A
C373   C377    1.393   .     A
C373   O416    1.385   .     S
C373   C380    1.418   .     A
C374   C378    1.405   .     A
C374   O417    1.385   .     S
C375   C379    1.404   .     A
C375   O418    1.386   .     S
C376   C379    1.403   .     A
C376   O419    1.384   .     S
C377   C378    1.414   .     A
C377   O421    1.384   .     S
C381   C308    1.471   1_655 S
C382   O432    1.380   .     S
C382   N407    1.370   .     A
C382   C386    1.423   .     A
C383   C387    1.408   .     A
C383   O410    1.371   .     S
C383   N408    1.378   .     A
C384   O411    1.380   .     S
C384   C388    1.424   .     A
C384   N407    1.369   .     A
C385   N408    1.372   .     A
C385   O412    1.377   .     S
C386   O422    1.382   .     S
C387   O423    1.381   .     S
C388   O424    1.382   .     S
Cu389  Cu390   2.694   .     S
Cu389  O426    1.955   .     S
Cu389  O409    1.955   .     S
Cu389  N408    2.024   .     S
Cu389  O428    1.932   .     S
Cu389  O430    1.931   .     S
Cu390  O427    1.955   .     S
Cu390  O431    1.931   .     S
Cu390  N407    2.024   .     S
Cu390  O429    1.932   .     S
Cu390  O420    1.955   .     S
H391   O432    0.990   .     S
H392   O418    0.989   .     S
H393   O419    0.989   .     S
H394   O421    0.989   .     S
H395   O422    0.990   .     S
H396   O423    0.990   .     S
H397   O424    0.990   .     S
H398   O425    0.989   .     S
H399   O410    0.986   .     S
H400   O411    0.990   .     S
H401   O412    0.990   .     S
H402   O341    0.988   1_655 S
H405   O344    0.988   1_655 S
H406   O417    0.989   .     S
O414   H331    0.988   1_655 S
O415   H332    0.988   1_655 S
C433   C450    1.460   .     S
C433   O499    1.296   .     A
C433   O481    1.297   .     A
C434   O497    1.382   .     S
C434   C438    1.423   .     A
C434   C457    1.426   .     A
C435   O503    1.292   .     A
C435   C439    1.408   .     S
C435   O500    1.293   .     A
C436   C440    1.408   .     S
C436   O502    1.292   .     A
C436   O501    1.293   .     A
C437   C460    1.424   .     A
C437   C458    1.422   .     A
C438   C459    1.419   .     A
C438   C293    1.529   1_565 S
C440   C727    1.190   .     S
C441   C446    1.408   .     A
C441   O485    1.386   .     S
C441   C452    1.419   .     A
C442   C453    1.420   .     A
C442   O486    1.386   .     S
C442   C447    1.407   .     A
C443   C448    1.407   .     A
C443   O487    1.386   .     S
C443   C453    1.420   .     A
C444   C451    1.461   .     S
C444   O492    1.296   .     A
C444   O498    1.299   .     A
C445   C449    1.393   .     A
C445   O488    1.385   .     S
C445   C452    1.418   .     A
C446   C450    1.405   .     A
C446   O489    1.385   .     S
C447   C451    1.404   .     A
C447   O490    1.386   .     S
C448   C451    1.403   .     A
C448   O491    1.384   .     S
C449   C450    1.414   .     A
C449   O493    1.384   .     S
C452   C525    1.471   1_455 S
C453   C524    1.471   .     S
C454   O504    1.380   .     S
C454   N479    1.370   .     A
C454   C458    1.423   .     A
C455   C459    1.408   .     A
C455   O482    1.371   .     S
C455   N480    1.378   .     A
C456   O483    1.380   .     S
C456   C460    1.424   .     A
C456   N479    1.369   .     A
C457   N480    1.372   .     A
C457   O484    1.377   .     S
C458   O494    1.382   .     S
C459   O495    1.381   .     S
C460   O496    1.382   .     S
Cu461  Cu462   2.694   .     S
Cu461  O498    1.955   .     S
Cu461  O481    1.955   .     S
Cu461  N480    2.024   .     S
Cu461  O500    1.932   .     S
Cu461  O502    1.931   .     S
Cu462  O499    1.955   .     S
Cu462  O503    1.931   .     S
Cu462  N479    2.024   .     S
Cu462  O501    1.932   .     S
Cu462  O492    1.955   .     S
H463   O504    0.990   .     S
H464   O490    0.989   .     S
H465   O491    0.989   .     S
H466   O493    0.989   .     S
H467   O494    0.990   .     S
H468   O495    0.990   .     S
H469   O496    0.990   .     S
H470   O497    0.989   .     S
H471   O482    0.986   .     S
H472   O483    0.990   .     S
H473   O484    0.990   .     S
H474   O557    0.988   .     S
H475   O558    0.988   1_455 S
H476   O559    0.988   1_455 S
H477   O560    0.988   .     S
H478   O489    0.989   .     S
O485   H546    0.988   1_455 S
O486   H547    0.988   .     S
O487   H548    0.988   .     S
O488   H549    0.988   1_455 S
C505   C522    1.460   .     S
C505   O571    1.296   .     A
C505   O553    1.297   .     A
C506   O569    1.382   .     S
C506   C510    1.423   .     A
C506   C529    1.426   .     A
C507   O575    1.292   .     A
C507   C511    1.408   .     S
C507   O572    1.293   .     A
C508   C512    1.408   .     S
C508   O574    1.292   .     A
C508   O573    1.293   .     A
C509   C532    1.424   .     A
C509   C530    1.422   .     A
C510   C531    1.419   .     A
C510   C365    1.529   1_565 S
C512   C799    1.190   .     S
C513   C518    1.408   .     A
C513   O557    1.386   .     S
C513   C524    1.419   .     A
C514   C525    1.420   .     A
C514   O558    1.386   .     S
C514   C519    1.407   .     A
C515   C520    1.407   .     A
C515   O559    1.386   .     S
C515   C525    1.420   .     A
C516   C523    1.461   .     S
C516   O564    1.296   .     A
C516   O570    1.299   .     A
C517   C521    1.393   .     A
C517   O560    1.385   .     S
C517   C524    1.418   .     A
C518   C522    1.405   .     A
C518   O561    1.385   .     S
C519   C523    1.404   .     A
C519   O562    1.386   .     S
C520   C523    1.403   .     A
C520   O563    1.384   .     S
C521   C522    1.414   .     A
C521   O565    1.384   .     S
C525   C452    1.471   1_655 S
C526   O576    1.380   .     S
C526   N551    1.370   .     A
C526   C530    1.423   .     A
C527   C531    1.408   .     A
C527   O554    1.371   .     S
C527   N552    1.378   .     A
C528   O555    1.380   .     S
C528   C532    1.424   .     A
C528   N551    1.369   .     A
C529   N552    1.372   .     A
C529   O556    1.377   .     S
C530   O566    1.382   .     S
C531   O567    1.381   .     S
C532   O568    1.382   .     S
Cu533  Cu534   2.694   .     S
Cu533  O570    1.955   .     S
Cu533  O553    1.955   .     S
Cu533  N552    2.024   .     S
Cu533  O572    1.932   .     S
Cu533  O574    1.931   .     S
Cu534  O571    1.955   .     S
Cu534  O575    1.931   .     S
Cu534  N551    2.024   .     S
Cu534  O573    1.932   .     S
Cu534  O564    1.955   .     S
H535   O576    0.990   .     S
H536   O562    0.989   .     S
H537   O563    0.989   .     S
H538   O565    0.989   .     S
H539   O566    0.990   .     S
H540   O567    0.990   .     S
H541   O568    0.990   .     S
H542   O569    0.989   .     S
H543   O554    0.986   .     S
H544   O555    0.990   .     S
H545   O556    0.990   .     S
H546   O485    0.988   1_655 S
H549   O488    0.988   1_655 S
H550   O561    0.989   .     S
O558   H475    0.988   1_655 S
O559   H476    0.988   1_655 S
C577   C594    1.460   .     S
C577   O643    1.296   .     A
C577   O625    1.297   .     A
C578   O641    1.382   .     S
C578   C582    1.423   .     A
C578   C601    1.426   .     A
C579   O647    1.292   .     A
C579   C583    1.408   .     S
C579   O644    1.293   .     A
C580   C584    1.408   .     S
C580   O646    1.292   .     A
C580   O645    1.293   .     A
C581   C604    1.424   .     A
C581   C602    1.422   .     A
C581   C726    1.529   1_545 S
C582   C603    1.419   .     A
C582   C725    1.529   .     S
C584   C7      1.190   1_556 S
C585   C590    1.408   .     A
C585   O629    1.386   .     S
C585   C596    1.419   .     A
C586   C597    1.420   .     A
C586   O630    1.386   .     S
C586   C591    1.407   .     A
C587   C592    1.407   .     A
C587   O631    1.386   .     S
C587   C597    1.420   .     A
C588   C595    1.461   .     S
C588   O636    1.296   .     A
C588   O642    1.299   .     A
C589   C593    1.393   .     A
C589   O632    1.385   .     S
C589   C596    1.418   .     A
C590   C594    1.405   .     A
C590   O633    1.385   .     S
C591   C595    1.404   .     A
C591   O634    1.386   .     S
C592   C595    1.403   .     A
C592   O635    1.384   .     S
C593   C594    1.414   .     A
C593   O637    1.384   .     S
C596   C669    1.471   1_455 S
C597   C668    1.471   .     S
C598   O648    1.380   .     S
C598   N623    1.370   .     A
C598   C602    1.423   .     A
C599   C603    1.408   .     A
C599   O626    1.371   .     S
C599   N624    1.378   .     A
C600   O627    1.380   .     S
C600   C604    1.424   .     A
C600   N623    1.369   .     A
C601   N624    1.372   .     A
C601   O628    1.377   .     S
C602   O638    1.382   .     S
C603   O639    1.381   .     S
C604   O640    1.382   .     S
Cu605  Cu606   2.694   .     S
Cu605  O642    1.955   .     S
Cu605  O625    1.955   .     S
Cu605  N624    2.024   .     S
Cu605  O644    1.932   .     S
Cu605  O646    1.931   .     S
Cu606  O643    1.955   .     S
Cu606  O647    1.931   .     S
Cu606  N623    2.024   .     S
Cu606  O645    1.932   .     S
Cu606  O636    1.955   .     S
H607   O648    0.990   .     S
H608   O634    0.989   .     S
H609   O635    0.989   .     S
H610   O637    0.989   .     S
H611   O638    0.990   .     S
H612   O639    0.990   .     S
H613   O640    0.990   .     S
H614   O641    0.989   .     S
H615   O626    0.986   .     S
H616   O627    0.990   .     S
H617   O628    0.990   .     S
H618   O701    0.988   .     S
H619   O702    0.988   1_455 S
H620   O703    0.988   1_455 S
H621   O704    0.988   .     S
H622   O633    0.989   .     S
O629   H690    0.988   1_455 S
O630   H691    0.988   .     S
O631   H692    0.988   .     S
O632   H693    0.988   1_455 S
C649   C666    1.460   .     S
C649   O715    1.296   .     A
C649   O697    1.297   .     A
C650   O713    1.382   .     S
C650   C654    1.423   .     A
C650   C673    1.426   .     A
C651   O719    1.292   .     A
C651   C655    1.408   .     S
C651   O716    1.293   .     A
C652   C656    1.408   .     S
C652   O718    1.292   .     A
C652   O717    1.293   .     A
C653   C676    1.424   .     A
C653   C674    1.422   .     A
C653   C798    1.529   1_545 S
C654   C675    1.419   .     A
C654   C797    1.529   .     S
C656   C79     1.190   1_556 S
C657   C662    1.408   .     A
C657   O701    1.386   .     S
C657   C668    1.419   .     A
C658   C669    1.420   .     A
C658   O702    1.386   .     S
C658   C663    1.407   .     A
C659   C664    1.407   .     A
C659   O703    1.386   .     S
C659   C669    1.420   .     A
C660   C667    1.461   .     S
C660   O708    1.296   .     A
C660   O714    1.299   .     A
C661   C665    1.393   .     A
C661   O704    1.385   .     S
C661   C668    1.418   .     A
C662   C666    1.405   .     A
C662   O705    1.385   .     S
C663   C667    1.404   .     A
C663   O706    1.386   .     S
C664   C667    1.403   .     A
C664   O707    1.384   .     S
C665   C666    1.414   .     A
C665   O709    1.384   .     S
C669   C596    1.471   1_655 S
C670   O720    1.380   .     S
C670   N695    1.370   .     A
C670   C674    1.423   .     A
C671   C675    1.408   .     A
C671   O698    1.371   .     S
C671   N696    1.378   .     A
C672   O699    1.380   .     S
C672   C676    1.424   .     A
C672   N695    1.369   .     A
C673   N696    1.372   .     A
C673   O700    1.377   .     S
C674   O710    1.382   .     S
C675   O711    1.381   .     S
C676   O712    1.382   .     S
Cu677  Cu678   2.694   .     S
Cu677  O714    1.955   .     S
Cu677  O697    1.955   .     S
Cu677  N696    2.024   .     S
Cu677  O716    1.932   .     S
Cu677  O718    1.931   .     S
Cu678  O715    1.955   .     S
Cu678  O719    1.931   .     S
Cu678  N695    2.024   .     S
Cu678  O717    1.932   .     S
Cu678  O708    1.955   .     S
H679   O720    0.990   .     S
H680   O706    0.989   .     S
H681   O707    0.989   .     S
H682   O709    0.989   .     S
H683   O710    0.990   .     S
H684   O711    0.990   .     S
H685   O712    0.990   .     S
H686   O713    0.989   .     S
H687   O698    0.986   .     S
H688   O699    0.990   .     S
H689   O700    0.990   .     S
H690   O629    0.988   1_655 S
H693   O632    0.988   1_655 S
H694   O705    0.989   .     S
O702   H619    0.988   1_655 S
O703   H620    0.988   1_655 S
C721   C738    1.460   .     S
C721   O787    1.296   .     A
C721   O769    1.297   .     A
C722   O785    1.382   .     S
C722   C726    1.423   .     A
C722   C745    1.426   .     A
C723   O791    1.292   .     A
C723   C727    1.408   .     S
C723   O788    1.293   .     A
C724   C728    1.408   .     S
C724   O790    1.292   .     A
C724   O789    1.293   .     A
C725   C748    1.424   .     A
C725   C746    1.422   .     A
C726   C747    1.419   .     A
C726   C581    1.529   1_565 S
C728   C151    1.190   1_556 S
C729   C734    1.408   .     A
C729   O773    1.386   .     S
C729   C740    1.419   .     A
C730   C741    1.420   .     A
C730   O774    1.386   .     S
C730   C735    1.407   .     A
C731   C736    1.407   .     A
C731   O775    1.386   .     S
C731   C741    1.420   .     A
C732   C739    1.461   .     S
C732   O780    1.296   .     A
C732   O786    1.299   .     A
C733   C737    1.393   .     A
C733   O776    1.385   .     S
C733   C740    1.418   .     A
C734   C738    1.405   .     A
C734   O777    1.385   .     S
C735   C739    1.404   .     A
C735   O778    1.386   .     S
C736   C739    1.403   .     A
C736   O779    1.384   .     S
C737   C738    1.414   .     A
C737   O781    1.384   .     S
C740   C813    1.471   1_455 S
C741   C812    1.471   .     S
C742   O792    1.380   .     S
C742   N767    1.370   .     A
C742   C746    1.423   .     A
C743   C747    1.408   .     A
C743   O770    1.371   .     S
C743   N768    1.378   .     A
C744   O771    1.380   .     S
C744   C748    1.424   .     A
C744   N767    1.369   .     A
C745   N768    1.372   .     A
C745   O772    1.377   .     S
C746   O782    1.382   .     S
C747   O783    1.381   .     S
C748   O784    1.382   .     S
Cu749  Cu750   2.694   .     S
Cu749  O786    1.955   .     S
Cu749  O769    1.955   .     S
Cu749  N768    2.024   .     S
Cu749  O788    1.932   .     S
Cu749  O790    1.931   .     S
Cu750  O787    1.955   .     S
Cu750  O791    1.931   .     S
Cu750  N767    2.024   .     S
Cu750  O789    1.932   .     S
Cu750  O780    1.955   .     S
H751   O792    0.990   .     S
H752   O778    0.989   .     S
H753   O779    0.989   .     S
H754   O781    0.989   .     S
H755   O782    0.990   .     S
H756   O783    0.990   .     S
H757   O784    0.990   .     S
H758   O785    0.989   .     S
H759   O770    0.986   .     S
H760   O771    0.990   .     S
H761   O772    0.990   .     S
H762   O845    0.988   .     S
H763   O846    0.988   1_455 S
H764   O847    0.988   1_455 S
H765   O848    0.988   .     S
H766   O777    0.989   .     S
O773   H834    0.988   1_455 S
O774   H835    0.988   .     S
O775   H836    0.988   .     S
O776   H837    0.988   1_455 S
C793   C810    1.460   .     S
C793   O859    1.296   .     A
C793   O841    1.297   .     A
C794   O857    1.382   .     S
C794   C798    1.423   .     A
C794   C817    1.426   .     A
C795   O863    1.292   .     A
C795   C799    1.408   .     S
C795   O860    1.293   .     A
C796   C800    1.408   .     S
C796   O862    1.292   .     A
C796   O861    1.293   .     A
C797   C820    1.424   .     A
C797   C818    1.422   .     A
C798   C819    1.419   .     A
C798   C653    1.529   1_565 S
C800   C223    1.190   1_556 S
C801   C806    1.408   .     A
C801   O845    1.386   .     S
C801   C812    1.419   .     A
C802   C813    1.420   .     A
C802   O846    1.386   .     S
C802   C807    1.407   .     A
C803   C808    1.407   .     A
C803   O847    1.386   .     S
C803   C813    1.420   .     A
C804   C811    1.461   .     S
C804   O852    1.296   .     A
C804   O858    1.299   .     A
C805   C809    1.393   .     A
C805   O848    1.385   .     S
C805   C812    1.418   .     A
C806   C810    1.405   .     A
C806   O849    1.385   .     S
C807   C811    1.404   .     A
C807   O850    1.386   .     S
C808   C811    1.403   .     A
C808   O851    1.384   .     S
C809   C810    1.414   .     A
C809   O853    1.384   .     S
C813   C740    1.471   1_655 S
C814   O864    1.380   .     S
C814   N839    1.370   .     A
C814   C818    1.423   .     A
C815   C819    1.408   .     A
C815   O842    1.371   .     S
C815   N840    1.378   .     A
C816   O843    1.380   .     S
C816   C820    1.424   .     A
C816   N839    1.369   .     A
C817   N840    1.372   .     A
C817   O844    1.377   .     S
C818   O854    1.382   .     S
C819   O855    1.381   .     S
C820   O856    1.382   .     S
Cu821  Cu822   2.694   .     S
Cu821  O858    1.955   .     S
Cu821  O841    1.955   .     S
Cu821  N840    2.024   .     S
Cu821  O860    1.932   .     S
Cu821  O862    1.931   .     S
Cu822  O859    1.955   .     S
Cu822  O863    1.931   .     S
Cu822  N839    2.024   .     S
Cu822  O861    1.932   .     S
Cu822  O852    1.955   .     S
H823   O864    0.990   .     S
H824   O850    0.989   .     S
H825   O851    0.989   .     S
H826   O853    0.989   .     S
H827   O854    0.990   .     S
H828   O855    0.990   .     S
H829   O856    0.990   .     S
H830   O857    0.989   .     S
H831   O842    0.986   .     S
H832   O843    0.990   .     S
H833   O844    0.990   .     S
H834   O773    0.988   1_655 S
H837   O776    0.988   1_655 S
H838   O849    0.989   .     S
O846   H763    0.988   1_655 S
O847   H764    0.988   1_655 S
