data_str_m2_o1_o17_pcu_sym.110
_audit_creation_date              2020-01-03
_audit_creation_method            'Materials Studio'
_symmetry_space_group_name_H-M    'P1'
_symmetry_Int_Tables_number       1
_symmetry_cell_setting            triclinic
loop_
_symmetry_equiv_pos_as_xyz
  x,y,z
_cell_length_a                    32.6669
_cell_length_b                    29.0063
_cell_length_c                    30.2587
_cell_angle_alpha                 89.1531
_cell_angle_beta                  95.5185
_cell_angle_gamma                 90.1778
loop_
_atom_site_label
_atom_site_type_symbol
_atom_site_fract_x
_atom_site_fract_y
_atom_site_fract_z
_atom_site_U_iso_or_equiv
_atom_site_adp_type
_atom_site_occupancy
O1     O     0.10655   0.20625   0.24999   0.00000  Uiso   1.00
O2     O     0.22679   0.12709   0.25001   0.00000  Uiso   1.00
O3     O     0.22679   0.20625   0.25001   0.00000  Uiso   1.00
O4     O     0.10655   0.12709   0.25000   0.00000  Uiso   1.00
C5     C     0.08751   0.16661   0.25014   0.00000  Uiso   1.00
C6     C     0.24582   0.16673   0.24986   0.00000  Uiso   1.00
O7     O     0.16666   0.20627   0.18513   0.00000  Uiso   1.00
O8     O     0.16668   0.12707   0.31487   0.00000  Uiso   1.00
O9     O     0.16668   0.20627   0.31487   0.00000  Uiso   1.00
O10    O     0.16666   0.12707   0.18513   0.00000  Uiso   1.00
C11    C     0.16665   0.16700   0.16443   0.00000  Uiso   1.00
C12    C     0.16668   0.16633   0.33557   0.00000  Uiso   1.00
Cu13   Cu    0.16667   0.21355   0.25000   0.00000  Uiso   1.00
Cu14   Cu    0.16667   0.11978   0.25000   0.00000  Uiso   1.00
C15    C     0.17296   0.12476   0.40889   0.00000  Uiso   1.00
C16    C     0.16037   0.20858   0.09111   0.00000  Uiso   1.00
C17    C     0.16633   0.16580   0.38408   0.00000  Uiso   1.00
C18    C     0.16701   0.16754   0.11593   0.00000  Uiso   1.00
C19    C     0.15928   0.20699   0.40568   0.00000  Uiso   1.00
C20    C     0.17405   0.12634   0.09432   0.00000  Uiso   1.00
C21    C     0.15888   0.20808   0.45190   0.00000  Uiso   1.00
C22    C     0.17445   0.12526   0.04810   0.00000  Uiso   1.00
C23    C     0.16649   0.16666   0.47675   0.00000  Uiso   1.00
C24    C     0.16684   0.16667   0.02325   0.00000  Uiso   1.00
C25    C     0.17370   0.12513   0.45510   0.00000  Uiso   1.00
C26    C     0.15964   0.20820   0.04490   0.00000  Uiso   1.00
C27    C     0.15101   0.24942   0.47388   0.00000  Uiso   1.00
C28    C     0.18232   0.08391   0.02612   0.00000  Uiso   1.00
C29    C     0.15157   0.24890   0.02014   0.00000  Uiso   1.00
C30    C     0.18177   0.08444   0.47986   0.00000  Uiso   1.00
H31    H     0.15382   0.23820   0.38604   0.00000  Uiso   1.00
H32    H     0.17951   0.09513   0.11396   0.00000  Uiso   1.00
H33    H     0.14538   0.28051   0.03689   0.00000  Uiso   1.00
H34    H     0.18795   0.05282   0.46311   0.00000  Uiso   1.00
C35    C     0.02051   0.12525   0.24433   0.00000  Uiso   1.00
C36    C     0.31283   0.20809   0.25567   0.00000  Uiso   1.00
C37    C     0.31143   0.12541   0.24358   0.00000  Uiso   1.00
C38    C     0.02190   0.20792   0.25642   0.00000  Uiso   1.00
C39    C     0.29049   0.16679   0.24959   0.00000  Uiso   1.00
C40    C     0.04284   0.16655   0.25041   0.00000  Uiso   1.00
C41    C     0.14002   0.02508   0.22056   0.00000  Uiso   1.00
C42    C     0.19331   0.30825   0.27944   0.00000  Uiso   1.00
C43    C     0.19362   0.02437   0.27909   0.00000  Uiso   1.00
C44    C     0.13972   0.30896   0.22091   0.00000  Uiso   1.00
N45    N     0.16667   0.28402   0.25000   0.00000  Uiso   1.00
N46    N     0.16667   0.04931   0.25000   0.00000  Uiso   1.00
F47    F     0.17881   0.08432   0.38838   0.00000  Uiso   1.00
F48    F     0.15452   0.24901   0.11163   0.00000  Uiso   1.00
C49    C     0.14167   0.29424   0.44897   0.00000  Uiso   1.00
H50    H     0.11404   0.29006   0.42496   0.00000  Uiso   1.00
H51    H     0.13522   0.32257   0.47159   0.00000  Uiso   1.00
H52    H     0.16833   0.30471   0.43095   0.00000  Uiso   1.00
C53    C     0.19167   0.03909   0.05103   0.00000  Uiso   1.00
H54    H     0.21930   0.04327   0.07504   0.00000  Uiso   1.00
H55    H     0.16500   0.02862   0.06905   0.00000  Uiso   1.00
H56    H     0.19811   0.01077   0.02841   0.00000  Uiso   1.00
F57    F     0.03934   0.08437   0.23894   0.00000  Uiso   1.00
F58    F     0.29400   0.24896   0.26106   0.00000  Uiso   1.00
F59    F     0.29113   0.08490   0.23623   0.00000  Uiso   1.00
F60    F     0.04220   0.24844   0.26377   0.00000  Uiso   1.00
C61    C     0.11118   0.04945   0.18537   0.00000  Uiso   1.00
H62    H     0.10847   0.08649   0.18815   0.00000  Uiso   1.00
H63    H     0.12136   0.04303   0.15204   0.00000  Uiso   1.00
H64    H     0.07924   0.03678   0.18633   0.00000  Uiso   1.00
C65    C     0.22215   0.28388   0.31463   0.00000  Uiso   1.00
H66    H     0.22487   0.24684   0.31185   0.00000  Uiso   1.00
H67    H     0.25409   0.29655   0.31367   0.00000  Uiso   1.00
H68    H     0.21197   0.29030   0.34796   0.00000  Uiso   1.00
C69    C     0.22572   0.04798   0.31072   0.00000  Uiso   1.00
H70    H     0.22364   0.08515   0.31265   0.00000  Uiso   1.00
H71    H     0.22377   0.03538   0.34521   0.00000  Uiso   1.00
H72    H     0.25685   0.04054   0.30092   0.00000  Uiso   1.00
C73    C     0.10762   0.28536   0.18928   0.00000  Uiso   1.00
H74    H     0.10969   0.24819   0.18735   0.00000  Uiso   1.00
H75    H     0.07648   0.29280   0.19908   0.00000  Uiso   1.00
H76    H     0.10957   0.29796   0.15479   0.00000  Uiso   1.00
O77    O     0.43988   0.20625   0.24999   0.00000  Uiso   1.00
O78    O     0.56012   0.12709   0.25001   0.00000  Uiso   1.00
O79    O     0.56012   0.20625   0.25001   0.00000  Uiso   1.00
O80    O     0.43988   0.12709   0.25000   0.00000  Uiso   1.00
C81    C     0.42084   0.16661   0.25014   0.00000  Uiso   1.00
C82    C     0.57916   0.16673   0.24986   0.00000  Uiso   1.00
O83    O     0.49999   0.20627   0.18513   0.00000  Uiso   1.00
O84    O     0.50001   0.12707   0.31487   0.00000  Uiso   1.00
O85    O     0.50001   0.20627   0.31487   0.00000  Uiso   1.00
O86    O     0.49999   0.12707   0.18513   0.00000  Uiso   1.00
C87    C     0.49998   0.16700   0.16443   0.00000  Uiso   1.00
C88    C     0.50002   0.16633   0.33557   0.00000  Uiso   1.00
Cu89   Cu    0.50000   0.21355   0.25000   0.00000  Uiso   1.00
Cu90   Cu    0.50000   0.11978   0.25000   0.00000  Uiso   1.00
C91    C     0.50630   0.12476   0.40889   0.00000  Uiso   1.00
C92    C     0.49370   0.20858   0.09111   0.00000  Uiso   1.00
C93    C     0.49966   0.16580   0.38408   0.00000  Uiso   1.00
C94    C     0.50034   0.16754   0.11593   0.00000  Uiso   1.00
C95    C     0.49262   0.20699   0.40568   0.00000  Uiso   1.00
C96    C     0.50738   0.12634   0.09432   0.00000  Uiso   1.00
C97    C     0.49221   0.20808   0.45190   0.00000  Uiso   1.00
C98    C     0.50779   0.12526   0.04810   0.00000  Uiso   1.00
C99    C     0.49983   0.16666   0.47675   0.00000  Uiso   1.00
C100   C     0.50017   0.16667   0.02325   0.00000  Uiso   1.00
C101   C     0.50703   0.12513   0.45510   0.00000  Uiso   1.00
C102   C     0.49297   0.20820   0.04490   0.00000  Uiso   1.00
C103   C     0.48435   0.24942   0.47388   0.00000  Uiso   1.00
C104   C     0.51565   0.08391   0.02612   0.00000  Uiso   1.00
C105   C     0.48490   0.24890   0.02014   0.00000  Uiso   1.00
C106   C     0.51510   0.08444   0.47986   0.00000  Uiso   1.00
H107   H     0.48716   0.23820   0.38604   0.00000  Uiso   1.00
H108   H     0.51284   0.09513   0.11396   0.00000  Uiso   1.00
H109   H     0.47871   0.28051   0.03689   0.00000  Uiso   1.00
H110   H     0.52129   0.05282   0.46311   0.00000  Uiso   1.00
C111   C     0.35384   0.12525   0.24433   0.00000  Uiso   1.00
C112   C     0.64616   0.20809   0.25567   0.00000  Uiso   1.00
C113   C     0.64477   0.12541   0.24358   0.00000  Uiso   1.00
C114   C     0.35524   0.20792   0.25642   0.00000  Uiso   1.00
C115   C     0.62383   0.16679   0.24959   0.00000  Uiso   1.00
C116   C     0.37617   0.16655   0.25041   0.00000  Uiso   1.00
C117   C     0.47335   0.02508   0.22056   0.00000  Uiso   1.00
C118   C     0.52665   0.30825   0.27944   0.00000  Uiso   1.00
C119   C     0.52695   0.02437   0.27909   0.00000  Uiso   1.00
C120   C     0.47305   0.30896   0.22091   0.00000  Uiso   1.00
N121   N     0.50000   0.28402   0.25000   0.00000  Uiso   1.00
N122   N     0.50000   0.04931   0.25000   0.00000  Uiso   1.00
F123   F     0.51215   0.08432   0.38838   0.00000  Uiso   1.00
F124   F     0.48785   0.24901   0.11163   0.00000  Uiso   1.00
C125   C     0.47500   0.29424   0.44897   0.00000  Uiso   1.00
H126   H     0.44737   0.29006   0.42496   0.00000  Uiso   1.00
H127   H     0.46855   0.32257   0.47159   0.00000  Uiso   1.00
H128   H     0.50166   0.30471   0.43095   0.00000  Uiso   1.00
C129   C     0.52500   0.03909   0.05103   0.00000  Uiso   1.00
H130   H     0.55263   0.04327   0.07504   0.00000  Uiso   1.00
H131   H     0.49834   0.02862   0.06905   0.00000  Uiso   1.00
H132   H     0.53145   0.01077   0.02841   0.00000  Uiso   1.00
F133   F     0.37267   0.08437   0.23894   0.00000  Uiso   1.00
F134   F     0.62733   0.24896   0.26106   0.00000  Uiso   1.00
F135   F     0.62447   0.08490   0.23623   0.00000  Uiso   1.00
F136   F     0.37553   0.24844   0.26377   0.00000  Uiso   1.00
C137   C     0.44451   0.04945   0.18537   0.00000  Uiso   1.00
H138   H     0.44180   0.08649   0.18815   0.00000  Uiso   1.00
H139   H     0.45470   0.04303   0.15204   0.00000  Uiso   1.00
H140   H     0.41258   0.03678   0.18633   0.00000  Uiso   1.00
C141   C     0.55549   0.28388   0.31463   0.00000  Uiso   1.00
H142   H     0.55820   0.24684   0.31185   0.00000  Uiso   1.00
H143   H     0.58742   0.29655   0.31367   0.00000  Uiso   1.00
H144   H     0.54530   0.29030   0.34796   0.00000  Uiso   1.00
C145   C     0.55905   0.04798   0.31072   0.00000  Uiso   1.00
H146   H     0.55698   0.08515   0.31265   0.00000  Uiso   1.00
H147   H     0.55710   0.03538   0.34521   0.00000  Uiso   1.00
H148   H     0.59019   0.04054   0.30092   0.00000  Uiso   1.00
C149   C     0.44095   0.28536   0.18928   0.00000  Uiso   1.00
H150   H     0.44302   0.24819   0.18735   0.00000  Uiso   1.00
H151   H     0.40981   0.29280   0.19908   0.00000  Uiso   1.00
H152   H     0.44290   0.29796   0.15479   0.00000  Uiso   1.00
O153   O     0.77321   0.20625   0.24999   0.00000  Uiso   1.00
O154   O     0.89345   0.12709   0.25001   0.00000  Uiso   1.00
O155   O     0.89345   0.20625   0.25001   0.00000  Uiso   1.00
O156   O     0.77321   0.12709   0.25000   0.00000  Uiso   1.00
C157   C     0.75418   0.16661   0.25014   0.00000  Uiso   1.00
C158   C     0.91249   0.16673   0.24986   0.00000  Uiso   1.00
O159   O     0.83332   0.20627   0.18513   0.00000  Uiso   1.00
O160   O     0.83334   0.12707   0.31487   0.00000  Uiso   1.00
O161   O     0.83334   0.20627   0.31487   0.00000  Uiso   1.00
O162   O     0.83332   0.12707   0.18513   0.00000  Uiso   1.00
C163   C     0.83332   0.16700   0.16443   0.00000  Uiso   1.00
C164   C     0.83335   0.16633   0.33557   0.00000  Uiso   1.00
Cu165  Cu    0.83333   0.21355   0.25000   0.00000  Uiso   1.00
Cu166  Cu    0.83333   0.11978   0.25000   0.00000  Uiso   1.00
C167   C     0.83963   0.12476   0.40889   0.00000  Uiso   1.00
C168   C     0.82704   0.20858   0.09111   0.00000  Uiso   1.00
C169   C     0.83299   0.16580   0.38408   0.00000  Uiso   1.00
C170   C     0.83367   0.16754   0.11593   0.00000  Uiso   1.00
C171   C     0.82595   0.20699   0.40568   0.00000  Uiso   1.00
C172   C     0.84072   0.12634   0.09432   0.00000  Uiso   1.00
C173   C     0.82555   0.20808   0.45190   0.00000  Uiso   1.00
C174   C     0.84112   0.12526   0.04810   0.00000  Uiso   1.00
C175   C     0.83316   0.16666   0.47675   0.00000  Uiso   1.00
C176   C     0.83351   0.16667   0.02325   0.00000  Uiso   1.00
C177   C     0.84037   0.12513   0.45510   0.00000  Uiso   1.00
C178   C     0.82630   0.20820   0.04490   0.00000  Uiso   1.00
C179   C     0.81768   0.24942   0.47388   0.00000  Uiso   1.00
C180   C     0.84899   0.08391   0.02612   0.00000  Uiso   1.00
C181   C     0.81824   0.24890   0.02014   0.00000  Uiso   1.00
C182   C     0.84843   0.08444   0.47986   0.00000  Uiso   1.00
H183   H     0.82049   0.23820   0.38604   0.00000  Uiso   1.00
H184   H     0.84618   0.09513   0.11396   0.00000  Uiso   1.00
H185   H     0.81205   0.28051   0.03689   0.00000  Uiso   1.00
H186   H     0.85462   0.05282   0.46311   0.00000  Uiso   1.00
C187   C     0.68717   0.12525   0.24433   0.00000  Uiso   1.00
C188   C     0.97949   0.20809   0.25567   0.00000  Uiso   1.00
C189   C     0.97810   0.12541   0.24358   0.00000  Uiso   1.00
C190   C     0.68857   0.20792   0.25642   0.00000  Uiso   1.00
C191   C     0.95716   0.16679   0.24959   0.00000  Uiso   1.00
C192   C     0.70951   0.16655   0.25041   0.00000  Uiso   1.00
C193   C     0.80669   0.02508   0.22056   0.00000  Uiso   1.00
C194   C     0.85998   0.30825   0.27944   0.00000  Uiso   1.00
C195   C     0.86028   0.02437   0.27909   0.00000  Uiso   1.00
C196   C     0.80638   0.30896   0.22091   0.00000  Uiso   1.00
N197   N     0.83333   0.28402   0.25000   0.00000  Uiso   1.00
N198   N     0.83333   0.04931   0.25000   0.00000  Uiso   1.00
F199   F     0.84548   0.08432   0.38838   0.00000  Uiso   1.00
F200   F     0.82119   0.24901   0.11163   0.00000  Uiso   1.00
C201   C     0.80833   0.29424   0.44897   0.00000  Uiso   1.00
H202   H     0.78070   0.29006   0.42496   0.00000  Uiso   1.00
H203   H     0.80189   0.32257   0.47159   0.00000  Uiso   1.00
H204   H     0.83500   0.30471   0.43095   0.00000  Uiso   1.00
C205   C     0.85834   0.03909   0.05103   0.00000  Uiso   1.00
H206   H     0.88596   0.04327   0.07504   0.00000  Uiso   1.00
H207   H     0.83167   0.02862   0.06905   0.00000  Uiso   1.00
H208   H     0.86478   0.01077   0.02841   0.00000  Uiso   1.00
F209   F     0.70600   0.08437   0.23894   0.00000  Uiso   1.00
F210   F     0.96066   0.24896   0.26106   0.00000  Uiso   1.00
F211   F     0.95780   0.08490   0.23623   0.00000  Uiso   1.00
F212   F     0.70887   0.24844   0.26377   0.00000  Uiso   1.00
C213   C     0.77785   0.04945   0.18537   0.00000  Uiso   1.00
H214   H     0.77513   0.08649   0.18815   0.00000  Uiso   1.00
H215   H     0.78803   0.04303   0.15204   0.00000  Uiso   1.00
H216   H     0.74591   0.03678   0.18633   0.00000  Uiso   1.00
C217   C     0.88882   0.28388   0.31463   0.00000  Uiso   1.00
H218   H     0.89153   0.24684   0.31185   0.00000  Uiso   1.00
H219   H     0.92076   0.29655   0.31367   0.00000  Uiso   1.00
H220   H     0.87864   0.29030   0.34796   0.00000  Uiso   1.00
C221   C     0.89238   0.04798   0.31072   0.00000  Uiso   1.00
H222   H     0.89031   0.08515   0.31265   0.00000  Uiso   1.00
H223   H     0.89043   0.03538   0.34521   0.00000  Uiso   1.00
H224   H     0.92352   0.04054   0.30092   0.00000  Uiso   1.00
C225   C     0.77428   0.28536   0.18928   0.00000  Uiso   1.00
H226   H     0.77636   0.24819   0.18735   0.00000  Uiso   1.00
H227   H     0.74315   0.29280   0.19908   0.00000  Uiso   1.00
H228   H     0.77623   0.29796   0.15479   0.00000  Uiso   1.00
O229   O     0.10655   0.53958   0.24999   0.00000  Uiso   1.00
O230   O     0.22679   0.46042   0.25001   0.00000  Uiso   1.00
O231   O     0.22679   0.53958   0.25001   0.00000  Uiso   1.00
O232   O     0.10655   0.46042   0.25000   0.00000  Uiso   1.00
C233   C     0.08751   0.49994   0.25014   0.00000  Uiso   1.00
C234   C     0.24582   0.50006   0.24986   0.00000  Uiso   1.00
O235   O     0.16666   0.53960   0.18513   0.00000  Uiso   1.00
O236   O     0.16668   0.46040   0.31487   0.00000  Uiso   1.00
O237   O     0.16668   0.53960   0.31487   0.00000  Uiso   1.00
O238   O     0.16666   0.46040   0.18513   0.00000  Uiso   1.00
C239   C     0.16665   0.50033   0.16443   0.00000  Uiso   1.00
C240   C     0.16668   0.49967   0.33557   0.00000  Uiso   1.00
Cu241  Cu    0.16667   0.54689   0.25000   0.00000  Uiso   1.00
Cu242  Cu    0.16667   0.45311   0.25000   0.00000  Uiso   1.00
C243   C     0.17296   0.45809   0.40889   0.00000  Uiso   1.00
C244   C     0.16037   0.54191   0.09111   0.00000  Uiso   1.00
C245   C     0.16633   0.49913   0.38408   0.00000  Uiso   1.00
C246   C     0.16701   0.50087   0.11593   0.00000  Uiso   1.00
C247   C     0.15928   0.54033   0.40568   0.00000  Uiso   1.00
C248   C     0.17405   0.45967   0.09432   0.00000  Uiso   1.00
C249   C     0.15888   0.54141   0.45190   0.00000  Uiso   1.00
C250   C     0.17445   0.45859   0.04810   0.00000  Uiso   1.00
C251   C     0.16649   0.50000   0.47675   0.00000  Uiso   1.00
C252   C     0.16684   0.50000   0.02325   0.00000  Uiso   1.00
C253   C     0.17370   0.45847   0.45510   0.00000  Uiso   1.00
C254   C     0.15964   0.54153   0.04490   0.00000  Uiso   1.00
C255   C     0.15101   0.58276   0.47388   0.00000  Uiso   1.00
C256   C     0.18232   0.41724   0.02612   0.00000  Uiso   1.00
C257   C     0.15157   0.58223   0.02014   0.00000  Uiso   1.00
C258   C     0.18177   0.41777   0.47986   0.00000  Uiso   1.00
H259   H     0.15382   0.57154   0.38604   0.00000  Uiso   1.00
H260   H     0.17951   0.42847   0.11396   0.00000  Uiso   1.00
H261   H     0.14538   0.61384   0.03689   0.00000  Uiso   1.00
H262   H     0.18795   0.38616   0.46311   0.00000  Uiso   1.00
C263   C     0.02051   0.45858   0.24433   0.00000  Uiso   1.00
C264   C     0.31283   0.54142   0.25567   0.00000  Uiso   1.00
C265   C     0.31143   0.45874   0.24358   0.00000  Uiso   1.00
C266   C     0.02190   0.54126   0.25642   0.00000  Uiso   1.00
C267   C     0.29049   0.50012   0.24959   0.00000  Uiso   1.00
C268   C     0.04284   0.49988   0.25041   0.00000  Uiso   1.00
C269   C     0.14002   0.35841   0.22056   0.00000  Uiso   1.00
C270   C     0.19331   0.64159   0.27944   0.00000  Uiso   1.00
C271   C     0.19362   0.35771   0.27909   0.00000  Uiso   1.00
C272   C     0.13972   0.64229   0.22091   0.00000  Uiso   1.00
N273   N     0.16667   0.61736   0.25000   0.00000  Uiso   1.00
N274   N     0.16667   0.38264   0.25000   0.00000  Uiso   1.00
F275   F     0.17881   0.41765   0.38838   0.00000  Uiso   1.00
F276   F     0.15452   0.58235   0.11163   0.00000  Uiso   1.00
C277   C     0.14167   0.62757   0.44897   0.00000  Uiso   1.00
H278   H     0.11404   0.62339   0.42496   0.00000  Uiso   1.00
H279   H     0.13522   0.65590   0.47159   0.00000  Uiso   1.00
H280   H     0.16833   0.63805   0.43095   0.00000  Uiso   1.00
C281   C     0.19167   0.37243   0.05103   0.00000  Uiso   1.00
H282   H     0.21930   0.37661   0.07504   0.00000  Uiso   1.00
H283   H     0.16500   0.36195   0.06905   0.00000  Uiso   1.00
H284   H     0.19811   0.34410   0.02841   0.00000  Uiso   1.00
F285   F     0.03934   0.41770   0.23894   0.00000  Uiso   1.00
F286   F     0.29400   0.58230   0.26106   0.00000  Uiso   1.00
F287   F     0.29113   0.41823   0.23623   0.00000  Uiso   1.00
F288   F     0.04220   0.58177   0.26377   0.00000  Uiso   1.00
C289   C     0.11118   0.38279   0.18537   0.00000  Uiso   1.00
H290   H     0.10847   0.41982   0.18815   0.00000  Uiso   1.00
H291   H     0.12136   0.37637   0.15204   0.00000  Uiso   1.00
H292   H     0.07924   0.37012   0.18633   0.00000  Uiso   1.00
C293   C     0.22215   0.61721   0.31463   0.00000  Uiso   1.00
H294   H     0.22487   0.58018   0.31185   0.00000  Uiso   1.00
H295   H     0.25409   0.62988   0.31367   0.00000  Uiso   1.00
H296   H     0.21197   0.62363   0.34796   0.00000  Uiso   1.00
C297   C     0.22572   0.38131   0.31072   0.00000  Uiso   1.00
H298   H     0.22364   0.41848   0.31265   0.00000  Uiso   1.00
H299   H     0.22377   0.36871   0.34521   0.00000  Uiso   1.00
H300   H     0.25685   0.37387   0.30092   0.00000  Uiso   1.00
C301   C     0.10762   0.61869   0.18928   0.00000  Uiso   1.00
H302   H     0.10969   0.58152   0.18735   0.00000  Uiso   1.00
H303   H     0.07648   0.62613   0.19908   0.00000  Uiso   1.00
H304   H     0.10957   0.63129   0.15479   0.00000  Uiso   1.00
O305   O     0.43988   0.53958   0.24999   0.00000  Uiso   1.00
O306   O     0.56012   0.46042   0.25001   0.00000  Uiso   1.00
O307   O     0.56012   0.53958   0.25001   0.00000  Uiso   1.00
O308   O     0.43988   0.46042   0.25000   0.00000  Uiso   1.00
C309   C     0.42084   0.49994   0.25014   0.00000  Uiso   1.00
C310   C     0.57916   0.50006   0.24986   0.00000  Uiso   1.00
O311   O     0.49999   0.53960   0.18513   0.00000  Uiso   1.00
O312   O     0.50001   0.46040   0.31487   0.00000  Uiso   1.00
O313   O     0.50001   0.53960   0.31487   0.00000  Uiso   1.00
O314   O     0.49999   0.46040   0.18513   0.00000  Uiso   1.00
C315   C     0.49998   0.50033   0.16443   0.00000  Uiso   1.00
C316   C     0.50002   0.49967   0.33557   0.00000  Uiso   1.00
Cu317  Cu    0.50000   0.54689   0.25000   0.00000  Uiso   1.00
Cu318  Cu    0.50000   0.45311   0.25000   0.00000  Uiso   1.00
C319   C     0.50630   0.45809   0.40889   0.00000  Uiso   1.00
C320   C     0.49370   0.54191   0.09111   0.00000  Uiso   1.00
C321   C     0.49966   0.49913   0.38408   0.00000  Uiso   1.00
C322   C     0.50034   0.50087   0.11593   0.00000  Uiso   1.00
C323   C     0.49262   0.54033   0.40568   0.00000  Uiso   1.00
C324   C     0.50738   0.45967   0.09432   0.00000  Uiso   1.00
C325   C     0.49221   0.54141   0.45190   0.00000  Uiso   1.00
C326   C     0.50779   0.45859   0.04810   0.00000  Uiso   1.00
C327   C     0.49983   0.50000   0.47675   0.00000  Uiso   1.00
C328   C     0.50017   0.50000   0.02325   0.00000  Uiso   1.00
C329   C     0.50703   0.45847   0.45510   0.00000  Uiso   1.00
C330   C     0.49297   0.54153   0.04490   0.00000  Uiso   1.00
C331   C     0.48435   0.58276   0.47388   0.00000  Uiso   1.00
C332   C     0.51565   0.41724   0.02612   0.00000  Uiso   1.00
C333   C     0.48490   0.58223   0.02014   0.00000  Uiso   1.00
C334   C     0.51510   0.41777   0.47986   0.00000  Uiso   1.00
H335   H     0.48716   0.57154   0.38604   0.00000  Uiso   1.00
H336   H     0.51284   0.42847   0.11396   0.00000  Uiso   1.00
H337   H     0.47871   0.61384   0.03689   0.00000  Uiso   1.00
H338   H     0.52129   0.38616   0.46311   0.00000  Uiso   1.00
C339   C     0.35384   0.45858   0.24433   0.00000  Uiso   1.00
C340   C     0.64616   0.54142   0.25567   0.00000  Uiso   1.00
C341   C     0.64477   0.45874   0.24358   0.00000  Uiso   1.00
C342   C     0.35524   0.54126   0.25642   0.00000  Uiso   1.00
C343   C     0.62383   0.50012   0.24959   0.00000  Uiso   1.00
C344   C     0.37617   0.49988   0.25041   0.00000  Uiso   1.00
C345   C     0.47335   0.35841   0.22056   0.00000  Uiso   1.00
C346   C     0.52665   0.64159   0.27944   0.00000  Uiso   1.00
C347   C     0.52695   0.35771   0.27909   0.00000  Uiso   1.00
C348   C     0.47305   0.64229   0.22091   0.00000  Uiso   1.00
N349   N     0.50000   0.61736   0.25000   0.00000  Uiso   1.00
N350   N     0.50000   0.38264   0.25000   0.00000  Uiso   1.00
F351   F     0.51215   0.41765   0.38838   0.00000  Uiso   1.00
F352   F     0.48785   0.58235   0.11163   0.00000  Uiso   1.00
C353   C     0.47500   0.62757   0.44897   0.00000  Uiso   1.00
H354   H     0.44737   0.62339   0.42496   0.00000  Uiso   1.00
H355   H     0.46855   0.65590   0.47159   0.00000  Uiso   1.00
H356   H     0.50166   0.63805   0.43095   0.00000  Uiso   1.00
C357   C     0.52500   0.37243   0.05103   0.00000  Uiso   1.00
H358   H     0.55263   0.37661   0.07504   0.00000  Uiso   1.00
H359   H     0.49834   0.36195   0.06905   0.00000  Uiso   1.00
H360   H     0.53145   0.34410   0.02841   0.00000  Uiso   1.00
F361   F     0.37267   0.41770   0.23894   0.00000  Uiso   1.00
F362   F     0.62733   0.58230   0.26106   0.00000  Uiso   1.00
F363   F     0.62447   0.41823   0.23623   0.00000  Uiso   1.00
F364   F     0.37553   0.58177   0.26377   0.00000  Uiso   1.00
C365   C     0.44451   0.38279   0.18537   0.00000  Uiso   1.00
H366   H     0.44180   0.41982   0.18815   0.00000  Uiso   1.00
H367   H     0.45470   0.37637   0.15204   0.00000  Uiso   1.00
H368   H     0.41258   0.37012   0.18633   0.00000  Uiso   1.00
C369   C     0.55549   0.61721   0.31463   0.00000  Uiso   1.00
H370   H     0.55820   0.58018   0.31185   0.00000  Uiso   1.00
H371   H     0.58742   0.62988   0.31367   0.00000  Uiso   1.00
H372   H     0.54530   0.62363   0.34796   0.00000  Uiso   1.00
C373   C     0.55905   0.38131   0.31072   0.00000  Uiso   1.00
H374   H     0.55698   0.41848   0.31265   0.00000  Uiso   1.00
H375   H     0.55710   0.36871   0.34521   0.00000  Uiso   1.00
H376   H     0.59019   0.37387   0.30092   0.00000  Uiso   1.00
C377   C     0.44095   0.61869   0.18928   0.00000  Uiso   1.00
H378   H     0.44302   0.58152   0.18735   0.00000  Uiso   1.00
H379   H     0.40981   0.62613   0.19908   0.00000  Uiso   1.00
H380   H     0.44290   0.63129   0.15479   0.00000  Uiso   1.00
O381   O     0.77321   0.53958   0.24999   0.00000  Uiso   1.00
O382   O     0.89345   0.46042   0.25001   0.00000  Uiso   1.00
O383   O     0.89345   0.53958   0.25001   0.00000  Uiso   1.00
O384   O     0.77321   0.46042   0.25000   0.00000  Uiso   1.00
C385   C     0.75418   0.49994   0.25014   0.00000  Uiso   1.00
C386   C     0.91249   0.50006   0.24986   0.00000  Uiso   1.00
O387   O     0.83332   0.53960   0.18513   0.00000  Uiso   1.00
O388   O     0.83334   0.46040   0.31487   0.00000  Uiso   1.00
O389   O     0.83334   0.53960   0.31487   0.00000  Uiso   1.00
O390   O     0.83332   0.46040   0.18513   0.00000  Uiso   1.00
C391   C     0.83332   0.50033   0.16443   0.00000  Uiso   1.00
C392   C     0.83335   0.49967   0.33557   0.00000  Uiso   1.00
Cu393  Cu    0.83333   0.54689   0.25000   0.00000  Uiso   1.00
Cu394  Cu    0.83333   0.45311   0.25000   0.00000  Uiso   1.00
C395   C     0.83963   0.45809   0.40889   0.00000  Uiso   1.00
C396   C     0.82704   0.54191   0.09111   0.00000  Uiso   1.00
C397   C     0.83299   0.49913   0.38408   0.00000  Uiso   1.00
C398   C     0.83367   0.50087   0.11593   0.00000  Uiso   1.00
C399   C     0.82595   0.54033   0.40568   0.00000  Uiso   1.00
C400   C     0.84072   0.45967   0.09432   0.00000  Uiso   1.00
C401   C     0.82555   0.54141   0.45190   0.00000  Uiso   1.00
C402   C     0.84112   0.45859   0.04810   0.00000  Uiso   1.00
C403   C     0.83316   0.50000   0.47675   0.00000  Uiso   1.00
C404   C     0.83351   0.50000   0.02325   0.00000  Uiso   1.00
C405   C     0.84037   0.45847   0.45510   0.00000  Uiso   1.00
C406   C     0.82630   0.54153   0.04490   0.00000  Uiso   1.00
C407   C     0.81768   0.58276   0.47388   0.00000  Uiso   1.00
C408   C     0.84899   0.41724   0.02612   0.00000  Uiso   1.00
C409   C     0.81824   0.58223   0.02014   0.00000  Uiso   1.00
C410   C     0.84843   0.41777   0.47986   0.00000  Uiso   1.00
H411   H     0.82049   0.57154   0.38604   0.00000  Uiso   1.00
H412   H     0.84618   0.42847   0.11396   0.00000  Uiso   1.00
H413   H     0.81205   0.61384   0.03689   0.00000  Uiso   1.00
H414   H     0.85462   0.38616   0.46311   0.00000  Uiso   1.00
C415   C     0.68717   0.45858   0.24433   0.00000  Uiso   1.00
C416   C     0.97949   0.54142   0.25567   0.00000  Uiso   1.00
C417   C     0.97810   0.45874   0.24358   0.00000  Uiso   1.00
C418   C     0.68857   0.54126   0.25642   0.00000  Uiso   1.00
C419   C     0.95716   0.50012   0.24959   0.00000  Uiso   1.00
C420   C     0.70951   0.49988   0.25041   0.00000  Uiso   1.00
C421   C     0.80669   0.35841   0.22056   0.00000  Uiso   1.00
C422   C     0.85998   0.64159   0.27944   0.00000  Uiso   1.00
C423   C     0.86028   0.35771   0.27909   0.00000  Uiso   1.00
C424   C     0.80638   0.64229   0.22091   0.00000  Uiso   1.00
N425   N     0.83333   0.61736   0.25000   0.00000  Uiso   1.00
N426   N     0.83333   0.38264   0.25000   0.00000  Uiso   1.00
F427   F     0.84548   0.41765   0.38838   0.00000  Uiso   1.00
F428   F     0.82119   0.58235   0.11163   0.00000  Uiso   1.00
C429   C     0.80833   0.62757   0.44897   0.00000  Uiso   1.00
H430   H     0.78070   0.62339   0.42496   0.00000  Uiso   1.00
H431   H     0.80189   0.65590   0.47159   0.00000  Uiso   1.00
H432   H     0.83500   0.63805   0.43095   0.00000  Uiso   1.00
C433   C     0.85834   0.37243   0.05103   0.00000  Uiso   1.00
H434   H     0.88596   0.37661   0.07504   0.00000  Uiso   1.00
H435   H     0.83167   0.36195   0.06905   0.00000  Uiso   1.00
H436   H     0.86478   0.34410   0.02841   0.00000  Uiso   1.00
F437   F     0.70600   0.41770   0.23894   0.00000  Uiso   1.00
F438   F     0.96066   0.58230   0.26106   0.00000  Uiso   1.00
F439   F     0.95780   0.41823   0.23623   0.00000  Uiso   1.00
F440   F     0.70887   0.58177   0.26377   0.00000  Uiso   1.00
C441   C     0.77785   0.38279   0.18537   0.00000  Uiso   1.00
H442   H     0.77513   0.41982   0.18815   0.00000  Uiso   1.00
H443   H     0.78803   0.37637   0.15204   0.00000  Uiso   1.00
H444   H     0.74591   0.37012   0.18633   0.00000  Uiso   1.00
C445   C     0.88882   0.61721   0.31463   0.00000  Uiso   1.00
H446   H     0.89153   0.58018   0.31185   0.00000  Uiso   1.00
H447   H     0.92076   0.62988   0.31367   0.00000  Uiso   1.00
H448   H     0.87864   0.62363   0.34796   0.00000  Uiso   1.00
C449   C     0.89238   0.38131   0.31072   0.00000  Uiso   1.00
H450   H     0.89031   0.41848   0.31265   0.00000  Uiso   1.00
H451   H     0.89043   0.36871   0.34521   0.00000  Uiso   1.00
H452   H     0.92352   0.37387   0.30092   0.00000  Uiso   1.00
C453   C     0.77428   0.61869   0.18928   0.00000  Uiso   1.00
H454   H     0.77636   0.58152   0.18735   0.00000  Uiso   1.00
H455   H     0.74315   0.62613   0.19908   0.00000  Uiso   1.00
H456   H     0.77623   0.63129   0.15479   0.00000  Uiso   1.00
O457   O     0.10655   0.87291   0.24999   0.00000  Uiso   1.00
O458   O     0.22679   0.79375   0.25001   0.00000  Uiso   1.00
O459   O     0.22679   0.87291   0.25001   0.00000  Uiso   1.00
O460   O     0.10655   0.79375   0.25000   0.00000  Uiso   1.00
C461   C     0.08751   0.83328   0.25014   0.00000  Uiso   1.00
C462   C     0.24582   0.83339   0.24986   0.00000  Uiso   1.00
O463   O     0.16666   0.87293   0.18513   0.00000  Uiso   1.00
O464   O     0.16668   0.79373   0.31487   0.00000  Uiso   1.00
O465   O     0.16668   0.87293   0.31487   0.00000  Uiso   1.00
O466   O     0.16666   0.79373   0.18513   0.00000  Uiso   1.00
C467   C     0.16665   0.83367   0.16443   0.00000  Uiso   1.00
C468   C     0.16668   0.83300   0.33557   0.00000  Uiso   1.00
Cu469  Cu    0.16667   0.88022   0.25000   0.00000  Uiso   1.00
Cu470  Cu    0.16667   0.78645   0.25000   0.00000  Uiso   1.00
C471   C     0.17296   0.79142   0.40889   0.00000  Uiso   1.00
C472   C     0.16037   0.87524   0.09111   0.00000  Uiso   1.00
C473   C     0.16633   0.83246   0.38408   0.00000  Uiso   1.00
C474   C     0.16701   0.83420   0.11593   0.00000  Uiso   1.00
C475   C     0.15928   0.87366   0.40568   0.00000  Uiso   1.00
C476   C     0.17405   0.79301   0.09432   0.00000  Uiso   1.00
C477   C     0.15888   0.87474   0.45190   0.00000  Uiso   1.00
C478   C     0.17445   0.79192   0.04810   0.00000  Uiso   1.00
C479   C     0.16649   0.83333   0.47675   0.00000  Uiso   1.00
C480   C     0.16684   0.83334   0.02325   0.00000  Uiso   1.00
C481   C     0.17370   0.79180   0.45510   0.00000  Uiso   1.00
C482   C     0.15964   0.87487   0.04490   0.00000  Uiso   1.00
C483   C     0.15101   0.91609   0.47388   0.00000  Uiso   1.00
C484   C     0.18232   0.75058   0.02612   0.00000  Uiso   1.00
C485   C     0.15157   0.91556   0.02014   0.00000  Uiso   1.00
C486   C     0.18177   0.75110   0.47986   0.00000  Uiso   1.00
H487   H     0.15382   0.90487   0.38604   0.00000  Uiso   1.00
H488   H     0.17951   0.76180   0.11396   0.00000  Uiso   1.00
H489   H     0.14538   0.94718   0.03689   0.00000  Uiso   1.00
H490   H     0.18795   0.71949   0.46311   0.00000  Uiso   1.00
C491   C     0.02051   0.79191   0.24433   0.00000  Uiso   1.00
C492   C     0.31283   0.87475   0.25567   0.00000  Uiso   1.00
C493   C     0.31143   0.79208   0.24358   0.00000  Uiso   1.00
C494   C     0.02190   0.87459   0.25642   0.00000  Uiso   1.00
C495   C     0.29049   0.83345   0.24959   0.00000  Uiso   1.00
C496   C     0.04284   0.83321   0.25041   0.00000  Uiso   1.00
C497   C     0.14002   0.69175   0.22056   0.00000  Uiso   1.00
C498   C     0.19331   0.97492   0.27944   0.00000  Uiso   1.00
C499   C     0.19362   0.69104   0.27909   0.00000  Uiso   1.00
C500   C     0.13972   0.97563   0.22091   0.00000  Uiso   1.00
N501   N     0.16667   0.95069   0.25000   0.00000  Uiso   1.00
N502   N     0.16667   0.71598   0.25000   0.00000  Uiso   1.00
F503   F     0.17881   0.75099   0.38838   0.00000  Uiso   1.00
F504   F     0.15452   0.91568   0.11163   0.00000  Uiso   1.00
C505   C     0.14167   0.96091   0.44897   0.00000  Uiso   1.00
H506   H     0.11404   0.95673   0.42496   0.00000  Uiso   1.00
H507   H     0.13522   0.98923   0.47159   0.00000  Uiso   1.00
H508   H     0.16833   0.97138   0.43095   0.00000  Uiso   1.00
C509   C     0.19167   0.70576   0.05103   0.00000  Uiso   1.00
H510   H     0.21930   0.70994   0.07504   0.00000  Uiso   1.00
H511   H     0.16500   0.69529   0.06905   0.00000  Uiso   1.00
H512   H     0.19811   0.67743   0.02841   0.00000  Uiso   1.00
F513   F     0.03934   0.75104   0.23894   0.00000  Uiso   1.00
F514   F     0.29400   0.91563   0.26106   0.00000  Uiso   1.00
F515   F     0.29113   0.75156   0.23623   0.00000  Uiso   1.00
F516   F     0.04220   0.91510   0.26377   0.00000  Uiso   1.00
C517   C     0.11118   0.71612   0.18537   0.00000  Uiso   1.00
H518   H     0.10847   0.75316   0.18815   0.00000  Uiso   1.00
H519   H     0.12136   0.70970   0.15204   0.00000  Uiso   1.00
H520   H     0.07924   0.70345   0.18633   0.00000  Uiso   1.00
C521   C     0.22215   0.95055   0.31463   0.00000  Uiso   1.00
H522   H     0.22487   0.91351   0.31185   0.00000  Uiso   1.00
H523   H     0.25409   0.96322   0.31367   0.00000  Uiso   1.00
H524   H     0.21197   0.95697   0.34796   0.00000  Uiso   1.00
C525   C     0.22572   0.71464   0.31072   0.00000  Uiso   1.00
H526   H     0.22364   0.75181   0.31265   0.00000  Uiso   1.00
H527   H     0.22377   0.70204   0.34521   0.00000  Uiso   1.00
H528   H     0.25685   0.70720   0.30092   0.00000  Uiso   1.00
C529   C     0.10762   0.95202   0.18928   0.00000  Uiso   1.00
H530   H     0.10969   0.91485   0.18735   0.00000  Uiso   1.00
H531   H     0.07648   0.95946   0.19908   0.00000  Uiso   1.00
H532   H     0.10957   0.96462   0.15479   0.00000  Uiso   1.00
O533   O     0.43988   0.87291   0.24999   0.00000  Uiso   1.00
O534   O     0.56012   0.79375   0.25001   0.00000  Uiso   1.00
O535   O     0.56012   0.87291   0.25001   0.00000  Uiso   1.00
O536   O     0.43988   0.79375   0.25000   0.00000  Uiso   1.00
C537   C     0.42084   0.83328   0.25014   0.00000  Uiso   1.00
C538   C     0.57916   0.83339   0.24986   0.00000  Uiso   1.00
O539   O     0.49999   0.87293   0.18513   0.00000  Uiso   1.00
O540   O     0.50001   0.79373   0.31487   0.00000  Uiso   1.00
O541   O     0.50001   0.87293   0.31487   0.00000  Uiso   1.00
O542   O     0.49999   0.79373   0.18513   0.00000  Uiso   1.00
C543   C     0.49998   0.83367   0.16443   0.00000  Uiso   1.00
C544   C     0.50002   0.83300   0.33557   0.00000  Uiso   1.00
Cu545  Cu    0.50000   0.88022   0.25000   0.00000  Uiso   1.00
Cu546  Cu    0.50000   0.78645   0.25000   0.00000  Uiso   1.00
C547   C     0.50630   0.79142   0.40889   0.00000  Uiso   1.00
C548   C     0.49370   0.87524   0.09111   0.00000  Uiso   1.00
C549   C     0.49966   0.83246   0.38408   0.00000  Uiso   1.00
C550   C     0.50034   0.83420   0.11593   0.00000  Uiso   1.00
C551   C     0.49262   0.87366   0.40568   0.00000  Uiso   1.00
C552   C     0.50738   0.79301   0.09432   0.00000  Uiso   1.00
C553   C     0.49221   0.87474   0.45190   0.00000  Uiso   1.00
C554   C     0.50779   0.79192   0.04810   0.00000  Uiso   1.00
C555   C     0.49983   0.83333   0.47675   0.00000  Uiso   1.00
C556   C     0.50017   0.83334   0.02325   0.00000  Uiso   1.00
C557   C     0.50703   0.79180   0.45510   0.00000  Uiso   1.00
C558   C     0.49297   0.87487   0.04490   0.00000  Uiso   1.00
C559   C     0.48435   0.91609   0.47388   0.00000  Uiso   1.00
C560   C     0.51565   0.75058   0.02612   0.00000  Uiso   1.00
C561   C     0.48490   0.91556   0.02014   0.00000  Uiso   1.00
C562   C     0.51510   0.75110   0.47986   0.00000  Uiso   1.00
H563   H     0.48716   0.90487   0.38604   0.00000  Uiso   1.00
H564   H     0.51284   0.76180   0.11396   0.00000  Uiso   1.00
H565   H     0.47871   0.94718   0.03689   0.00000  Uiso   1.00
H566   H     0.52129   0.71949   0.46311   0.00000  Uiso   1.00
C567   C     0.35384   0.79191   0.24433   0.00000  Uiso   1.00
C568   C     0.64616   0.87475   0.25567   0.00000  Uiso   1.00
C569   C     0.64477   0.79208   0.24358   0.00000  Uiso   1.00
C570   C     0.35524   0.87459   0.25642   0.00000  Uiso   1.00
C571   C     0.62383   0.83345   0.24959   0.00000  Uiso   1.00
C572   C     0.37617   0.83321   0.25041   0.00000  Uiso   1.00
C573   C     0.47335   0.69175   0.22056   0.00000  Uiso   1.00
C574   C     0.52665   0.97492   0.27944   0.00000  Uiso   1.00
C575   C     0.52695   0.69104   0.27909   0.00000  Uiso   1.00
C576   C     0.47305   0.97563   0.22091   0.00000  Uiso   1.00
N577   N     0.50000   0.95069   0.25000   0.00000  Uiso   1.00
N578   N     0.50000   0.71598   0.25000   0.00000  Uiso   1.00
F579   F     0.51215   0.75099   0.38838   0.00000  Uiso   1.00
F580   F     0.48785   0.91568   0.11163   0.00000  Uiso   1.00
C581   C     0.47500   0.96091   0.44897   0.00000  Uiso   1.00
H582   H     0.44737   0.95673   0.42496   0.00000  Uiso   1.00
H583   H     0.46855   0.98923   0.47159   0.00000  Uiso   1.00
H584   H     0.50166   0.97138   0.43095   0.00000  Uiso   1.00
C585   C     0.52500   0.70576   0.05103   0.00000  Uiso   1.00
H586   H     0.55263   0.70994   0.07504   0.00000  Uiso   1.00
H587   H     0.49834   0.69529   0.06905   0.00000  Uiso   1.00
H588   H     0.53145   0.67743   0.02841   0.00000  Uiso   1.00
F589   F     0.37267   0.75104   0.23894   0.00000  Uiso   1.00
F590   F     0.62733   0.91563   0.26106   0.00000  Uiso   1.00
F591   F     0.62447   0.75156   0.23623   0.00000  Uiso   1.00
F592   F     0.37553   0.91510   0.26377   0.00000  Uiso   1.00
C593   C     0.44451   0.71612   0.18537   0.00000  Uiso   1.00
H594   H     0.44180   0.75316   0.18815   0.00000  Uiso   1.00
H595   H     0.45470   0.70970   0.15204   0.00000  Uiso   1.00
H596   H     0.41258   0.70345   0.18633   0.00000  Uiso   1.00
C597   C     0.55549   0.95055   0.31463   0.00000  Uiso   1.00
H598   H     0.55820   0.91351   0.31185   0.00000  Uiso   1.00
H599   H     0.58742   0.96322   0.31367   0.00000  Uiso   1.00
H600   H     0.54530   0.95697   0.34796   0.00000  Uiso   1.00
C601   C     0.55905   0.71464   0.31072   0.00000  Uiso   1.00
H602   H     0.55698   0.75181   0.31265   0.00000  Uiso   1.00
H603   H     0.55710   0.70204   0.34521   0.00000  Uiso   1.00
H604   H     0.59019   0.70720   0.30092   0.00000  Uiso   1.00
C605   C     0.44095   0.95202   0.18928   0.00000  Uiso   1.00
H606   H     0.44302   0.91485   0.18735   0.00000  Uiso   1.00
H607   H     0.40981   0.95946   0.19908   0.00000  Uiso   1.00
H608   H     0.44290   0.96462   0.15479   0.00000  Uiso   1.00
O609   O     0.77321   0.87291   0.24999   0.00000  Uiso   1.00
O610   O     0.89345   0.79375   0.25001   0.00000  Uiso   1.00
O611   O     0.89345   0.87291   0.25001   0.00000  Uiso   1.00
O612   O     0.77321   0.79375   0.25000   0.00000  Uiso   1.00
C613   C     0.75418   0.83328   0.25014   0.00000  Uiso   1.00
C614   C     0.91249   0.83339   0.24986   0.00000  Uiso   1.00
O615   O     0.83332   0.87293   0.18513   0.00000  Uiso   1.00
O616   O     0.83334   0.79373   0.31487   0.00000  Uiso   1.00
O617   O     0.83334   0.87293   0.31487   0.00000  Uiso   1.00
O618   O     0.83332   0.79373   0.18513   0.00000  Uiso   1.00
C619   C     0.83332   0.83367   0.16443   0.00000  Uiso   1.00
C620   C     0.83335   0.83300   0.33557   0.00000  Uiso   1.00
Cu621  Cu    0.83333   0.88022   0.25000   0.00000  Uiso   1.00
Cu622  Cu    0.83333   0.78645   0.25000   0.00000  Uiso   1.00
C623   C     0.83963   0.79142   0.40889   0.00000  Uiso   1.00
C624   C     0.82704   0.87524   0.09111   0.00000  Uiso   1.00
C625   C     0.83299   0.83246   0.38408   0.00000  Uiso   1.00
C626   C     0.83367   0.83420   0.11593   0.00000  Uiso   1.00
C627   C     0.82595   0.87366   0.40568   0.00000  Uiso   1.00
C628   C     0.84072   0.79301   0.09432   0.00000  Uiso   1.00
C629   C     0.82555   0.87474   0.45190   0.00000  Uiso   1.00
C630   C     0.84112   0.79192   0.04810   0.00000  Uiso   1.00
C631   C     0.83316   0.83333   0.47675   0.00000  Uiso   1.00
C632   C     0.83351   0.83334   0.02325   0.00000  Uiso   1.00
C633   C     0.84037   0.79180   0.45510   0.00000  Uiso   1.00
C634   C     0.82630   0.87487   0.04490   0.00000  Uiso   1.00
C635   C     0.81768   0.91609   0.47388   0.00000  Uiso   1.00
C636   C     0.84899   0.75058   0.02612   0.00000  Uiso   1.00
C637   C     0.81824   0.91556   0.02014   0.00000  Uiso   1.00
C638   C     0.84843   0.75110   0.47986   0.00000  Uiso   1.00
H639   H     0.82049   0.90487   0.38604   0.00000  Uiso   1.00
H640   H     0.84618   0.76180   0.11396   0.00000  Uiso   1.00
H641   H     0.81205   0.94718   0.03689   0.00000  Uiso   1.00
H642   H     0.85462   0.71949   0.46311   0.00000  Uiso   1.00
C643   C     0.68717   0.79191   0.24433   0.00000  Uiso   1.00
C644   C     0.97949   0.87475   0.25567   0.00000  Uiso   1.00
C645   C     0.97810   0.79208   0.24358   0.00000  Uiso   1.00
C646   C     0.68857   0.87459   0.25642   0.00000  Uiso   1.00
C647   C     0.95716   0.83345   0.24959   0.00000  Uiso   1.00
C648   C     0.70951   0.83321   0.25041   0.00000  Uiso   1.00
C649   C     0.80669   0.69175   0.22056   0.00000  Uiso   1.00
C650   C     0.85998   0.97492   0.27944   0.00000  Uiso   1.00
C651   C     0.86028   0.69104   0.27909   0.00000  Uiso   1.00
C652   C     0.80638   0.97563   0.22091   0.00000  Uiso   1.00
N653   N     0.83333   0.95069   0.25000   0.00000  Uiso   1.00
N654   N     0.83333   0.71598   0.25000   0.00000  Uiso   1.00
F655   F     0.84548   0.75099   0.38838   0.00000  Uiso   1.00
F656   F     0.82119   0.91568   0.11163   0.00000  Uiso   1.00
C657   C     0.80833   0.96091   0.44897   0.00000  Uiso   1.00
H658   H     0.78070   0.95673   0.42496   0.00000  Uiso   1.00
H659   H     0.80189   0.98923   0.47159   0.00000  Uiso   1.00
H660   H     0.83500   0.97138   0.43095   0.00000  Uiso   1.00
C661   C     0.85834   0.70576   0.05103   0.00000  Uiso   1.00
H662   H     0.88596   0.70994   0.07504   0.00000  Uiso   1.00
H663   H     0.83167   0.69529   0.06905   0.00000  Uiso   1.00
H664   H     0.86478   0.67743   0.02841   0.00000  Uiso   1.00
F665   F     0.70600   0.75104   0.23894   0.00000  Uiso   1.00
F666   F     0.96066   0.91563   0.26106   0.00000  Uiso   1.00
F667   F     0.95780   0.75156   0.23623   0.00000  Uiso   1.00
F668   F     0.70887   0.91510   0.26377   0.00000  Uiso   1.00
C669   C     0.77785   0.71612   0.18537   0.00000  Uiso   1.00
H670   H     0.77513   0.75316   0.18815   0.00000  Uiso   1.00
H671   H     0.78803   0.70970   0.15204   0.00000  Uiso   1.00
H672   H     0.74591   0.70345   0.18633   0.00000  Uiso   1.00
C673   C     0.88882   0.95055   0.31463   0.00000  Uiso   1.00
H674   H     0.89153   0.91351   0.31185   0.00000  Uiso   1.00
H675   H     0.92076   0.96322   0.31367   0.00000  Uiso   1.00
H676   H     0.87864   0.95697   0.34796   0.00000  Uiso   1.00
C677   C     0.89238   0.71464   0.31072   0.00000  Uiso   1.00
H678   H     0.89031   0.75181   0.31265   0.00000  Uiso   1.00
H679   H     0.89043   0.70204   0.34521   0.00000  Uiso   1.00
H680   H     0.92352   0.70720   0.30092   0.00000  Uiso   1.00
C681   C     0.77428   0.95202   0.18928   0.00000  Uiso   1.00
H682   H     0.77636   0.91485   0.18735   0.00000  Uiso   1.00
H683   H     0.74315   0.95946   0.19908   0.00000  Uiso   1.00
H684   H     0.77623   0.96462   0.15479   0.00000  Uiso   1.00
O685   O     0.10655   0.20625   0.74999   0.00000  Uiso   1.00
O686   O     0.22679   0.12709   0.75001   0.00000  Uiso   1.00
O687   O     0.22679   0.20625   0.75001   0.00000  Uiso   1.00
O688   O     0.10655   0.12709   0.75000   0.00000  Uiso   1.00
C689   C     0.08751   0.16661   0.75014   0.00000  Uiso   1.00
C690   C     0.24582   0.16673   0.74986   0.00000  Uiso   1.00
O691   O     0.16666   0.20627   0.68513   0.00000  Uiso   1.00
O692   O     0.16668   0.12707   0.81487   0.00000  Uiso   1.00
O693   O     0.16668   0.20627   0.81487   0.00000  Uiso   1.00
O694   O     0.16666   0.12707   0.68513   0.00000  Uiso   1.00
C695   C     0.16665   0.16700   0.66443   0.00000  Uiso   1.00
C696   C     0.16668   0.16633   0.83557   0.00000  Uiso   1.00
Cu697  Cu    0.16667   0.21355   0.75000   0.00000  Uiso   1.00
Cu698  Cu    0.16667   0.11978   0.75000   0.00000  Uiso   1.00
C699   C     0.17296   0.12476   0.90889   0.00000  Uiso   1.00
C700   C     0.16037   0.20858   0.59111   0.00000  Uiso   1.00
C701   C     0.16633   0.16580   0.88408   0.00000  Uiso   1.00
C702   C     0.16701   0.16754   0.61593   0.00000  Uiso   1.00
C703   C     0.15928   0.20699   0.90568   0.00000  Uiso   1.00
C704   C     0.17405   0.12634   0.59432   0.00000  Uiso   1.00
C705   C     0.15888   0.20808   0.95190   0.00000  Uiso   1.00
C706   C     0.17445   0.12526   0.54810   0.00000  Uiso   1.00
C707   C     0.16649   0.16666   0.97675   0.00000  Uiso   1.00
C708   C     0.16684   0.16667   0.52325   0.00000  Uiso   1.00
C709   C     0.17370   0.12513   0.95510   0.00000  Uiso   1.00
C710   C     0.15964   0.20820   0.54490   0.00000  Uiso   1.00
C711   C     0.15101   0.24942   0.97388   0.00000  Uiso   1.00
C712   C     0.18232   0.08391   0.52612   0.00000  Uiso   1.00
C713   C     0.15157   0.24890   0.52014   0.00000  Uiso   1.00
C714   C     0.18177   0.08444   0.97986   0.00000  Uiso   1.00
H715   H     0.15382   0.23820   0.88604   0.00000  Uiso   1.00
H716   H     0.17951   0.09513   0.61396   0.00000  Uiso   1.00
H717   H     0.14538   0.28051   0.53689   0.00000  Uiso   1.00
H718   H     0.18795   0.05282   0.96311   0.00000  Uiso   1.00
C719   C     0.02051   0.12525   0.74433   0.00000  Uiso   1.00
C720   C     0.31283   0.20809   0.75567   0.00000  Uiso   1.00
C721   C     0.31143   0.12541   0.74358   0.00000  Uiso   1.00
C722   C     0.02190   0.20792   0.75642   0.00000  Uiso   1.00
C723   C     0.29049   0.16679   0.74959   0.00000  Uiso   1.00
C724   C     0.04284   0.16655   0.75041   0.00000  Uiso   1.00
C725   C     0.14002   0.02508   0.72056   0.00000  Uiso   1.00
C726   C     0.19331   0.30825   0.77944   0.00000  Uiso   1.00
C727   C     0.19362   0.02437   0.77909   0.00000  Uiso   1.00
C728   C     0.13972   0.30896   0.72091   0.00000  Uiso   1.00
N729   N     0.16667   0.28402   0.75000   0.00000  Uiso   1.00
N730   N     0.16667   0.04931   0.75000   0.00000  Uiso   1.00
F731   F     0.17881   0.08432   0.88838   0.00000  Uiso   1.00
F732   F     0.15452   0.24901   0.61163   0.00000  Uiso   1.00
C733   C     0.14167   0.29424   0.94897   0.00000  Uiso   1.00
H734   H     0.11404   0.29006   0.92496   0.00000  Uiso   1.00
H735   H     0.13522   0.32257   0.97159   0.00000  Uiso   1.00
H736   H     0.16833   0.30471   0.93095   0.00000  Uiso   1.00
C737   C     0.19167   0.03909   0.55103   0.00000  Uiso   1.00
H738   H     0.21930   0.04327   0.57504   0.00000  Uiso   1.00
H739   H     0.16500   0.02862   0.56905   0.00000  Uiso   1.00
H740   H     0.19811   0.01077   0.52841   0.00000  Uiso   1.00
F741   F     0.03934   0.08437   0.73894   0.00000  Uiso   1.00
F742   F     0.29400   0.24896   0.76106   0.00000  Uiso   1.00
F743   F     0.29113   0.08490   0.73623   0.00000  Uiso   1.00
F744   F     0.04220   0.24844   0.76377   0.00000  Uiso   1.00
C745   C     0.11118   0.04945   0.68537   0.00000  Uiso   1.00
H746   H     0.10847   0.08649   0.68815   0.00000  Uiso   1.00
H747   H     0.12136   0.04303   0.65204   0.00000  Uiso   1.00
H748   H     0.07924   0.03678   0.68633   0.00000  Uiso   1.00
C749   C     0.22215   0.28388   0.81463   0.00000  Uiso   1.00
H750   H     0.22487   0.24684   0.81185   0.00000  Uiso   1.00
H751   H     0.25409   0.29655   0.81367   0.00000  Uiso   1.00
H752   H     0.21197   0.29030   0.84796   0.00000  Uiso   1.00
C753   C     0.22572   0.04798   0.81072   0.00000  Uiso   1.00
H754   H     0.22364   0.08515   0.81265   0.00000  Uiso   1.00
H755   H     0.22377   0.03538   0.84521   0.00000  Uiso   1.00
H756   H     0.25685   0.04054   0.80092   0.00000  Uiso   1.00
C757   C     0.10762   0.28536   0.68928   0.00000  Uiso   1.00
H758   H     0.10969   0.24819   0.68735   0.00000  Uiso   1.00
H759   H     0.07648   0.29280   0.69908   0.00000  Uiso   1.00
H760   H     0.10957   0.29796   0.65479   0.00000  Uiso   1.00
O761   O     0.43988   0.20625   0.74999   0.00000  Uiso   1.00
O762   O     0.56012   0.12709   0.75001   0.00000  Uiso   1.00
O763   O     0.56012   0.20625   0.75001   0.00000  Uiso   1.00
O764   O     0.43988   0.12709   0.75000   0.00000  Uiso   1.00
C765   C     0.42084   0.16661   0.75014   0.00000  Uiso   1.00
C766   C     0.57916   0.16673   0.74986   0.00000  Uiso   1.00
O767   O     0.49999   0.20627   0.68513   0.00000  Uiso   1.00
O768   O     0.50001   0.12707   0.81487   0.00000  Uiso   1.00
O769   O     0.50001   0.20627   0.81487   0.00000  Uiso   1.00
O770   O     0.49999   0.12707   0.68513   0.00000  Uiso   1.00
C771   C     0.49998   0.16700   0.66443   0.00000  Uiso   1.00
C772   C     0.50002   0.16633   0.83557   0.00000  Uiso   1.00
Cu773  Cu    0.50000   0.21355   0.75000   0.00000  Uiso   1.00
Cu774  Cu    0.50000   0.11978   0.75000   0.00000  Uiso   1.00
C775   C     0.50630   0.12476   0.90889   0.00000  Uiso   1.00
C776   C     0.49370   0.20858   0.59111   0.00000  Uiso   1.00
C777   C     0.49966   0.16580   0.88408   0.00000  Uiso   1.00
C778   C     0.50034   0.16754   0.61593   0.00000  Uiso   1.00
C779   C     0.49262   0.20699   0.90568   0.00000  Uiso   1.00
C780   C     0.50738   0.12634   0.59432   0.00000  Uiso   1.00
C781   C     0.49221   0.20808   0.95190   0.00000  Uiso   1.00
C782   C     0.50779   0.12526   0.54810   0.00000  Uiso   1.00
C783   C     0.49983   0.16666   0.97675   0.00000  Uiso   1.00
C784   C     0.50017   0.16667   0.52325   0.00000  Uiso   1.00
C785   C     0.50703   0.12513   0.95510   0.00000  Uiso   1.00
C786   C     0.49297   0.20820   0.54490   0.00000  Uiso   1.00
C787   C     0.48435   0.24942   0.97388   0.00000  Uiso   1.00
C788   C     0.51565   0.08391   0.52612   0.00000  Uiso   1.00
C789   C     0.48490   0.24890   0.52014   0.00000  Uiso   1.00
C790   C     0.51510   0.08444   0.97986   0.00000  Uiso   1.00
H791   H     0.48716   0.23820   0.88604   0.00000  Uiso   1.00
H792   H     0.51284   0.09513   0.61396   0.00000  Uiso   1.00
H793   H     0.47871   0.28051   0.53689   0.00000  Uiso   1.00
H794   H     0.52129   0.05282   0.96311   0.00000  Uiso   1.00
C795   C     0.35384   0.12525   0.74433   0.00000  Uiso   1.00
C796   C     0.64616   0.20809   0.75567   0.00000  Uiso   1.00
C797   C     0.64477   0.12541   0.74358   0.00000  Uiso   1.00
C798   C     0.35524   0.20792   0.75642   0.00000  Uiso   1.00
C799   C     0.62383   0.16679   0.74959   0.00000  Uiso   1.00
C800   C     0.37617   0.16655   0.75041   0.00000  Uiso   1.00
C801   C     0.47335   0.02508   0.72056   0.00000  Uiso   1.00
C802   C     0.52665   0.30825   0.77944   0.00000  Uiso   1.00
C803   C     0.52695   0.02437   0.77909   0.00000  Uiso   1.00
C804   C     0.47305   0.30896   0.72091   0.00000  Uiso   1.00
N805   N     0.50000   0.28402   0.75000   0.00000  Uiso   1.00
N806   N     0.50000   0.04931   0.75000   0.00000  Uiso   1.00
F807   F     0.51215   0.08432   0.88838   0.00000  Uiso   1.00
F808   F     0.48785   0.24901   0.61163   0.00000  Uiso   1.00
C809   C     0.47500   0.29424   0.94897   0.00000  Uiso   1.00
H810   H     0.44737   0.29006   0.92496   0.00000  Uiso   1.00
H811   H     0.46855   0.32257   0.97159   0.00000  Uiso   1.00
H812   H     0.50166   0.30471   0.93095   0.00000  Uiso   1.00
C813   C     0.52500   0.03909   0.55103   0.00000  Uiso   1.00
H814   H     0.55263   0.04327   0.57504   0.00000  Uiso   1.00
H815   H     0.49834   0.02862   0.56905   0.00000  Uiso   1.00
H816   H     0.53145   0.01077   0.52841   0.00000  Uiso   1.00
F817   F     0.37267   0.08437   0.73894   0.00000  Uiso   1.00
F818   F     0.62733   0.24896   0.76106   0.00000  Uiso   1.00
F819   F     0.62447   0.08490   0.73623   0.00000  Uiso   1.00
F820   F     0.37553   0.24844   0.76377   0.00000  Uiso   1.00
C821   C     0.44451   0.04945   0.68537   0.00000  Uiso   1.00
H822   H     0.44180   0.08649   0.68815   0.00000  Uiso   1.00
H823   H     0.45470   0.04303   0.65204   0.00000  Uiso   1.00
H824   H     0.41258   0.03678   0.68633   0.00000  Uiso   1.00
C825   C     0.55549   0.28388   0.81463   0.00000  Uiso   1.00
H826   H     0.55820   0.24684   0.81185   0.00000  Uiso   1.00
H827   H     0.58742   0.29655   0.81367   0.00000  Uiso   1.00
H828   H     0.54530   0.29030   0.84796   0.00000  Uiso   1.00
C829   C     0.55905   0.04798   0.81072   0.00000  Uiso   1.00
H830   H     0.55698   0.08515   0.81265   0.00000  Uiso   1.00
H831   H     0.55710   0.03538   0.84521   0.00000  Uiso   1.00
H832   H     0.59019   0.04054   0.80092   0.00000  Uiso   1.00
C833   C     0.44095   0.28536   0.68928   0.00000  Uiso   1.00
H834   H     0.44302   0.24819   0.68735   0.00000  Uiso   1.00
H835   H     0.40981   0.29280   0.69908   0.00000  Uiso   1.00
H836   H     0.44290   0.29796   0.65479   0.00000  Uiso   1.00
O837   O     0.77321   0.20625   0.74999   0.00000  Uiso   1.00
O838   O     0.89345   0.12709   0.75001   0.00000  Uiso   1.00
O839   O     0.89345   0.20625   0.75001   0.00000  Uiso   1.00
O840   O     0.77321   0.12709   0.75000   0.00000  Uiso   1.00
C841   C     0.75418   0.16661   0.75014   0.00000  Uiso   1.00
C842   C     0.91249   0.16673   0.74986   0.00000  Uiso   1.00
O843   O     0.83332   0.20627   0.68513   0.00000  Uiso   1.00
O844   O     0.83334   0.12707   0.81487   0.00000  Uiso   1.00
O845   O     0.83334   0.20627   0.81487   0.00000  Uiso   1.00
O846   O     0.83332   0.12707   0.68513   0.00000  Uiso   1.00
C847   C     0.83332   0.16700   0.66443   0.00000  Uiso   1.00
C848   C     0.83335   0.16633   0.83557   0.00000  Uiso   1.00
Cu849  Cu    0.83333   0.21355   0.75000   0.00000  Uiso   1.00
Cu850  Cu    0.83333   0.11978   0.75000   0.00000  Uiso   1.00
C851   C     0.83963   0.12476   0.90889   0.00000  Uiso   1.00
C852   C     0.82704   0.20858   0.59111   0.00000  Uiso   1.00
C853   C     0.83299   0.16580   0.88408   0.00000  Uiso   1.00
C854   C     0.83367   0.16754   0.61593   0.00000  Uiso   1.00
C855   C     0.82595   0.20699   0.90568   0.00000  Uiso   1.00
C856   C     0.84072   0.12634   0.59432   0.00000  Uiso   1.00
C857   C     0.82555   0.20808   0.95190   0.00000  Uiso   1.00
C858   C     0.84112   0.12526   0.54810   0.00000  Uiso   1.00
C859   C     0.83316   0.16666   0.97675   0.00000  Uiso   1.00
C860   C     0.83351   0.16667   0.52325   0.00000  Uiso   1.00
C861   C     0.84037   0.12513   0.95510   0.00000  Uiso   1.00
C862   C     0.82630   0.20820   0.54490   0.00000  Uiso   1.00
C863   C     0.81768   0.24942   0.97388   0.00000  Uiso   1.00
C864   C     0.84899   0.08391   0.52612   0.00000  Uiso   1.00
C865   C     0.81824   0.24890   0.52014   0.00000  Uiso   1.00
C866   C     0.84843   0.08444   0.97986   0.00000  Uiso   1.00
H867   H     0.82049   0.23820   0.88604   0.00000  Uiso   1.00
H868   H     0.84618   0.09513   0.61396   0.00000  Uiso   1.00
H869   H     0.81205   0.28051   0.53689   0.00000  Uiso   1.00
H870   H     0.85462   0.05282   0.96311   0.00000  Uiso   1.00
C871   C     0.68717   0.12525   0.74433   0.00000  Uiso   1.00
C872   C     0.97949   0.20809   0.75567   0.00000  Uiso   1.00
C873   C     0.97810   0.12541   0.74358   0.00000  Uiso   1.00
C874   C     0.68857   0.20792   0.75642   0.00000  Uiso   1.00
C875   C     0.95716   0.16679   0.74959   0.00000  Uiso   1.00
C876   C     0.70951   0.16655   0.75041   0.00000  Uiso   1.00
C877   C     0.80669   0.02508   0.72056   0.00000  Uiso   1.00
C878   C     0.85998   0.30825   0.77944   0.00000  Uiso   1.00
C879   C     0.86028   0.02437   0.77909   0.00000  Uiso   1.00
C880   C     0.80638   0.30896   0.72091   0.00000  Uiso   1.00
N881   N     0.83333   0.28402   0.75000   0.00000  Uiso   1.00
N882   N     0.83333   0.04931   0.75000   0.00000  Uiso   1.00
F883   F     0.84548   0.08432   0.88838   0.00000  Uiso   1.00
F884   F     0.82119   0.24901   0.61163   0.00000  Uiso   1.00
C885   C     0.80833   0.29424   0.94897   0.00000  Uiso   1.00
H886   H     0.78070   0.29006   0.92496   0.00000  Uiso   1.00
H887   H     0.80189   0.32257   0.97159   0.00000  Uiso   1.00
H888   H     0.83500   0.30471   0.93095   0.00000  Uiso   1.00
C889   C     0.85834   0.03909   0.55103   0.00000  Uiso   1.00
H890   H     0.88596   0.04327   0.57504   0.00000  Uiso   1.00
H891   H     0.83167   0.02862   0.56905   0.00000  Uiso   1.00
H892   H     0.86478   0.01077   0.52841   0.00000  Uiso   1.00
F893   F     0.70600   0.08437   0.73894   0.00000  Uiso   1.00
F894   F     0.96066   0.24896   0.76106   0.00000  Uiso   1.00
F895   F     0.95780   0.08490   0.73623   0.00000  Uiso   1.00
F896   F     0.70887   0.24844   0.76377   0.00000  Uiso   1.00
C897   C     0.77785   0.04945   0.68537   0.00000  Uiso   1.00
H898   H     0.77513   0.08649   0.68815   0.00000  Uiso   1.00
H899   H     0.78803   0.04303   0.65204   0.00000  Uiso   1.00
H900   H     0.74591   0.03678   0.68633   0.00000  Uiso   1.00
C901   C     0.88882   0.28388   0.81463   0.00000  Uiso   1.00
H902   H     0.89153   0.24684   0.81185   0.00000  Uiso   1.00
H903   H     0.92076   0.29655   0.81367   0.00000  Uiso   1.00
H904   H     0.87864   0.29030   0.84796   0.00000  Uiso   1.00
C905   C     0.89238   0.04798   0.81072   0.00000  Uiso   1.00
H906   H     0.89031   0.08515   0.81265   0.00000  Uiso   1.00
H907   H     0.89043   0.03538   0.84521   0.00000  Uiso   1.00
H908   H     0.92352   0.04054   0.80092   0.00000  Uiso   1.00
C909   C     0.77428   0.28536   0.68928   0.00000  Uiso   1.00
H910   H     0.77636   0.24819   0.68735   0.00000  Uiso   1.00
H911   H     0.74315   0.29280   0.69908   0.00000  Uiso   1.00
H912   H     0.77623   0.29796   0.65479   0.00000  Uiso   1.00
O913   O     0.10655   0.53958   0.74999   0.00000  Uiso   1.00
O914   O     0.22679   0.46042   0.75001   0.00000  Uiso   1.00
O915   O     0.22679   0.53958   0.75001   0.00000  Uiso   1.00
O916   O     0.10655   0.46042   0.75000   0.00000  Uiso   1.00
C917   C     0.08751   0.49994   0.75014   0.00000  Uiso   1.00
C918   C     0.24582   0.50006   0.74986   0.00000  Uiso   1.00
O919   O     0.16666   0.53960   0.68513   0.00000  Uiso   1.00
O920   O     0.16668   0.46040   0.81487   0.00000  Uiso   1.00
O921   O     0.16668   0.53960   0.81487   0.00000  Uiso   1.00
O922   O     0.16666   0.46040   0.68513   0.00000  Uiso   1.00
C923   C     0.16665   0.50033   0.66443   0.00000  Uiso   1.00
C924   C     0.16668   0.49967   0.83557   0.00000  Uiso   1.00
Cu925  Cu    0.16667   0.54689   0.75000   0.00000  Uiso   1.00
Cu926  Cu    0.16667   0.45311   0.75000   0.00000  Uiso   1.00
C927   C     0.17296   0.45809   0.90889   0.00000  Uiso   1.00
C928   C     0.16037   0.54191   0.59111   0.00000  Uiso   1.00
C929   C     0.16633   0.49913   0.88408   0.00000  Uiso   1.00
C930   C     0.16701   0.50087   0.61593   0.00000  Uiso   1.00
C931   C     0.15928   0.54033   0.90568   0.00000  Uiso   1.00
C932   C     0.17405   0.45967   0.59432   0.00000  Uiso   1.00
C933   C     0.15888   0.54141   0.95190   0.00000  Uiso   1.00
C934   C     0.17445   0.45859   0.54810   0.00000  Uiso   1.00
C935   C     0.16649   0.50000   0.97675   0.00000  Uiso   1.00
C936   C     0.16684   0.50000   0.52325   0.00000  Uiso   1.00
C937   C     0.17370   0.45847   0.95510   0.00000  Uiso   1.00
C938   C     0.15964   0.54153   0.54490   0.00000  Uiso   1.00
C939   C     0.15101   0.58276   0.97388   0.00000  Uiso   1.00
C940   C     0.18232   0.41724   0.52612   0.00000  Uiso   1.00
C941   C     0.15157   0.58223   0.52014   0.00000  Uiso   1.00
C942   C     0.18177   0.41777   0.97986   0.00000  Uiso   1.00
H943   H     0.15382   0.57154   0.88604   0.00000  Uiso   1.00
H944   H     0.17951   0.42847   0.61396   0.00000  Uiso   1.00
H945   H     0.14538   0.61384   0.53689   0.00000  Uiso   1.00
H946   H     0.18795   0.38616   0.96311   0.00000  Uiso   1.00
C947   C     0.02051   0.45858   0.74433   0.00000  Uiso   1.00
C948   C     0.31283   0.54142   0.75567   0.00000  Uiso   1.00
C949   C     0.31143   0.45874   0.74358   0.00000  Uiso   1.00
C950   C     0.02190   0.54126   0.75642   0.00000  Uiso   1.00
C951   C     0.29049   0.50012   0.74959   0.00000  Uiso   1.00
C952   C     0.04284   0.49988   0.75041   0.00000  Uiso   1.00
C953   C     0.14002   0.35841   0.72056   0.00000  Uiso   1.00
C954   C     0.19331   0.64159   0.77944   0.00000  Uiso   1.00
C955   C     0.19362   0.35771   0.77909   0.00000  Uiso   1.00
C956   C     0.13972   0.64229   0.72091   0.00000  Uiso   1.00
N957   N     0.16667   0.61736   0.75000   0.00000  Uiso   1.00
N958   N     0.16667   0.38264   0.75000   0.00000  Uiso   1.00
F959   F     0.17881   0.41765   0.88838   0.00000  Uiso   1.00
F960   F     0.15452   0.58235   0.61163   0.00000  Uiso   1.00
C961   C     0.14167   0.62757   0.94897   0.00000  Uiso   1.00
H962   H     0.11404   0.62339   0.92496   0.00000  Uiso   1.00
H963   H     0.13522   0.65590   0.97159   0.00000  Uiso   1.00
H964   H     0.16833   0.63805   0.93095   0.00000  Uiso   1.00
C965   C     0.19167   0.37243   0.55103   0.00000  Uiso   1.00
H966   H     0.21930   0.37661   0.57504   0.00000  Uiso   1.00
H967   H     0.16500   0.36195   0.56905   0.00000  Uiso   1.00
H968   H     0.19811   0.34410   0.52841   0.00000  Uiso   1.00
F969   F     0.03934   0.41770   0.73894   0.00000  Uiso   1.00
F970   F     0.29400   0.58230   0.76106   0.00000  Uiso   1.00
F971   F     0.29113   0.41823   0.73623   0.00000  Uiso   1.00
F972   F     0.04220   0.58177   0.76377   0.00000  Uiso   1.00
C973   C     0.11118   0.38279   0.68537   0.00000  Uiso   1.00
H974   H     0.10847   0.41982   0.68815   0.00000  Uiso   1.00
H975   H     0.12136   0.37637   0.65204   0.00000  Uiso   1.00
H976   H     0.07924   0.37012   0.68633   0.00000  Uiso   1.00
C977   C     0.22215   0.61721   0.81463   0.00000  Uiso   1.00
H978   H     0.22487   0.58018   0.81185   0.00000  Uiso   1.00
H979   H     0.25409   0.62988   0.81367   0.00000  Uiso   1.00
H980   H     0.21197   0.62363   0.84796   0.00000  Uiso   1.00
C981   C     0.22572   0.38131   0.81072   0.00000  Uiso   1.00
H982   H     0.22364   0.41848   0.81265   0.00000  Uiso   1.00
H983   H     0.22377   0.36871   0.84521   0.00000  Uiso   1.00
H984   H     0.25685   0.37387   0.80092   0.00000  Uiso   1.00
C985   C     0.10762   0.61869   0.68928   0.00000  Uiso   1.00
H986   H     0.10969   0.58152   0.68735   0.00000  Uiso   1.00
H987   H     0.07648   0.62613   0.69908   0.00000  Uiso   1.00
H988   H     0.10957   0.63129   0.65479   0.00000  Uiso   1.00
O989   O     0.43988   0.53958   0.74999   0.00000  Uiso   1.00
O990   O     0.56012   0.46042   0.75001   0.00000  Uiso   1.00
O991   O     0.56012   0.53958   0.75001   0.00000  Uiso   1.00
O992   O     0.43988   0.46042   0.75000   0.00000  Uiso   1.00
C993   C     0.42084   0.49994   0.75014   0.00000  Uiso   1.00
C994   C     0.57916   0.50006   0.74986   0.00000  Uiso   1.00
O995   O     0.49999   0.53960   0.68513   0.00000  Uiso   1.00
O996   O     0.50001   0.46040   0.81487   0.00000  Uiso   1.00
O997   O     0.50001   0.53960   0.81487   0.00000  Uiso   1.00
O998   O     0.49999   0.46040   0.68513   0.00000  Uiso   1.00
C999   C     0.49998   0.50033   0.66443   0.00000  Uiso   1.00
C1000  C     0.50002   0.49967   0.83557   0.00000  Uiso   1.00
Cu1001 Cu    0.50000   0.54689   0.75000   0.00000  Uiso   1.00
Cu1002 Cu    0.50000   0.45311   0.75000   0.00000  Uiso   1.00
C1003  C     0.50630   0.45809   0.90889   0.00000  Uiso   1.00
C1004  C     0.49370   0.54191   0.59111   0.00000  Uiso   1.00
C1005  C     0.49966   0.49913   0.88408   0.00000  Uiso   1.00
C1006  C     0.50034   0.50087   0.61593   0.00000  Uiso   1.00
C1007  C     0.49262   0.54033   0.90568   0.00000  Uiso   1.00
C1008  C     0.50738   0.45967   0.59432   0.00000  Uiso   1.00
C1009  C     0.49221   0.54141   0.95190   0.00000  Uiso   1.00
C1010  C     0.50779   0.45859   0.54810   0.00000  Uiso   1.00
C1011  C     0.49983   0.50000   0.97675   0.00000  Uiso   1.00
C1012  C     0.50017   0.50000   0.52325   0.00000  Uiso   1.00
C1013  C     0.50703   0.45847   0.95510   0.00000  Uiso   1.00
C1014  C     0.49297   0.54153   0.54490   0.00000  Uiso   1.00
C1015  C     0.48435   0.58276   0.97388   0.00000  Uiso   1.00
C1016  C     0.51565   0.41724   0.52612   0.00000  Uiso   1.00
C1017  C     0.48490   0.58223   0.52014   0.00000  Uiso   1.00
C1018  C     0.51510   0.41777   0.97986   0.00000  Uiso   1.00
H1019  H     0.48716   0.57154   0.88604   0.00000  Uiso   1.00
H1020  H     0.51284   0.42847   0.61396   0.00000  Uiso   1.00
H1021  H     0.47871   0.61384   0.53689   0.00000  Uiso   1.00
H1022  H     0.52129   0.38616   0.96311   0.00000  Uiso   1.00
C1023  C     0.35384   0.45858   0.74433   0.00000  Uiso   1.00
C1024  C     0.64616   0.54142   0.75567   0.00000  Uiso   1.00
C1025  C     0.64477   0.45874   0.74358   0.00000  Uiso   1.00
C1026  C     0.35524   0.54126   0.75642   0.00000  Uiso   1.00
C1027  C     0.62383   0.50012   0.74959   0.00000  Uiso   1.00
C1028  C     0.37617   0.49988   0.75041   0.00000  Uiso   1.00
C1029  C     0.47335   0.35841   0.72056   0.00000  Uiso   1.00
C1030  C     0.52665   0.64159   0.77944   0.00000  Uiso   1.00
C1031  C     0.52695   0.35771   0.77909   0.00000  Uiso   1.00
C1032  C     0.47305   0.64229   0.72091   0.00000  Uiso   1.00
N1033  N     0.50000   0.61736   0.75000   0.00000  Uiso   1.00
N1034  N     0.50000   0.38264   0.75000   0.00000  Uiso   1.00
F1035  F     0.51215   0.41765   0.88838   0.00000  Uiso   1.00
F1036  F     0.48785   0.58235   0.61163   0.00000  Uiso   1.00
C1037  C     0.47500   0.62757   0.94897   0.00000  Uiso   1.00
H1038  H     0.44737   0.62339   0.92496   0.00000  Uiso   1.00
H1039  H     0.46855   0.65590   0.97159   0.00000  Uiso   1.00
H1040  H     0.50166   0.63805   0.93095   0.00000  Uiso   1.00
C1041  C     0.52500   0.37243   0.55103   0.00000  Uiso   1.00
H1042  H     0.55263   0.37661   0.57504   0.00000  Uiso   1.00
H1043  H     0.49834   0.36195   0.56905   0.00000  Uiso   1.00
H1044  H     0.53145   0.34410   0.52841   0.00000  Uiso   1.00
F1045  F     0.37267   0.41770   0.73894   0.00000  Uiso   1.00
F1046  F     0.62733   0.58230   0.76106   0.00000  Uiso   1.00
F1047  F     0.62447   0.41823   0.73623   0.00000  Uiso   1.00
F1048  F     0.37553   0.58177   0.76377   0.00000  Uiso   1.00
C1049  C     0.44451   0.38279   0.68537   0.00000  Uiso   1.00
H1050  H     0.44180   0.41982   0.68815   0.00000  Uiso   1.00
H1051  H     0.45470   0.37637   0.65204   0.00000  Uiso   1.00
H1052  H     0.41258   0.37012   0.68633   0.00000  Uiso   1.00
C1053  C     0.55549   0.61721   0.81463   0.00000  Uiso   1.00
H1054  H     0.55820   0.58018   0.81185   0.00000  Uiso   1.00
H1055  H     0.58742   0.62988   0.81367   0.00000  Uiso   1.00
H1056  H     0.54530   0.62363   0.84796   0.00000  Uiso   1.00
C1057  C     0.55905   0.38131   0.81072   0.00000  Uiso   1.00
H1058  H     0.55698   0.41848   0.81265   0.00000  Uiso   1.00
H1059  H     0.55710   0.36871   0.84521   0.00000  Uiso   1.00
H1060  H     0.59019   0.37387   0.80092   0.00000  Uiso   1.00
C1061  C     0.44095   0.61869   0.68928   0.00000  Uiso   1.00
H1062  H     0.44302   0.58152   0.68735   0.00000  Uiso   1.00
H1063  H     0.40981   0.62613   0.69908   0.00000  Uiso   1.00
H1064  H     0.44290   0.63129   0.65479   0.00000  Uiso   1.00
O1065  O     0.77321   0.53958   0.74999   0.00000  Uiso   1.00
O1066  O     0.89345   0.46042   0.75001   0.00000  Uiso   1.00
O1067  O     0.89345   0.53958   0.75001   0.00000  Uiso   1.00
O1068  O     0.77321   0.46042   0.75000   0.00000  Uiso   1.00
C1069  C     0.75418   0.49994   0.75014   0.00000  Uiso   1.00
C1070  C     0.91249   0.50006   0.74986   0.00000  Uiso   1.00
O1071  O     0.83332   0.53960   0.68513   0.00000  Uiso   1.00
O1072  O     0.83334   0.46040   0.81487   0.00000  Uiso   1.00
O1073  O     0.83334   0.53960   0.81487   0.00000  Uiso   1.00
O1074  O     0.83332   0.46040   0.68513   0.00000  Uiso   1.00
C1075  C     0.83332   0.50033   0.66443   0.00000  Uiso   1.00
C1076  C     0.83335   0.49967   0.83557   0.00000  Uiso   1.00
Cu1077 Cu    0.83333   0.54689   0.75000   0.00000  Uiso   1.00
Cu1078 Cu    0.83333   0.45311   0.75000   0.00000  Uiso   1.00
C1079  C     0.83963   0.45809   0.90889   0.00000  Uiso   1.00
C1080  C     0.82704   0.54191   0.59111   0.00000  Uiso   1.00
C1081  C     0.83299   0.49913   0.88408   0.00000  Uiso   1.00
C1082  C     0.83367   0.50087   0.61593   0.00000  Uiso   1.00
C1083  C     0.82595   0.54033   0.90568   0.00000  Uiso   1.00
C1084  C     0.84072   0.45967   0.59432   0.00000  Uiso   1.00
C1085  C     0.82555   0.54141   0.95190   0.00000  Uiso   1.00
C1086  C     0.84112   0.45859   0.54810   0.00000  Uiso   1.00
C1087  C     0.83316   0.50000   0.97675   0.00000  Uiso   1.00
C1088  C     0.83351   0.50000   0.52325   0.00000  Uiso   1.00
C1089  C     0.84037   0.45847   0.95510   0.00000  Uiso   1.00
C1090  C     0.82630   0.54153   0.54490   0.00000  Uiso   1.00
C1091  C     0.81768   0.58276   0.97388   0.00000  Uiso   1.00
C1092  C     0.84899   0.41724   0.52612   0.00000  Uiso   1.00
C1093  C     0.81824   0.58223   0.52014   0.00000  Uiso   1.00
C1094  C     0.84843   0.41777   0.97986   0.00000  Uiso   1.00
H1095  H     0.82049   0.57154   0.88604   0.00000  Uiso   1.00
H1096  H     0.84618   0.42847   0.61396   0.00000  Uiso   1.00
H1097  H     0.81205   0.61384   0.53689   0.00000  Uiso   1.00
H1098  H     0.85462   0.38616   0.96311   0.00000  Uiso   1.00
C1099  C     0.68717   0.45858   0.74433   0.00000  Uiso   1.00
C1100  C     0.97949   0.54142   0.75567   0.00000  Uiso   1.00
C1101  C     0.97810   0.45874   0.74358   0.00000  Uiso   1.00
C1102  C     0.68857   0.54126   0.75642   0.00000  Uiso   1.00
C1103  C     0.95716   0.50012   0.74959   0.00000  Uiso   1.00
C1104  C     0.70951   0.49988   0.75041   0.00000  Uiso   1.00
C1105  C     0.80669   0.35841   0.72056   0.00000  Uiso   1.00
C1106  C     0.85998   0.64159   0.77944   0.00000  Uiso   1.00
C1107  C     0.86028   0.35771   0.77909   0.00000  Uiso   1.00
C1108  C     0.80638   0.64229   0.72091   0.00000  Uiso   1.00
N1109  N     0.83333   0.61736   0.75000   0.00000  Uiso   1.00
N1110  N     0.83333   0.38264   0.75000   0.00000  Uiso   1.00
F1111  F     0.84548   0.41765   0.88838   0.00000  Uiso   1.00
F1112  F     0.82119   0.58235   0.61163   0.00000  Uiso   1.00
C1113  C     0.80833   0.62757   0.94897   0.00000  Uiso   1.00
H1114  H     0.78070   0.62339   0.92496   0.00000  Uiso   1.00
H1115  H     0.80189   0.65590   0.97159   0.00000  Uiso   1.00
H1116  H     0.83500   0.63805   0.93095   0.00000  Uiso   1.00
C1117  C     0.85834   0.37243   0.55103   0.00000  Uiso   1.00
H1118  H     0.88596   0.37661   0.57504   0.00000  Uiso   1.00
H1119  H     0.83167   0.36195   0.56905   0.00000  Uiso   1.00
H1120  H     0.86478   0.34410   0.52841   0.00000  Uiso   1.00
F1121  F     0.70600   0.41770   0.73894   0.00000  Uiso   1.00
F1122  F     0.96066   0.58230   0.76106   0.00000  Uiso   1.00
F1123  F     0.95780   0.41823   0.73623   0.00000  Uiso   1.00
F1124  F     0.70887   0.58177   0.76377   0.00000  Uiso   1.00
C1125  C     0.77785   0.38279   0.68537   0.00000  Uiso   1.00
H1126  H     0.77513   0.41982   0.68815   0.00000  Uiso   1.00
H1127  H     0.78803   0.37637   0.65204   0.00000  Uiso   1.00
H1128  H     0.74591   0.37012   0.68633   0.00000  Uiso   1.00
C1129  C     0.88882   0.61721   0.81463   0.00000  Uiso   1.00
H1130  H     0.89153   0.58018   0.81185   0.00000  Uiso   1.00
H1131  H     0.92076   0.62988   0.81367   0.00000  Uiso   1.00
H1132  H     0.87864   0.62363   0.84796   0.00000  Uiso   1.00
C1133  C     0.89238   0.38131   0.81072   0.00000  Uiso   1.00
H1134  H     0.89031   0.41848   0.81265   0.00000  Uiso   1.00
H1135  H     0.89043   0.36871   0.84521   0.00000  Uiso   1.00
H1136  H     0.92352   0.37387   0.80092   0.00000  Uiso   1.00
C1137  C     0.77428   0.61869   0.68928   0.00000  Uiso   1.00
H1138  H     0.77636   0.58152   0.68735   0.00000  Uiso   1.00
H1139  H     0.74315   0.62613   0.69908   0.00000  Uiso   1.00
H1140  H     0.77623   0.63129   0.65479   0.00000  Uiso   1.00
O1141  O     0.10655   0.87291   0.74999   0.00000  Uiso   1.00
O1142  O     0.22679   0.79375   0.75001   0.00000  Uiso   1.00
O1143  O     0.22679   0.87291   0.75001   0.00000  Uiso   1.00
O1144  O     0.10655   0.79375   0.75000   0.00000  Uiso   1.00
C1145  C     0.08751   0.83328   0.75014   0.00000  Uiso   1.00
C1146  C     0.24582   0.83339   0.74986   0.00000  Uiso   1.00
O1147  O     0.16666   0.87293   0.68513   0.00000  Uiso   1.00
O1148  O     0.16668   0.79373   0.81487   0.00000  Uiso   1.00
O1149  O     0.16668   0.87293   0.81487   0.00000  Uiso   1.00
O1150  O     0.16666   0.79373   0.68513   0.00000  Uiso   1.00
C1151  C     0.16665   0.83367   0.66443   0.00000  Uiso   1.00
C1152  C     0.16668   0.83300   0.83557   0.00000  Uiso   1.00
Cu1153 Cu    0.16667   0.88022   0.75000   0.00000  Uiso   1.00
Cu1154 Cu    0.16667   0.78645   0.75000   0.00000  Uiso   1.00
C1155  C     0.17296   0.79142   0.90889   0.00000  Uiso   1.00
C1156  C     0.16037   0.87524   0.59111   0.00000  Uiso   1.00
C1157  C     0.16633   0.83246   0.88408   0.00000  Uiso   1.00
C1158  C     0.16701   0.83420   0.61593   0.00000  Uiso   1.00
C1159  C     0.15928   0.87366   0.90568   0.00000  Uiso   1.00
C1160  C     0.17405   0.79301   0.59432   0.00000  Uiso   1.00
C1161  C     0.15888   0.87474   0.95190   0.00000  Uiso   1.00
C1162  C     0.17445   0.79192   0.54810   0.00000  Uiso   1.00
C1163  C     0.16649   0.83333   0.97675   0.00000  Uiso   1.00
C1164  C     0.16684   0.83334   0.52325   0.00000  Uiso   1.00
C1165  C     0.17370   0.79180   0.95510   0.00000  Uiso   1.00
C1166  C     0.15964   0.87487   0.54490   0.00000  Uiso   1.00
C1167  C     0.15101   0.91609   0.97388   0.00000  Uiso   1.00
C1168  C     0.18232   0.75058   0.52612   0.00000  Uiso   1.00
C1169  C     0.15157   0.91556   0.52014   0.00000  Uiso   1.00
C1170  C     0.18177   0.75110   0.97986   0.00000  Uiso   1.00
H1171  H     0.15382   0.90487   0.88604   0.00000  Uiso   1.00
H1172  H     0.17951   0.76180   0.61396   0.00000  Uiso   1.00
H1173  H     0.14538   0.94718   0.53689   0.00000  Uiso   1.00
H1174  H     0.18795   0.71949   0.96311   0.00000  Uiso   1.00
C1175  C     0.02051   0.79191   0.74433   0.00000  Uiso   1.00
C1176  C     0.31283   0.87475   0.75567   0.00000  Uiso   1.00
C1177  C     0.31143   0.79208   0.74358   0.00000  Uiso   1.00
C1178  C     0.02190   0.87459   0.75642   0.00000  Uiso   1.00
C1179  C     0.29049   0.83345   0.74959   0.00000  Uiso   1.00
C1180  C     0.04284   0.83321   0.75041   0.00000  Uiso   1.00
C1181  C     0.14002   0.69175   0.72056   0.00000  Uiso   1.00
C1182  C     0.19331   0.97492   0.77944   0.00000  Uiso   1.00
C1183  C     0.19362   0.69104   0.77909   0.00000  Uiso   1.00
C1184  C     0.13972   0.97563   0.72091   0.00000  Uiso   1.00
N1185  N     0.16667   0.95069   0.75000   0.00000  Uiso   1.00
N1186  N     0.16667   0.71598   0.75000   0.00000  Uiso   1.00
F1187  F     0.17881   0.75099   0.88838   0.00000  Uiso   1.00
F1188  F     0.15452   0.91568   0.61163   0.00000  Uiso   1.00
C1189  C     0.14167   0.96091   0.94897   0.00000  Uiso   1.00
H1190  H     0.11404   0.95673   0.92496   0.00000  Uiso   1.00
H1191  H     0.13522   0.98923   0.97159   0.00000  Uiso   1.00
H1192  H     0.16833   0.97138   0.93095   0.00000  Uiso   1.00
C1193  C     0.19167   0.70576   0.55103   0.00000  Uiso   1.00
H1194  H     0.21930   0.70994   0.57504   0.00000  Uiso   1.00
H1195  H     0.16500   0.69529   0.56905   0.00000  Uiso   1.00
H1196  H     0.19811   0.67743   0.52841   0.00000  Uiso   1.00
F1197  F     0.03934   0.75104   0.73894   0.00000  Uiso   1.00
F1198  F     0.29400   0.91563   0.76106   0.00000  Uiso   1.00
F1199  F     0.29113   0.75156   0.73623   0.00000  Uiso   1.00
F1200  F     0.04220   0.91510   0.76377   0.00000  Uiso   1.00
C1201  C     0.11118   0.71612   0.68537   0.00000  Uiso   1.00
H1202  H     0.10847   0.75316   0.68815   0.00000  Uiso   1.00
H1203  H     0.12136   0.70970   0.65204   0.00000  Uiso   1.00
H1204  H     0.07924   0.70345   0.68633   0.00000  Uiso   1.00
C1205  C     0.22215   0.95055   0.81463   0.00000  Uiso   1.00
H1206  H     0.22487   0.91351   0.81185   0.00000  Uiso   1.00
H1207  H     0.25409   0.96322   0.81367   0.00000  Uiso   1.00
H1208  H     0.21197   0.95697   0.84796   0.00000  Uiso   1.00
C1209  C     0.22572   0.71464   0.81072   0.00000  Uiso   1.00
H1210  H     0.22364   0.75181   0.81265   0.00000  Uiso   1.00
H1211  H     0.22377   0.70204   0.84521   0.00000  Uiso   1.00
H1212  H     0.25685   0.70720   0.80092   0.00000  Uiso   1.00
C1213  C     0.10762   0.95202   0.68928   0.00000  Uiso   1.00
H1214  H     0.10969   0.91485   0.68735   0.00000  Uiso   1.00
H1215  H     0.07648   0.95946   0.69908   0.00000  Uiso   1.00
H1216  H     0.10957   0.96462   0.65479   0.00000  Uiso   1.00
O1217  O     0.43988   0.87291   0.74999   0.00000  Uiso   1.00
O1218  O     0.56012   0.79375   0.75001   0.00000  Uiso   1.00
O1219  O     0.56012   0.87291   0.75001   0.00000  Uiso   1.00
O1220  O     0.43988   0.79375   0.75000   0.00000  Uiso   1.00
C1221  C     0.42084   0.83328   0.75014   0.00000  Uiso   1.00
C1222  C     0.57916   0.83339   0.74986   0.00000  Uiso   1.00
O1223  O     0.49999   0.87293   0.68513   0.00000  Uiso   1.00
O1224  O     0.50001   0.79373   0.81487   0.00000  Uiso   1.00
O1225  O     0.50001   0.87293   0.81487   0.00000  Uiso   1.00
O1226  O     0.49999   0.79373   0.68513   0.00000  Uiso   1.00
C1227  C     0.49998   0.83367   0.66443   0.00000  Uiso   1.00
C1228  C     0.50002   0.83300   0.83557   0.00000  Uiso   1.00
Cu1229 Cu    0.50000   0.88022   0.75000   0.00000  Uiso   1.00
Cu1230 Cu    0.50000   0.78645   0.75000   0.00000  Uiso   1.00
C1231  C     0.50630   0.79142   0.90889   0.00000  Uiso   1.00
C1232  C     0.49370   0.87524   0.59111   0.00000  Uiso   1.00
C1233  C     0.49966   0.83246   0.88408   0.00000  Uiso   1.00
C1234  C     0.50034   0.83420   0.61593   0.00000  Uiso   1.00
C1235  C     0.49262   0.87366   0.90568   0.00000  Uiso   1.00
C1236  C     0.50738   0.79301   0.59432   0.00000  Uiso   1.00
C1237  C     0.49221   0.87474   0.95190   0.00000  Uiso   1.00
C1238  C     0.50779   0.79192   0.54810   0.00000  Uiso   1.00
C1239  C     0.49983   0.83333   0.97675   0.00000  Uiso   1.00
C1240  C     0.50017   0.83334   0.52325   0.00000  Uiso   1.00
C1241  C     0.50703   0.79180   0.95510   0.00000  Uiso   1.00
C1242  C     0.49297   0.87487   0.54490   0.00000  Uiso   1.00
C1243  C     0.48435   0.91609   0.97388   0.00000  Uiso   1.00
C1244  C     0.51565   0.75058   0.52612   0.00000  Uiso   1.00
C1245  C     0.48490   0.91556   0.52014   0.00000  Uiso   1.00
C1246  C     0.51510   0.75110   0.97986   0.00000  Uiso   1.00
H1247  H     0.48716   0.90487   0.88604   0.00000  Uiso   1.00
H1248  H     0.51284   0.76180   0.61396   0.00000  Uiso   1.00
H1249  H     0.47871   0.94718   0.53689   0.00000  Uiso   1.00
H1250  H     0.52129   0.71949   0.96311   0.00000  Uiso   1.00
C1251  C     0.35384   0.79191   0.74433   0.00000  Uiso   1.00
C1252  C     0.64616   0.87475   0.75567   0.00000  Uiso   1.00
C1253  C     0.64477   0.79208   0.74358   0.00000  Uiso   1.00
C1254  C     0.35524   0.87459   0.75642   0.00000  Uiso   1.00
C1255  C     0.62383   0.83345   0.74959   0.00000  Uiso   1.00
C1256  C     0.37617   0.83321   0.75041   0.00000  Uiso   1.00
C1257  C     0.47335   0.69175   0.72056   0.00000  Uiso   1.00
C1258  C     0.52665   0.97492   0.77944   0.00000  Uiso   1.00
C1259  C     0.52695   0.69104   0.77909   0.00000  Uiso   1.00
C1260  C     0.47305   0.97563   0.72091   0.00000  Uiso   1.00
N1261  N     0.50000   0.95069   0.75000   0.00000  Uiso   1.00
N1262  N     0.50000   0.71598   0.75000   0.00000  Uiso   1.00
F1263  F     0.51215   0.75099   0.88838   0.00000  Uiso   1.00
F1264  F     0.48785   0.91568   0.61163   0.00000  Uiso   1.00
C1265  C     0.47500   0.96091   0.94897   0.00000  Uiso   1.00
H1266  H     0.44737   0.95673   0.92496   0.00000  Uiso   1.00
H1267  H     0.46855   0.98923   0.97159   0.00000  Uiso   1.00
H1268  H     0.50166   0.97138   0.93095   0.00000  Uiso   1.00
C1269  C     0.52500   0.70576   0.55103   0.00000  Uiso   1.00
H1270  H     0.55263   0.70994   0.57504   0.00000  Uiso   1.00
H1271  H     0.49834   0.69529   0.56905   0.00000  Uiso   1.00
H1272  H     0.53145   0.67743   0.52841   0.00000  Uiso   1.00
F1273  F     0.37267   0.75104   0.73894   0.00000  Uiso   1.00
F1274  F     0.62733   0.91563   0.76106   0.00000  Uiso   1.00
F1275  F     0.62447   0.75156   0.73623   0.00000  Uiso   1.00
F1276  F     0.37553   0.91510   0.76377   0.00000  Uiso   1.00
C1277  C     0.44451   0.71612   0.68537   0.00000  Uiso   1.00
H1278  H     0.44180   0.75316   0.68815   0.00000  Uiso   1.00
H1279  H     0.45470   0.70970   0.65204   0.00000  Uiso   1.00
H1280  H     0.41258   0.70345   0.68633   0.00000  Uiso   1.00
C1281  C     0.55549   0.95055   0.81463   0.00000  Uiso   1.00
H1282  H     0.55820   0.91351   0.81185   0.00000  Uiso   1.00
H1283  H     0.58742   0.96322   0.81367   0.00000  Uiso   1.00
H1284  H     0.54530   0.95697   0.84796   0.00000  Uiso   1.00
C1285  C     0.55905   0.71464   0.81072   0.00000  Uiso   1.00
H1286  H     0.55698   0.75181   0.81265   0.00000  Uiso   1.00
H1287  H     0.55710   0.70204   0.84521   0.00000  Uiso   1.00
H1288  H     0.59019   0.70720   0.80092   0.00000  Uiso   1.00
C1289  C     0.44095   0.95202   0.68928   0.00000  Uiso   1.00
H1290  H     0.44302   0.91485   0.68735   0.00000  Uiso   1.00
H1291  H     0.40981   0.95946   0.69908   0.00000  Uiso   1.00
H1292  H     0.44290   0.96462   0.65479   0.00000  Uiso   1.00
O1293  O     0.77321   0.87291   0.74999   0.00000  Uiso   1.00
O1294  O     0.89345   0.79375   0.75001   0.00000  Uiso   1.00
O1295  O     0.89345   0.87291   0.75001   0.00000  Uiso   1.00
O1296  O     0.77321   0.79375   0.75000   0.00000  Uiso   1.00
C1297  C     0.75418   0.83328   0.75014   0.00000  Uiso   1.00
C1298  C     0.91249   0.83339   0.74986   0.00000  Uiso   1.00
O1299  O     0.83332   0.87293   0.68513   0.00000  Uiso   1.00
O1300  O     0.83334   0.79373   0.81487   0.00000  Uiso   1.00
O1301  O     0.83334   0.87293   0.81487   0.00000  Uiso   1.00
O1302  O     0.83332   0.79373   0.68513   0.00000  Uiso   1.00
C1303  C     0.83332   0.83367   0.66443   0.00000  Uiso   1.00
C1304  C     0.83335   0.83300   0.83557   0.00000  Uiso   1.00
Cu1305 Cu    0.83333   0.88022   0.75000   0.00000  Uiso   1.00
Cu1306 Cu    0.83333   0.78645   0.75000   0.00000  Uiso   1.00
C1307  C     0.83963   0.79142   0.90889   0.00000  Uiso   1.00
C1308  C     0.82704   0.87524   0.59111   0.00000  Uiso   1.00
C1309  C     0.83299   0.83246   0.88408   0.00000  Uiso   1.00
C1310  C     0.83367   0.83420   0.61593   0.00000  Uiso   1.00
C1311  C     0.82595   0.87366   0.90568   0.00000  Uiso   1.00
C1312  C     0.84072   0.79301   0.59432   0.00000  Uiso   1.00
C1313  C     0.82555   0.87474   0.95190   0.00000  Uiso   1.00
C1314  C     0.84112   0.79192   0.54810   0.00000  Uiso   1.00
C1315  C     0.83316   0.83333   0.97675   0.00000  Uiso   1.00
C1316  C     0.83351   0.83334   0.52325   0.00000  Uiso   1.00
C1317  C     0.84037   0.79180   0.95510   0.00000  Uiso   1.00
C1318  C     0.82630   0.87487   0.54490   0.00000  Uiso   1.00
C1319  C     0.81768   0.91609   0.97388   0.00000  Uiso   1.00
C1320  C     0.84899   0.75058   0.52612   0.00000  Uiso   1.00
C1321  C     0.81824   0.91556   0.52014   0.00000  Uiso   1.00
C1322  C     0.84843   0.75110   0.97986   0.00000  Uiso   1.00
H1323  H     0.82049   0.90487   0.88604   0.00000  Uiso   1.00
H1324  H     0.84618   0.76180   0.61396   0.00000  Uiso   1.00
H1325  H     0.81205   0.94718   0.53689   0.00000  Uiso   1.00
H1326  H     0.85462   0.71949   0.96311   0.00000  Uiso   1.00
C1327  C     0.68717   0.79191   0.74433   0.00000  Uiso   1.00
C1328  C     0.97949   0.87475   0.75567   0.00000  Uiso   1.00
C1329  C     0.97810   0.79208   0.74358   0.00000  Uiso   1.00
C1330  C     0.68857   0.87459   0.75642   0.00000  Uiso   1.00
C1331  C     0.95716   0.83345   0.74959   0.00000  Uiso   1.00
C1332  C     0.70951   0.83321   0.75041   0.00000  Uiso   1.00
C1333  C     0.80669   0.69175   0.72056   0.00000  Uiso   1.00
C1334  C     0.85998   0.97492   0.77944   0.00000  Uiso   1.00
C1335  C     0.86028   0.69104   0.77909   0.00000  Uiso   1.00
C1336  C     0.80638   0.97563   0.72091   0.00000  Uiso   1.00
N1337  N     0.83333   0.95069   0.75000   0.00000  Uiso   1.00
N1338  N     0.83333   0.71598   0.75000   0.00000  Uiso   1.00
F1339  F     0.84548   0.75099   0.88838   0.00000  Uiso   1.00
F1340  F     0.82119   0.91568   0.61163   0.00000  Uiso   1.00
C1341  C     0.80833   0.96091   0.94897   0.00000  Uiso   1.00
H1342  H     0.78070   0.95673   0.92496   0.00000  Uiso   1.00
H1343  H     0.80189   0.98923   0.97159   0.00000  Uiso   1.00
H1344  H     0.83500   0.97138   0.93095   0.00000  Uiso   1.00
C1345  C     0.85834   0.70576   0.55103   0.00000  Uiso   1.00
H1346  H     0.88596   0.70994   0.57504   0.00000  Uiso   1.00
H1347  H     0.83167   0.69529   0.56905   0.00000  Uiso   1.00
H1348  H     0.86478   0.67743   0.52841   0.00000  Uiso   1.00
F1349  F     0.70600   0.75104   0.73894   0.00000  Uiso   1.00
F1350  F     0.96066   0.91563   0.76106   0.00000  Uiso   1.00
F1351  F     0.95780   0.75156   0.73623   0.00000  Uiso   1.00
F1352  F     0.70887   0.91510   0.76377   0.00000  Uiso   1.00
C1353  C     0.77785   0.71612   0.68537   0.00000  Uiso   1.00
H1354  H     0.77513   0.75316   0.68815   0.00000  Uiso   1.00
H1355  H     0.78803   0.70970   0.65204   0.00000  Uiso   1.00
H1356  H     0.74591   0.70345   0.68633   0.00000  Uiso   1.00
C1357  C     0.88882   0.95055   0.81463   0.00000  Uiso   1.00
H1358  H     0.89153   0.91351   0.81185   0.00000  Uiso   1.00
H1359  H     0.92076   0.96322   0.81367   0.00000  Uiso   1.00
H1360  H     0.87864   0.95697   0.84796   0.00000  Uiso   1.00
C1361  C     0.89238   0.71464   0.81072   0.00000  Uiso   1.00
H1362  H     0.89031   0.75181   0.81265   0.00000  Uiso   1.00
H1363  H     0.89043   0.70204   0.84521   0.00000  Uiso   1.00
H1364  H     0.92352   0.70720   0.80092   0.00000  Uiso   1.00
C1365  C     0.77428   0.95202   0.68928   0.00000  Uiso   1.00
H1366  H     0.77636   0.91485   0.68735   0.00000  Uiso   1.00
H1367  H     0.74315   0.95946   0.69908   0.00000  Uiso   1.00
H1368  H     0.77623   0.96462   0.65479   0.00000  Uiso   1.00
loop_
_geom_bond_atom_site_label_1
_geom_bond_atom_site_label_2
_geom_bond_distance
_geom_bond_site_symmetry_2
_ccdc_geom_bond_type
O1     C5      1.306   .     A
O1     Cu13    1.975   .     S
O2     C6      1.306   .     A
O2     Cu14    1.975   .     S
O3     C6      1.306   .     A
O3     Cu13    1.976   .     S
O4     C5      1.306   .     A
O4     Cu14    1.976   .     S
C5     C40     1.460   .     S
C6     C39     1.460   .     S
O7     C11     1.308   .     A
O7     Cu13    1.977   .     S
O8     C12     1.308   .     A
O8     Cu14    1.977   .     S
O9     Cu13    1.971   .     S
O9     C12     1.309   .     A
O10    Cu14    1.971   .     S
O10    C11     1.309   .     A
C11    C18     1.469   .     S
C12    C17     1.469   .     S
Cu13   N45     2.044   .     S
Cu13   Cu14    2.720   .     S
Cu14   N46     2.044   .     S
C15    F47     1.358   .     S
C15    C25     1.396   .     A
C15    C17     1.404   .     A
C16    F48     1.358   .     S
C16    C26     1.396   .     A
C16    C18     1.404   .     A
C17    C19     1.401   .     A
C18    C20     1.401   .     A
C19    H31     1.081   .     S
C19    C21     1.401   .     A
C20    C22     1.401   .     A
C20    H32     1.081   .     S
C21    C27     1.416   .     A
C21    C23     1.418   .     A
C22    C28     1.416   .     A
C22    C24     1.418   .     A
C23    C25     1.411   .     A
C23    C708    1.406   .     S
C24    C26     1.411   .     A
C24    C707    1.406   1_554 S
C25    C30     1.401   .     A
C26    C29     1.401   .     A
C27    C49     1.510   .     S
C27    C713    1.398   .     S
C28    C53     1.510   .     S
C28    C714    1.398   1_554 S
C29    H33     1.083   .     S
C29    C711    1.398   1_554 S
C30    H34     1.083   .     S
C30    C712    1.398   .     S
C35    F57     1.357   .     S
C35    C40     1.406   .     A
C35    C189    1.383   1_455 S
C36    F58     1.357   .     S
C36    C39     1.406   .     A
C36    C114    1.383   .     S
C37    F59     1.358   .     S
C37    C39     1.406   .     A
C37    C111    1.383   .     S
C38    F60     1.358   .     S
C38    C40     1.406   .     A
C38    C188    1.383   1_455 S
C41    N46     1.382   .     A
C41    C61     1.520   .     S
C41    C500    1.434   1_545 S
C42    C65     1.520   .     S
C42    N45     1.382   .     A
C42    C271    1.434   .     S
C43    C69     1.519   .     S
C43    N46     1.382   .     A
C43    C498    1.434   1_545 S
C44    N45     1.382   .     A
C44    C73     1.519   .     S
C44    C269    1.434   .     S
C49    H52     1.110   .     S
C49    H51     1.110   .     S
C49    H50     1.110   .     S
C53    H54     1.110   .     S
C53    H55     1.110   .     S
C53    H56     1.110   .     S
C61    H63     1.110   .     S
C61    H64     1.108   .     S
C61    H62     1.083   .     S
C65    H67     1.108   .     S
C65    H68     1.110   .     S
C65    H66     1.083   .     S
C69    H70     1.083   .     S
C69    H71     1.108   .     S
C69    H72     1.109   .     S
C73    H74     1.083   .     S
C73    H75     1.109   .     S
C73    H76     1.108   .     S
O77    C81     1.306   .     A
O77    Cu89    1.975   .     S
O78    C82     1.306   .     A
O78    Cu90    1.975   .     S
O79    C82     1.306   .     A
O79    Cu89    1.976   .     S
O80    C81     1.306   .     A
O80    Cu90    1.976   .     S
C81    C116    1.460   .     S
C82    C115    1.460   .     S
O83    C87     1.308   .     A
O83    Cu89    1.977   .     S
O84    C88     1.308   .     A
O84    Cu90    1.977   .     S
O85    Cu89    1.971   .     S
O85    C88     1.309   .     A
O86    Cu90    1.971   .     S
O86    C87     1.309   .     A
C87    C94     1.469   .     S
C88    C93     1.469   .     S
Cu89   N121    2.044   .     S
Cu89   Cu90    2.720   .     S
Cu90   N122    2.044   .     S
C91    F123    1.358   .     S
C91    C101    1.396   .     A
C91    C93     1.404   .     A
C92    F124    1.358   .     S
C92    C102    1.396   .     A
C92    C94     1.404   .     A
C93    C95     1.401   .     A
C94    C96     1.401   .     A
C95    H107    1.081   .     S
C95    C97     1.401   .     A
C96    C98     1.401   .     A
C96    H108    1.081   .     S
C97    C103    1.416   .     A
C97    C99     1.418   .     A
C98    C104    1.416   .     A
C98    C100    1.418   .     A
C99    C101    1.411   .     A
C99    C784    1.406   .     S
C100   C102    1.411   .     A
C100   C783    1.406   1_554 S
C101   C106    1.401   .     A
C102   C105    1.401   .     A
C103   C125    1.510   .     S
C103   C789    1.398   .     S
C104   C129    1.510   .     S
C104   C790    1.398   1_554 S
C105   H109    1.083   .     S
C105   C787    1.398   1_554 S
C106   H110    1.083   .     S
C106   C788    1.398   .     S
C111   F133    1.357   .     S
C111   C116    1.406   .     A
C112   F134    1.357   .     S
C112   C115    1.406   .     A
C112   C190    1.383   .     S
C113   F135    1.358   .     S
C113   C115    1.406   .     A
C113   C187    1.383   .     S
C114   F136    1.358   .     S
C114   C116    1.406   .     A
C117   N122    1.382   .     A
C117   C137    1.520   .     S
C117   C576    1.434   1_545 S
C118   C141    1.520   .     S
C118   N121    1.382   .     A
C118   C347    1.434   .     S
C119   C145    1.519   .     S
C119   N122    1.382   .     A
C119   C574    1.434   1_545 S
C120   N121    1.382   .     A
C120   C149    1.519   .     S
C120   C345    1.434   .     S
C125   H128    1.110   .     S
C125   H127    1.110   .     S
C125   H126    1.110   .     S
C129   H130    1.110   .     S
C129   H131    1.110   .     S
C129   H132    1.110   .     S
C137   H139    1.110   .     S
C137   H140    1.108   .     S
C137   H138    1.083   .     S
C141   H143    1.108   .     S
C141   H144    1.110   .     S
C141   H142    1.083   .     S
C145   H146    1.083   .     S
C145   H147    1.108   .     S
C145   H148    1.109   .     S
C149   H150    1.083   .     S
C149   H151    1.109   .     S
C149   H152    1.108   .     S
O153   C157    1.306   .     A
O153   Cu165   1.975   .     S
O154   C158    1.306   .     A
O154   Cu166   1.975   .     S
O155   C158    1.306   .     A
O155   Cu165   1.976   .     S
O156   C157    1.306   .     A
O156   Cu166   1.976   .     S
C157   C192    1.460   .     S
C158   C191    1.460   .     S
O159   C163    1.308   .     A
O159   Cu165   1.977   .     S
O160   C164    1.308   .     A
O160   Cu166   1.977   .     S
O161   Cu165   1.971   .     S
O161   C164    1.309   .     A
O162   Cu166   1.971   .     S
O162   C163    1.309   .     A
C163   C170    1.469   .     S
C164   C169    1.469   .     S
Cu165  N197    2.044   .     S
Cu165  Cu166   2.720   .     S
Cu166  N198    2.044   .     S
C167   F199    1.358   .     S
C167   C177    1.396   .     A
C167   C169    1.404   .     A
C168   F200    1.358   .     S
C168   C178    1.396   .     A
C168   C170    1.404   .     A
C169   C171    1.401   .     A
C170   C172    1.401   .     A
C171   H183    1.081   .     S
C171   C173    1.401   .     A
C172   C174    1.401   .     A
C172   H184    1.081   .     S
C173   C179    1.416   .     A
C173   C175    1.418   .     A
C174   C180    1.416   .     A
C174   C176    1.418   .     A
C175   C177    1.411   .     A
C175   C860    1.406   .     S
C176   C178    1.411   .     A
C176   C859    1.406   1_554 S
C177   C182    1.401   .     A
C178   C181    1.401   .     A
C179   C201    1.510   .     S
C179   C865    1.398   .     S
C180   C205    1.510   .     S
C180   C866    1.398   1_554 S
C181   H185    1.083   .     S
C181   C863    1.398   1_554 S
C182   H186    1.083   .     S
C182   C864    1.398   .     S
C187   F209    1.357   .     S
C187   C192    1.406   .     A
C188   F210    1.357   .     S
C188   C191    1.406   .     A
C188   C38     1.383   1_655 S
C189   F211    1.358   .     S
C189   C191    1.406   .     A
C189   C35     1.383   1_655 S
C190   F212    1.358   .     S
C190   C192    1.406   .     A
C193   N198    1.382   .     A
C193   C213    1.520   .     S
C193   C652    1.434   1_545 S
C194   C217    1.520   .     S
C194   N197    1.382   .     A
C194   C423    1.434   .     S
C195   C221    1.519   .     S
C195   N198    1.382   .     A
C195   C650    1.434   1_545 S
C196   N197    1.382   .     A
C196   C225    1.519   .     S
C196   C421    1.434   .     S
C201   H204    1.110   .     S
C201   H203    1.110   .     S
C201   H202    1.110   .     S
C205   H206    1.110   .     S
C205   H207    1.110   .     S
C205   H208    1.110   .     S
C213   H215    1.110   .     S
C213   H216    1.108   .     S
C213   H214    1.083   .     S
C217   H219    1.108   .     S
C217   H220    1.110   .     S
C217   H218    1.083   .     S
C221   H222    1.083   .     S
C221   H223    1.108   .     S
C221   H224    1.109   .     S
C225   H226    1.083   .     S
C225   H227    1.109   .     S
C225   H228    1.108   .     S
O229   C233    1.306   .     A
O229   Cu241   1.975   .     S
O230   C234    1.306   .     A
O230   Cu242   1.975   .     S
O231   C234    1.306   .     A
O231   Cu241   1.976   .     S
O232   C233    1.306   .     A
O232   Cu242   1.976   .     S
C233   C268    1.460   .     S
C234   C267    1.460   .     S
O235   C239    1.308   .     A
O235   Cu241   1.977   .     S
O236   C240    1.308   .     A
O236   Cu242   1.977   .     S
O237   Cu241   1.971   .     S
O237   C240    1.309   .     A
O238   Cu242   1.971   .     S
O238   C239    1.309   .     A
C239   C246    1.469   .     S
C240   C245    1.469   .     S
Cu241  N273    2.044   .     S
Cu241  Cu242   2.720   .     S
Cu242  N274    2.044   .     S
C243   F275    1.358   .     S
C243   C253    1.396   .     A
C243   C245    1.404   .     A
C244   F276    1.358   .     S
C244   C254    1.396   .     A
C244   C246    1.404   .     A
C245   C247    1.401   .     A
C246   C248    1.401   .     A
C247   H259    1.081   .     S
C247   C249    1.401   .     A
C248   C250    1.401   .     A
C248   H260    1.081   .     S
C249   C255    1.416   .     A
C249   C251    1.418   .     A
C250   C256    1.416   .     A
C250   C252    1.418   .     A
C251   C253    1.411   .     A
C251   C936    1.406   .     S
C252   C254    1.411   .     A
C252   C935    1.406   1_554 S
C253   C258    1.401   .     A
C254   C257    1.401   .     A
C255   C277    1.510   .     S
C255   C941    1.398   .     S
C256   C281    1.510   .     S
C256   C942    1.398   1_554 S
C257   H261    1.083   .     S
C257   C939    1.398   1_554 S
C258   H262    1.083   .     S
C258   C940    1.398   .     S
C263   F285    1.357   .     S
C263   C268    1.406   .     A
C263   C417    1.383   1_455 S
C264   F286    1.357   .     S
C264   C267    1.406   .     A
C264   C342    1.383   .     S
C265   F287    1.358   .     S
C265   C267    1.406   .     A
C265   C339    1.383   .     S
C266   F288    1.358   .     S
C266   C268    1.406   .     A
C266   C416    1.383   1_455 S
C269   N274    1.382   .     A
C269   C289    1.520   .     S
C270   C293    1.520   .     S
C270   N273    1.382   .     A
C270   C499    1.434   .     S
C271   C297    1.519   .     S
C271   N274    1.382   .     A
C272   N273    1.382   .     A
C272   C301    1.519   .     S
C272   C497    1.434   .     S
C277   H280    1.110   .     S
C277   H279    1.110   .     S
C277   H278    1.110   .     S
C281   H282    1.110   .     S
C281   H283    1.110   .     S
C281   H284    1.110   .     S
C289   H291    1.110   .     S
C289   H292    1.108   .     S
C289   H290    1.083   .     S
C293   H295    1.108   .     S
C293   H296    1.110   .     S
C293   H294    1.083   .     S
C297   H298    1.083   .     S
C297   H299    1.108   .     S
C297   H300    1.109   .     S
C301   H302    1.083   .     S
C301   H303    1.109   .     S
C301   H304    1.108   .     S
O305   C309    1.306   .     A
O305   Cu317   1.975   .     S
O306   C310    1.306   .     A
O306   Cu318   1.975   .     S
O307   C310    1.306   .     A
O307   Cu317   1.976   .     S
O308   C309    1.306   .     A
O308   Cu318   1.976   .     S
C309   C344    1.460   .     S
C310   C343    1.460   .     S
O311   C315    1.308   .     A
O311   Cu317   1.977   .     S
O312   C316    1.308   .     A
O312   Cu318   1.977   .     S
O313   Cu317   1.971   .     S
O313   C316    1.309   .     A
O314   Cu318   1.971   .     S
O314   C315    1.309   .     A
C315   C322    1.469   .     S
C316   C321    1.469   .     S
Cu317  N349    2.044   .     S
Cu317  Cu318   2.720   .     S
Cu318  N350    2.044   .     S
C319   F351    1.358   .     S
C319   C329    1.396   .     A
C319   C321    1.404   .     A
C320   F352    1.358   .     S
C320   C330    1.396   .     A
C320   C322    1.404   .     A
C321   C323    1.401   .     A
C322   C324    1.401   .     A
C323   H335    1.081   .     S
C323   C325    1.401   .     A
C324   C326    1.401   .     A
C324   H336    1.081   .     S
C325   C331    1.416   .     A
C325   C327    1.418   .     A
C326   C332    1.416   .     A
C326   C328    1.418   .     A
C327   C329    1.411   .     A
C327   C1012   1.406   .     S
C328   C330    1.411   .     A
C328   C1011   1.406   1_554 S
C329   C334    1.401   .     A
C330   C333    1.401   .     A
C331   C353    1.510   .     S
C331   C1017   1.398   .     S
C332   C357    1.510   .     S
C332   C1018   1.398   1_554 S
C333   H337    1.083   .     S
C333   C1015   1.398   1_554 S
C334   H338    1.083   .     S
C334   C1016   1.398   .     S
C339   F361    1.357   .     S
C339   C344    1.406   .     A
C340   F362    1.357   .     S
C340   C343    1.406   .     A
C340   C418    1.383   .     S
C341   F363    1.358   .     S
C341   C343    1.406   .     A
C341   C415    1.383   .     S
C342   F364    1.358   .     S
C342   C344    1.406   .     A
C345   N350    1.382   .     A
C345   C365    1.520   .     S
C346   C369    1.520   .     S
C346   N349    1.382   .     A
C346   C575    1.434   .     S
C347   C373    1.519   .     S
C347   N350    1.382   .     A
C348   N349    1.382   .     A
C348   C377    1.519   .     S
C348   C573    1.434   .     S
C353   H356    1.110   .     S
C353   H355    1.110   .     S
C353   H354    1.110   .     S
C357   H358    1.110   .     S
C357   H359    1.110   .     S
C357   H360    1.110   .     S
C365   H367    1.110   .     S
C365   H368    1.108   .     S
C365   H366    1.083   .     S
C369   H371    1.108   .     S
C369   H372    1.110   .     S
C369   H370    1.083   .     S
C373   H374    1.083   .     S
C373   H375    1.108   .     S
C373   H376    1.109   .     S
C377   H378    1.083   .     S
C377   H379    1.109   .     S
C377   H380    1.108   .     S
O381   C385    1.306   .     A
O381   Cu393   1.975   .     S
O382   C386    1.306   .     A
O382   Cu394   1.975   .     S
O383   C386    1.306   .     A
O383   Cu393   1.976   .     S
O384   C385    1.306   .     A
O384   Cu394   1.976   .     S
C385   C420    1.460   .     S
C386   C419    1.460   .     S
O387   C391    1.308   .     A
O387   Cu393   1.977   .     S
O388   C392    1.308   .     A
O388   Cu394   1.977   .     S
O389   Cu393   1.971   .     S
O389   C392    1.309   .     A
O390   Cu394   1.971   .     S
O390   C391    1.309   .     A
C391   C398    1.469   .     S
C392   C397    1.469   .     S
Cu393  N425    2.044   .     S
Cu393  Cu394   2.720   .     S
Cu394  N426    2.044   .     S
C395   F427    1.358   .     S
C395   C405    1.396   .     A
C395   C397    1.404   .     A
C396   F428    1.358   .     S
C396   C406    1.396   .     A
C396   C398    1.404   .     A
C397   C399    1.401   .     A
C398   C400    1.401   .     A
C399   H411    1.081   .     S
C399   C401    1.401   .     A
C400   C402    1.401   .     A
C400   H412    1.081   .     S
C401   C407    1.416   .     A
C401   C403    1.418   .     A
C402   C408    1.416   .     A
C402   C404    1.418   .     A
C403   C405    1.411   .     A
C403   C1088   1.406   .     S
C404   C406    1.411   .     A
C404   C1087   1.406   1_554 S
C405   C410    1.401   .     A
C406   C409    1.401   .     A
C407   C429    1.510   .     S
C407   C1093   1.398   .     S
C408   C433    1.510   .     S
C408   C1094   1.398   1_554 S
C409   H413    1.083   .     S
C409   C1091   1.398   1_554 S
C410   H414    1.083   .     S
C410   C1092   1.398   .     S
C415   F437    1.357   .     S
C415   C420    1.406   .     A
C416   F438    1.357   .     S
C416   C419    1.406   .     A
C416   C266    1.383   1_655 S
C417   F439    1.358   .     S
C417   C419    1.406   .     A
C417   C263    1.383   1_655 S
C418   F440    1.358   .     S
C418   C420    1.406   .     A
C421   N426    1.382   .     A
C421   C441    1.520   .     S
C422   C445    1.520   .     S
C422   N425    1.382   .     A
C422   C651    1.434   .     S
C423   C449    1.519   .     S
C423   N426    1.382   .     A
C424   N425    1.382   .     A
C424   C453    1.519   .     S
C424   C649    1.434   .     S
C429   H432    1.110   .     S
C429   H431    1.110   .     S
C429   H430    1.110   .     S
C433   H434    1.110   .     S
C433   H435    1.110   .     S
C433   H436    1.110   .     S
C441   H443    1.110   .     S
C441   H444    1.108   .     S
C441   H442    1.083   .     S
C445   H447    1.108   .     S
C445   H448    1.110   .     S
C445   H446    1.083   .     S
C449   H450    1.083   .     S
C449   H451    1.108   .     S
C449   H452    1.109   .     S
C453   H454    1.083   .     S
C453   H455    1.109   .     S
C453   H456    1.108   .     S
O457   C461    1.306   .     A
O457   Cu469   1.975   .     S
O458   C462    1.306   .     A
O458   Cu470   1.975   .     S
O459   C462    1.306   .     A
O459   Cu469   1.976   .     S
O460   C461    1.306   .     A
O460   Cu470   1.976   .     S
C461   C496    1.460   .     S
C462   C495    1.460   .     S
O463   C467    1.308   .     A
O463   Cu469   1.977   .     S
O464   C468    1.308   .     A
O464   Cu470   1.977   .     S
O465   Cu469   1.971   .     S
O465   C468    1.309   .     A
O466   Cu470   1.971   .     S
O466   C467    1.309   .     A
C467   C474    1.469   .     S
C468   C473    1.469   .     S
Cu469  N501    2.044   .     S
Cu469  Cu470   2.720   .     S
Cu470  N502    2.044   .     S
C471   F503    1.358   .     S
C471   C481    1.396   .     A
C471   C473    1.404   .     A
C472   F504    1.358   .     S
C472   C482    1.396   .     A
C472   C474    1.404   .     A
C473   C475    1.401   .     A
C474   C476    1.401   .     A
C475   H487    1.081   .     S
C475   C477    1.401   .     A
C476   C478    1.401   .     A
C476   H488    1.081   .     S
C477   C483    1.416   .     A
C477   C479    1.418   .     A
C478   C484    1.416   .     A
C478   C480    1.418   .     A
C479   C481    1.411   .     A
C479   C1164   1.406   .     S
C480   C482    1.411   .     A
C480   C1163   1.406   1_554 S
C481   C486    1.401   .     A
C482   C485    1.401   .     A
C483   C505    1.510   .     S
C483   C1169   1.398   .     S
C484   C509    1.510   .     S
C484   C1170   1.398   1_554 S
C485   H489    1.083   .     S
C485   C1167   1.398   1_554 S
C486   H490    1.083   .     S
C486   C1168   1.398   .     S
C491   F513    1.357   .     S
C491   C496    1.406   .     A
C491   C645    1.383   1_455 S
C492   F514    1.357   .     S
C492   C495    1.406   .     A
C492   C570    1.383   .     S
C493   F515    1.358   .     S
C493   C495    1.406   .     A
C493   C567    1.383   .     S
C494   F516    1.358   .     S
C494   C496    1.406   .     A
C494   C644    1.383   1_455 S
C497   N502    1.382   .     A
C497   C517    1.520   .     S
C498   C521    1.520   .     S
C498   N501    1.382   .     A
C498   C43     1.434   1_565 S
C499   C525    1.519   .     S
C499   N502    1.382   .     A
C500   N501    1.382   .     A
C500   C529    1.519   .     S
C500   C41     1.434   1_565 S
C505   H508    1.110   .     S
C505   H507    1.110   .     S
C505   H506    1.110   .     S
C509   H510    1.110   .     S
C509   H511    1.110   .     S
C509   H512    1.110   .     S
C517   H519    1.110   .     S
C517   H520    1.108   .     S
C517   H518    1.083   .     S
C521   H523    1.108   .     S
C521   H524    1.110   .     S
C521   H522    1.083   .     S
C525   H526    1.083   .     S
C525   H527    1.108   .     S
C525   H528    1.109   .     S
C529   H530    1.083   .     S
C529   H531    1.109   .     S
C529   H532    1.108   .     S
O533   C537    1.306   .     A
O533   Cu545   1.975   .     S
O534   C538    1.306   .     A
O534   Cu546   1.975   .     S
O535   C538    1.306   .     A
O535   Cu545   1.976   .     S
O536   C537    1.306   .     A
O536   Cu546   1.976   .     S
C537   C572    1.460   .     S
C538   C571    1.460   .     S
O539   C543    1.308   .     A
O539   Cu545   1.977   .     S
O540   C544    1.308   .     A
O540   Cu546   1.977   .     S
O541   Cu545   1.971   .     S
O541   C544    1.309   .     A
O542   Cu546   1.971   .     S
O542   C543    1.309   .     A
C543   C550    1.469   .     S
C544   C549    1.469   .     S
Cu545  N577    2.044   .     S
Cu545  Cu546   2.720   .     S
Cu546  N578    2.044   .     S
C547   F579    1.358   .     S
C547   C557    1.396   .     A
C547   C549    1.404   .     A
C548   F580    1.358   .     S
C548   C558    1.396   .     A
C548   C550    1.404   .     A
C549   C551    1.401   .     A
C550   C552    1.401   .     A
C551   H563    1.081   .     S
C551   C553    1.401   .     A
C552   C554    1.401   .     A
C552   H564    1.081   .     S
C553   C559    1.416   .     A
C553   C555    1.418   .     A
C554   C560    1.416   .     A
C554   C556    1.418   .     A
C555   C557    1.411   .     A
C555   C1240   1.406   .     S
C556   C558    1.411   .     A
C556   C1239   1.406   1_554 S
C557   C562    1.401   .     A
C558   C561    1.401   .     A
C559   C581    1.510   .     S
C559   C1245   1.398   .     S
C560   C585    1.510   .     S
C560   C1246   1.398   1_554 S
C561   H565    1.083   .     S
C561   C1243   1.398   1_554 S
C562   H566    1.083   .     S
C562   C1244   1.398   .     S
C567   F589    1.357   .     S
C567   C572    1.406   .     A
C568   F590    1.357   .     S
C568   C571    1.406   .     A
C568   C646    1.383   .     S
C569   F591    1.358   .     S
C569   C571    1.406   .     A
C569   C643    1.383   .     S
C570   F592    1.358   .     S
C570   C572    1.406   .     A
C573   N578    1.382   .     A
C573   C593    1.520   .     S
C574   C597    1.520   .     S
C574   N577    1.382   .     A
C574   C119    1.434   1_565 S
C575   C601    1.519   .     S
C575   N578    1.382   .     A
C576   N577    1.382   .     A
C576   C605    1.519   .     S
C576   C117    1.434   1_565 S
C581   H584    1.110   .     S
C581   H583    1.110   .     S
C581   H582    1.110   .     S
C585   H586    1.110   .     S
C585   H587    1.110   .     S
C585   H588    1.110   .     S
C593   H595    1.110   .     S
C593   H596    1.108   .     S
C593   H594    1.083   .     S
C597   H599    1.108   .     S
C597   H600    1.110   .     S
C597   H598    1.083   .     S
C601   H602    1.083   .     S
C601   H603    1.108   .     S
C601   H604    1.109   .     S
C605   H606    1.083   .     S
C605   H607    1.109   .     S
C605   H608    1.108   .     S
O609   C613    1.306   .     A
O609   Cu621   1.975   .     S
O610   C614    1.306   .     A
O610   Cu622   1.975   .     S
O611   C614    1.306   .     A
O611   Cu621   1.976   .     S
O612   C613    1.306   .     A
O612   Cu622   1.976   .     S
C613   C648    1.460   .     S
C614   C647    1.460   .     S
O615   C619    1.308   .     A
O615   Cu621   1.977   .     S
O616   C620    1.308   .     A
O616   Cu622   1.977   .     S
O617   Cu621   1.971   .     S
O617   C620    1.309   .     A
O618   Cu622   1.971   .     S
O618   C619    1.309   .     A
C619   C626    1.469   .     S
C620   C625    1.469   .     S
Cu621  N653    2.044   .     S
Cu621  Cu622   2.720   .     S
Cu622  N654    2.044   .     S
C623   F655    1.358   .     S
C623   C633    1.396   .     A
C623   C625    1.404   .     A
C624   F656    1.358   .     S
C624   C634    1.396   .     A
C624   C626    1.404   .     A
C625   C627    1.401   .     A
C626   C628    1.401   .     A
C627   H639    1.081   .     S
C627   C629    1.401   .     A
C628   C630    1.401   .     A
C628   H640    1.081   .     S
C629   C635    1.416   .     A
C629   C631    1.418   .     A
C630   C636    1.416   .     A
C630   C632    1.418   .     A
C631   C633    1.411   .     A
C631   C1316   1.406   .     S
C632   C634    1.411   .     A
C632   C1315   1.406   1_554 S
C633   C638    1.401   .     A
C634   C637    1.401   .     A
C635   C657    1.510   .     S
C635   C1321   1.398   .     S
C636   C661    1.510   .     S
C636   C1322   1.398   1_554 S
C637   H641    1.083   .     S
C637   C1319   1.398   1_554 S
C638   H642    1.083   .     S
C638   C1320   1.398   .     S
C643   F665    1.357   .     S
C643   C648    1.406   .     A
C644   F666    1.357   .     S
C644   C647    1.406   .     A
C644   C494    1.383   1_655 S
C645   F667    1.358   .     S
C645   C647    1.406   .     A
C645   C491    1.383   1_655 S
C646   F668    1.358   .     S
C646   C648    1.406   .     A
C649   N654    1.382   .     A
C649   C669    1.520   .     S
C650   C673    1.520   .     S
C650   N653    1.382   .     A
C650   C195    1.434   1_565 S
C651   C677    1.519   .     S
C651   N654    1.382   .     A
C652   N653    1.382   .     A
C652   C681    1.519   .     S
C652   C193    1.434   1_565 S
C657   H660    1.110   .     S
C657   H659    1.110   .     S
C657   H658    1.110   .     S
C661   H662    1.110   .     S
C661   H663    1.110   .     S
C661   H664    1.110   .     S
C669   H671    1.110   .     S
C669   H672    1.108   .     S
C669   H670    1.083   .     S
C673   H675    1.108   .     S
C673   H676    1.110   .     S
C673   H674    1.083   .     S
C677   H678    1.083   .     S
C677   H679    1.108   .     S
C677   H680    1.109   .     S
C681   H682    1.083   .     S
C681   H683    1.109   .     S
C681   H684    1.108   .     S
O685   C689    1.306   .     A
O685   Cu697   1.975   .     S
O686   C690    1.306   .     A
O686   Cu698   1.975   .     S
O687   C690    1.306   .     A
O687   Cu697   1.976   .     S
O688   C689    1.306   .     A
O688   Cu698   1.976   .     S
C689   C724    1.460   .     S
C690   C723    1.460   .     S
O691   C695    1.308   .     A
O691   Cu697   1.977   .     S
O692   C696    1.308   .     A
O692   Cu698   1.977   .     S
O693   Cu697   1.971   .     S
O693   C696    1.309   .     A
O694   Cu698   1.971   .     S
O694   C695    1.309   .     A
C695   C702    1.469   .     S
C696   C701    1.469   .     S
Cu697  N729    2.044   .     S
Cu697  Cu698   2.720   .     S
Cu698  N730    2.044   .     S
C699   F731    1.358   .     S
C699   C709    1.396   .     A
C699   C701    1.404   .     A
C700   F732    1.358   .     S
C700   C710    1.396   .     A
C700   C702    1.404   .     A
C701   C703    1.401   .     A
C702   C704    1.401   .     A
C703   H715    1.081   .     S
C703   C705    1.401   .     A
C704   C706    1.401   .     A
C704   H716    1.081   .     S
C705   C711    1.416   .     A
C705   C707    1.418   .     A
C706   C712    1.416   .     A
C706   C708    1.418   .     A
C707   C709    1.411   .     A
C707   C24     1.406   1_556 S
C708   C710    1.411   .     A
C709   C714    1.401   .     A
C710   C713    1.401   .     A
C711   C733    1.510   .     S
C711   C29     1.398   1_556 S
C712   C737    1.510   .     S
C713   H717    1.083   .     S
C714   H718    1.083   .     S
C714   C28     1.398   1_556 S
C719   F741    1.357   .     S
C719   C724    1.406   .     A
C719   C873    1.383   1_455 S
C720   F742    1.357   .     S
C720   C723    1.406   .     A
C720   C798    1.383   .     S
C721   F743    1.358   .     S
C721   C723    1.406   .     A
C721   C795    1.383   .     S
C722   F744    1.358   .     S
C722   C724    1.406   .     A
C722   C872    1.383   1_455 S
C725   N730    1.382   .     A
C725   C745    1.520   .     S
C725   C1184   1.434   1_545 S
C726   C749    1.520   .     S
C726   N729    1.382   .     A
C726   C955    1.434   .     S
C727   C753    1.519   .     S
C727   N730    1.382   .     A
C727   C1182   1.434   1_545 S
C728   N729    1.382   .     A
C728   C757    1.519   .     S
C728   C953    1.434   .     S
C733   H736    1.110   .     S
C733   H735    1.110   .     S
C733   H734    1.110   .     S
C737   H738    1.110   .     S
C737   H739    1.110   .     S
C737   H740    1.110   .     S
C745   H747    1.110   .     S
C745   H748    1.108   .     S
C745   H746    1.083   .     S
C749   H751    1.108   .     S
C749   H752    1.110   .     S
C749   H750    1.083   .     S
C753   H754    1.083   .     S
C753   H755    1.108   .     S
C753   H756    1.109   .     S
C757   H758    1.083   .     S
C757   H759    1.109   .     S
C757   H760    1.108   .     S
O761   C765    1.306   .     A
O761   Cu773   1.975   .     S
O762   C766    1.306   .     A
O762   Cu774   1.975   .     S
O763   C766    1.306   .     A
O763   Cu773   1.976   .     S
O764   C765    1.306   .     A
O764   Cu774   1.976   .     S
C765   C800    1.460   .     S
C766   C799    1.460   .     S
O767   C771    1.308   .     A
O767   Cu773   1.977   .     S
O768   C772    1.308   .     A
O768   Cu774   1.977   .     S
O769   Cu773   1.971   .     S
O769   C772    1.309   .     A
O770   Cu774   1.971   .     S
O770   C771    1.309   .     A
C771   C778    1.469   .     S
C772   C777    1.469   .     S
Cu773  N805    2.044   .     S
Cu773  Cu774   2.720   .     S
Cu774  N806    2.044   .     S
C775   F807    1.358   .     S
C775   C785    1.396   .     A
C775   C777    1.404   .     A
C776   F808    1.358   .     S
C776   C786    1.396   .     A
C776   C778    1.404   .     A
C777   C779    1.401   .     A
C778   C780    1.401   .     A
C779   H791    1.081   .     S
C779   C781    1.401   .     A
C780   C782    1.401   .     A
C780   H792    1.081   .     S
C781   C787    1.416   .     A
C781   C783    1.418   .     A
C782   C788    1.416   .     A
C782   C784    1.418   .     A
C783   C785    1.411   .     A
C783   C100    1.406   1_556 S
C784   C786    1.411   .     A
C785   C790    1.401   .     A
C786   C789    1.401   .     A
C787   C809    1.510   .     S
C787   C105    1.398   1_556 S
C788   C813    1.510   .     S
C789   H793    1.083   .     S
C790   H794    1.083   .     S
C790   C104    1.398   1_556 S
C795   F817    1.357   .     S
C795   C800    1.406   .     A
C796   F818    1.357   .     S
C796   C799    1.406   .     A
C796   C874    1.383   .     S
C797   F819    1.358   .     S
C797   C799    1.406   .     A
C797   C871    1.383   .     S
C798   F820    1.358   .     S
C798   C800    1.406   .     A
C801   N806    1.382   .     A
C801   C821    1.520   .     S
C801   C1260   1.434   1_545 S
C802   C825    1.520   .     S
C802   N805    1.382   .     A
C802   C1031   1.434   .     S
C803   C829    1.519   .     S
C803   N806    1.382   .     A
C803   C1258   1.434   1_545 S
C804   N805    1.382   .     A
C804   C833    1.519   .     S
C804   C1029   1.434   .     S
C809   H812    1.110   .     S
C809   H811    1.110   .     S
C809   H810    1.110   .     S
C813   H814    1.110   .     S
C813   H815    1.110   .     S
C813   H816    1.110   .     S
C821   H823    1.110   .     S
C821   H824    1.108   .     S
C821   H822    1.083   .     S
C825   H827    1.108   .     S
C825   H828    1.110   .     S
C825   H826    1.083   .     S
C829   H830    1.083   .     S
C829   H831    1.108   .     S
C829   H832    1.109   .     S
C833   H834    1.083   .     S
C833   H835    1.109   .     S
C833   H836    1.108   .     S
O837   C841    1.306   .     A
O837   Cu849   1.975   .     S
O838   C842    1.306   .     A
O838   Cu850   1.975   .     S
O839   C842    1.306   .     A
O839   Cu849   1.976   .     S
O840   C841    1.306   .     A
O840   Cu850   1.976   .     S
C841   C876    1.460   .     S
C842   C875    1.460   .     S
O843   C847    1.308   .     A
O843   Cu849   1.977   .     S
O844   C848    1.308   .     A
O844   Cu850   1.977   .     S
O845   Cu849   1.971   .     S
O845   C848    1.309   .     A
O846   Cu850   1.971   .     S
O846   C847    1.309   .     A
C847   C854    1.469   .     S
C848   C853    1.469   .     S
Cu849  N881    2.044   .     S
Cu849  Cu850   2.720   .     S
Cu850  N882    2.044   .     S
C851   F883    1.358   .     S
C851   C861    1.396   .     A
C851   C853    1.404   .     A
C852   F884    1.358   .     S
C852   C862    1.396   .     A
C852   C854    1.404   .     A
C853   C855    1.401   .     A
C854   C856    1.401   .     A
C855   H867    1.081   .     S
C855   C857    1.401   .     A
C856   C858    1.401   .     A
C856   H868    1.081   .     S
C857   C863    1.416   .     A
C857   C859    1.418   .     A
C858   C864    1.416   .     A
C858   C860    1.418   .     A
C859   C861    1.411   .     A
C859   C176    1.406   1_556 S
C860   C862    1.411   .     A
C861   C866    1.401   .     A
C862   C865    1.401   .     A
C863   C885    1.510   .     S
C863   C181    1.398   1_556 S
C864   C889    1.510   .     S
C865   H869    1.083   .     S
C866   H870    1.083   .     S
C866   C180    1.398   1_556 S
C871   F893    1.357   .     S
C871   C876    1.406   .     A
C872   F894    1.357   .     S
C872   C875    1.406   .     A
C872   C722    1.383   1_655 S
C873   F895    1.358   .     S
C873   C875    1.406   .     A
C873   C719    1.383   1_655 S
C874   F896    1.358   .     S
C874   C876    1.406   .     A
C877   N882    1.382   .     A
C877   C897    1.520   .     S
C877   C1336   1.434   1_545 S
C878   C901    1.520   .     S
C878   N881    1.382   .     A
C878   C1107   1.434   .     S
C879   C905    1.519   .     S
C879   N882    1.382   .     A
C879   C1334   1.434   1_545 S
C880   N881    1.382   .     A
C880   C909    1.519   .     S
C880   C1105   1.434   .     S
C885   H888    1.110   .     S
C885   H887    1.110   .     S
C885   H886    1.110   .     S
C889   H890    1.110   .     S
C889   H891    1.110   .     S
C889   H892    1.110   .     S
C897   H899    1.110   .     S
C897   H900    1.108   .     S
C897   H898    1.083   .     S
C901   H903    1.108   .     S
C901   H904    1.110   .     S
C901   H902    1.083   .     S
C905   H906    1.083   .     S
C905   H907    1.108   .     S
C905   H908    1.109   .     S
C909   H910    1.083   .     S
C909   H911    1.109   .     S
C909   H912    1.108   .     S
O913   C917    1.306   .     A
O913   Cu925   1.975   .     S
O914   C918    1.306   .     A
O914   Cu926   1.975   .     S
O915   C918    1.306   .     A
O915   Cu925   1.976   .     S
O916   C917    1.306   .     A
O916   Cu926   1.976   .     S
C917   C952    1.460   .     S
C918   C951    1.460   .     S
O919   C923    1.308   .     A
O919   Cu925   1.977   .     S
O920   C924    1.308   .     A
O920   Cu926   1.977   .     S
O921   Cu925   1.971   .     S
O921   C924    1.309   .     A
O922   Cu926   1.971   .     S
O922   C923    1.309   .     A
C923   C930    1.469   .     S
C924   C929    1.469   .     S
Cu925  N957    2.044   .     S
Cu925  Cu926   2.720   .     S
Cu926  N958    2.044   .     S
C927   F959    1.358   .     S
C927   C937    1.396   .     A
C927   C929    1.404   .     A
C928   F960    1.358   .     S
C928   C938    1.396   .     A
C928   C930    1.404   .     A
C929   C931    1.401   .     A
C930   C932    1.401   .     A
C931   H943    1.081   .     S
C931   C933    1.401   .     A
C932   C934    1.401   .     A
C932   H944    1.081   .     S
C933   C939    1.416   .     A
C933   C935    1.418   .     A
C934   C940    1.416   .     A
C934   C936    1.418   .     A
C935   C937    1.411   .     A
C935   C252    1.406   1_556 S
C936   C938    1.411   .     A
C937   C942    1.401   .     A
C938   C941    1.401   .     A
C939   C961    1.510   .     S
C939   C257    1.398   1_556 S
C940   C965    1.510   .     S
C941   H945    1.083   .     S
C942   H946    1.083   .     S
C942   C256    1.398   1_556 S
C947   F969    1.357   .     S
C947   C952    1.406   .     A
C947   C1101   1.383   1_455 S
C948   F970    1.357   .     S
C948   C951    1.406   .     A
C948   C1026   1.383   .     S
C949   F971    1.358   .     S
C949   C951    1.406   .     A
C949   C1023   1.383   .     S
C950   F972    1.358   .     S
C950   C952    1.406   .     A
C950   C1100   1.383   1_455 S
C953   N958    1.382   .     A
C953   C973    1.520   .     S
C954   C977    1.520   .     S
C954   N957    1.382   .     A
C954   C1183   1.434   .     S
C955   C981    1.519   .     S
C955   N958    1.382   .     A
C956   N957    1.382   .     A
C956   C985    1.519   .     S
C956   C1181   1.434   .     S
C961   H964    1.110   .     S
C961   H963    1.110   .     S
C961   H962    1.110   .     S
C965   H966    1.110   .     S
C965   H967    1.110   .     S
C965   H968    1.110   .     S
C973   H975    1.110   .     S
C973   H976    1.108   .     S
C973   H974    1.083   .     S
C977   H979    1.108   .     S
C977   H980    1.110   .     S
C977   H978    1.083   .     S
C981   H982    1.083   .     S
C981   H983    1.108   .     S
C981   H984    1.109   .     S
C985   H986    1.083   .     S
C985   H987    1.109   .     S
C985   H988    1.108   .     S
O989   C993    1.306   .     A
O989   Cu1001  1.975   .     S
O990   C994    1.306   .     A
O990   Cu1002  1.975   .     S
O991   C994    1.306   .     A
O991   Cu1001  1.976   .     S
O992   C993    1.306   .     A
O992   Cu1002  1.976   .     S
C993   C1028   1.460   .     S
C994   C1027   1.460   .     S
O995   C999    1.308   .     A
O995   Cu1001  1.977   .     S
O996   C1000   1.308   .     A
O996   Cu1002  1.977   .     S
O997   Cu1001  1.971   .     S
O997   C1000   1.309   .     A
O998   Cu1002  1.971   .     S
O998   C999    1.309   .     A
C999   C1006   1.469   .     S
C1000  C1005   1.469   .     S
Cu1001 N1033   2.044   .     S
Cu1001 Cu1002  2.720   .     S
Cu1002 N1034   2.044   .     S
C1003  F1035   1.358   .     S
C1003  C1013   1.396   .     A
C1003  C1005   1.404   .     A
C1004  F1036   1.358   .     S
C1004  C1014   1.396   .     A
C1004  C1006   1.404   .     A
C1005  C1007   1.401   .     A
C1006  C1008   1.401   .     A
C1007  H1019   1.081   .     S
C1007  C1009   1.401   .     A
C1008  C1010   1.401   .     A
C1008  H1020   1.081   .     S
C1009  C1015   1.416   .     A
C1009  C1011   1.418   .     A
C1010  C1016   1.416   .     A
C1010  C1012   1.418   .     A
C1011  C1013   1.411   .     A
C1011  C328    1.406   1_556 S
C1012  C1014   1.411   .     A
C1013  C1018   1.401   .     A
C1014  C1017   1.401   .     A
C1015  C1037   1.510   .     S
C1015  C333    1.398   1_556 S
C1016  C1041   1.510   .     S
C1017  H1021   1.083   .     S
C1018  H1022   1.083   .     S
C1018  C332    1.398   1_556 S
C1023  F1045   1.357   .     S
C1023  C1028   1.406   .     A
C1024  F1046   1.357   .     S
C1024  C1027   1.406   .     A
C1024  C1102   1.383   .     S
C1025  F1047   1.358   .     S
C1025  C1027   1.406   .     A
C1025  C1099   1.383   .     S
C1026  F1048   1.358   .     S
C1026  C1028   1.406   .     A
C1029  N1034   1.382   .     A
C1029  C1049   1.520   .     S
C1030  C1053   1.520   .     S
C1030  N1033   1.382   .     A
C1030  C1259   1.434   .     S
C1031  C1057   1.519   .     S
C1031  N1034   1.382   .     A
C1032  N1033   1.382   .     A
C1032  C1061   1.519   .     S
C1032  C1257   1.434   .     S
C1037  H1040   1.110   .     S
C1037  H1039   1.110   .     S
C1037  H1038   1.110   .     S
C1041  H1042   1.110   .     S
C1041  H1043   1.110   .     S
C1041  H1044   1.110   .     S
C1049  H1051   1.110   .     S
C1049  H1052   1.108   .     S
C1049  H1050   1.083   .     S
C1053  H1055   1.108   .     S
C1053  H1056   1.110   .     S
C1053  H1054   1.083   .     S
C1057  H1058   1.083   .     S
C1057  H1059   1.108   .     S
C1057  H1060   1.109   .     S
C1061  H1062   1.083   .     S
C1061  H1063   1.109   .     S
C1061  H1064   1.108   .     S
O1065  C1069   1.306   .     A
O1065  Cu1077  1.975   .     S
O1066  C1070   1.306   .     A
O1066  Cu1078  1.975   .     S
O1067  C1070   1.306   .     A
O1067  Cu1077  1.976   .     S
O1068  C1069   1.306   .     A
O1068  Cu1078  1.976   .     S
C1069  C1104   1.460   .     S
C1070  C1103   1.460   .     S
O1071  C1075   1.308   .     A
O1071  Cu1077  1.977   .     S
O1072  C1076   1.308   .     A
O1072  Cu1078  1.977   .     S
O1073  Cu1077  1.971   .     S
O1073  C1076   1.309   .     A
O1074  Cu1078  1.971   .     S
O1074  C1075   1.309   .     A
C1075  C1082   1.469   .     S
C1076  C1081   1.469   .     S
Cu1077 N1109   2.044   .     S
Cu1077 Cu1078  2.720   .     S
Cu1078 N1110   2.044   .     S
C1079  F1111   1.358   .     S
C1079  C1089   1.396   .     A
C1079  C1081   1.404   .     A
C1080  F1112   1.358   .     S
C1080  C1090   1.396   .     A
C1080  C1082   1.404   .     A
C1081  C1083   1.401   .     A
C1082  C1084   1.401   .     A
C1083  H1095   1.081   .     S
C1083  C1085   1.401   .     A
C1084  C1086   1.401   .     A
C1084  H1096   1.081   .     S
C1085  C1091   1.416   .     A
C1085  C1087   1.418   .     A
C1086  C1092   1.416   .     A
C1086  C1088   1.418   .     A
C1087  C1089   1.411   .     A
C1087  C404    1.406   1_556 S
C1088  C1090   1.411   .     A
C1089  C1094   1.401   .     A
C1090  C1093   1.401   .     A
C1091  C1113   1.510   .     S
C1091  C409    1.398   1_556 S
C1092  C1117   1.510   .     S
C1093  H1097   1.083   .     S
C1094  H1098   1.083   .     S
C1094  C408    1.398   1_556 S
C1099  F1121   1.357   .     S
C1099  C1104   1.406   .     A
C1100  F1122   1.357   .     S
C1100  C1103   1.406   .     A
C1100  C950    1.383   1_655 S
C1101  F1123   1.358   .     S
C1101  C1103   1.406   .     A
C1101  C947    1.383   1_655 S
C1102  F1124   1.358   .     S
C1102  C1104   1.406   .     A
C1105  N1110   1.382   .     A
C1105  C1125   1.520   .     S
C1106  C1129   1.520   .     S
C1106  N1109   1.382   .     A
C1106  C1335   1.434   .     S
C1107  C1133   1.519   .     S
C1107  N1110   1.382   .     A
C1108  N1109   1.382   .     A
C1108  C1137   1.519   .     S
C1108  C1333   1.434   .     S
C1113  H1116   1.110   .     S
C1113  H1115   1.110   .     S
C1113  H1114   1.110   .     S
C1117  H1118   1.110   .     S
C1117  H1119   1.110   .     S
C1117  H1120   1.110   .     S
C1125  H1127   1.110   .     S
C1125  H1128   1.108   .     S
C1125  H1126   1.083   .     S
C1129  H1131   1.108   .     S
C1129  H1132   1.110   .     S
C1129  H1130   1.083   .     S
C1133  H1134   1.083   .     S
C1133  H1135   1.108   .     S
C1133  H1136   1.109   .     S
C1137  H1138   1.083   .     S
C1137  H1139   1.109   .     S
C1137  H1140   1.108   .     S
O1141  C1145   1.306   .     A
O1141  Cu1153  1.975   .     S
O1142  C1146   1.306   .     A
O1142  Cu1154  1.975   .     S
O1143  C1146   1.306   .     A
O1143  Cu1153  1.976   .     S
O1144  C1145   1.306   .     A
O1144  Cu1154  1.976   .     S
C1145  C1180   1.460   .     S
C1146  C1179   1.460   .     S
O1147  C1151   1.308   .     A
O1147  Cu1153  1.977   .     S
O1148  C1152   1.308   .     A
O1148  Cu1154  1.977   .     S
O1149  Cu1153  1.971   .     S
O1149  C1152   1.309   .     A
O1150  Cu1154  1.971   .     S
O1150  C1151   1.309   .     A
C1151  C1158   1.469   .     S
C1152  C1157   1.469   .     S
Cu1153 N1185   2.044   .     S
Cu1153 Cu1154  2.720   .     S
Cu1154 N1186   2.044   .     S
C1155  F1187   1.358   .     S
C1155  C1165   1.396   .     A
C1155  C1157   1.404   .     A
C1156  F1188   1.358   .     S
C1156  C1166   1.396   .     A
C1156  C1158   1.404   .     A
C1157  C1159   1.401   .     A
C1158  C1160   1.401   .     A
C1159  H1171   1.081   .     S
C1159  C1161   1.401   .     A
C1160  C1162   1.401   .     A
C1160  H1172   1.081   .     S
C1161  C1167   1.416   .     A
C1161  C1163   1.418   .     A
C1162  C1168   1.416   .     A
C1162  C1164   1.418   .     A
C1163  C1165   1.411   .     A
C1163  C480    1.406   1_556 S
C1164  C1166   1.411   .     A
C1165  C1170   1.401   .     A
C1166  C1169   1.401   .     A
C1167  C1189   1.510   .     S
C1167  C485    1.398   1_556 S
C1168  C1193   1.510   .     S
C1169  H1173   1.083   .     S
C1170  H1174   1.083   .     S
C1170  C484    1.398   1_556 S
C1175  F1197   1.357   .     S
C1175  C1180   1.406   .     A
C1175  C1329   1.383   1_455 S
C1176  F1198   1.357   .     S
C1176  C1179   1.406   .     A
C1176  C1254   1.383   .     S
C1177  F1199   1.358   .     S
C1177  C1179   1.406   .     A
C1177  C1251   1.383   .     S
C1178  F1200   1.358   .     S
C1178  C1180   1.406   .     A
C1178  C1328   1.383   1_455 S
C1181  N1186   1.382   .     A
C1181  C1201   1.520   .     S
C1182  C1205   1.520   .     S
C1182  N1185   1.382   .     A
C1182  C727    1.434   1_565 S
C1183  C1209   1.519   .     S
C1183  N1186   1.382   .     A
C1184  N1185   1.382   .     A
C1184  C1213   1.519   .     S
C1184  C725    1.434   1_565 S
C1189  H1192   1.110   .     S
C1189  H1191   1.110   .     S
C1189  H1190   1.110   .     S
C1193  H1194   1.110   .     S
C1193  H1195   1.110   .     S
C1193  H1196   1.110   .     S
C1201  H1203   1.110   .     S
C1201  H1204   1.108   .     S
C1201  H1202   1.083   .     S
C1205  H1207   1.108   .     S
C1205  H1208   1.110   .     S
C1205  H1206   1.083   .     S
C1209  H1210   1.083   .     S
C1209  H1211   1.108   .     S
C1209  H1212   1.109   .     S
C1213  H1214   1.083   .     S
C1213  H1215   1.109   .     S
C1213  H1216   1.108   .     S
O1217  C1221   1.306   .     A
O1217  Cu1229  1.975   .     S
O1218  C1222   1.306   .     A
O1218  Cu1230  1.975   .     S
O1219  C1222   1.306   .     A
O1219  Cu1229  1.976   .     S
O1220  C1221   1.306   .     A
O1220  Cu1230  1.976   .     S
C1221  C1256   1.460   .     S
C1222  C1255   1.460   .     S
O1223  C1227   1.308   .     A
O1223  Cu1229  1.977   .     S
O1224  C1228   1.308   .     A
O1224  Cu1230  1.977   .     S
O1225  Cu1229  1.971   .     S
O1225  C1228   1.309   .     A
O1226  Cu1230  1.971   .     S
O1226  C1227   1.309   .     A
C1227  C1234   1.469   .     S
C1228  C1233   1.469   .     S
Cu1229 N1261   2.044   .     S
Cu1229 Cu1230  2.720   .     S
Cu1230 N1262   2.044   .     S
C1231  F1263   1.358   .     S
C1231  C1241   1.396   .     A
C1231  C1233   1.404   .     A
C1232  F1264   1.358   .     S
C1232  C1242   1.396   .     A
C1232  C1234   1.404   .     A
C1233  C1235   1.401   .     A
C1234  C1236   1.401   .     A
C1235  H1247   1.081   .     S
C1235  C1237   1.401   .     A
C1236  C1238   1.401   .     A
C1236  H1248   1.081   .     S
C1237  C1243   1.416   .     A
C1237  C1239   1.418   .     A
C1238  C1244   1.416   .     A
C1238  C1240   1.418   .     A
C1239  C1241   1.411   .     A
C1239  C556    1.406   1_556 S
C1240  C1242   1.411   .     A
C1241  C1246   1.401   .     A
C1242  C1245   1.401   .     A
C1243  C1265   1.510   .     S
C1243  C561    1.398   1_556 S
C1244  C1269   1.510   .     S
C1245  H1249   1.083   .     S
C1246  H1250   1.083   .     S
C1246  C560    1.398   1_556 S
C1251  F1273   1.357   .     S
C1251  C1256   1.406   .     A
C1252  F1274   1.357   .     S
C1252  C1255   1.406   .     A
C1252  C1330   1.383   .     S
C1253  F1275   1.358   .     S
C1253  C1255   1.406   .     A
C1253  C1327   1.383   .     S
C1254  F1276   1.358   .     S
C1254  C1256   1.406   .     A
C1257  N1262   1.382   .     A
C1257  C1277   1.520   .     S
C1258  C1281   1.520   .     S
C1258  N1261   1.382   .     A
C1258  C803    1.434   1_565 S
C1259  C1285   1.519   .     S
C1259  N1262   1.382   .     A
C1260  N1261   1.382   .     A
C1260  C1289   1.519   .     S
C1260  C801    1.434   1_565 S
C1265  H1268   1.110   .     S
C1265  H1267   1.110   .     S
C1265  H1266   1.110   .     S
C1269  H1270   1.110   .     S
C1269  H1271   1.110   .     S
C1269  H1272   1.110   .     S
C1277  H1279   1.110   .     S
C1277  H1280   1.108   .     S
C1277  H1278   1.083   .     S
C1281  H1283   1.108   .     S
C1281  H1284   1.110   .     S
C1281  H1282   1.083   .     S
C1285  H1286   1.083   .     S
C1285  H1287   1.108   .     S
C1285  H1288   1.109   .     S
C1289  H1290   1.083   .     S
C1289  H1291   1.109   .     S
C1289  H1292   1.108   .     S
O1293  C1297   1.306   .     A
O1293  Cu1305  1.975   .     S
O1294  C1298   1.306   .     A
O1294  Cu1306  1.975   .     S
O1295  C1298   1.306   .     A
O1295  Cu1305  1.976   .     S
O1296  C1297   1.306   .     A
O1296  Cu1306  1.976   .     S
C1297  C1332   1.460   .     S
C1298  C1331   1.460   .     S
O1299  C1303   1.308   .     A
O1299  Cu1305  1.977   .     S
O1300  C1304   1.308   .     A
O1300  Cu1306  1.977   .     S
O1301  Cu1305  1.971   .     S
O1301  C1304   1.309   .     A
O1302  Cu1306  1.971   .     S
O1302  C1303   1.309   .     A
C1303  C1310   1.469   .     S
C1304  C1309   1.469   .     S
Cu1305 N1337   2.044   .     S
Cu1305 Cu1306  2.720   .     S
Cu1306 N1338   2.044   .     S
C1307  F1339   1.358   .     S
C1307  C1317   1.396   .     A
C1307  C1309   1.404   .     A
C1308  F1340   1.358   .     S
C1308  C1318   1.396   .     A
C1308  C1310   1.404   .     A
C1309  C1311   1.401   .     A
C1310  C1312   1.401   .     A
C1311  H1323   1.081   .     S
C1311  C1313   1.401   .     A
C1312  C1314   1.401   .     A
C1312  H1324   1.081   .     S
C1313  C1319   1.416   .     A
C1313  C1315   1.418   .     A
C1314  C1320   1.416   .     A
C1314  C1316   1.418   .     A
C1315  C1317   1.411   .     A
C1315  C632    1.406   1_556 S
C1316  C1318   1.411   .     A
C1317  C1322   1.401   .     A
C1318  C1321   1.401   .     A
C1319  C1341   1.510   .     S
C1319  C637    1.398   1_556 S
C1320  C1345   1.510   .     S
C1321  H1325   1.083   .     S
C1322  H1326   1.083   .     S
C1322  C636    1.398   1_556 S
C1327  F1349   1.357   .     S
C1327  C1332   1.406   .     A
C1328  F1350   1.357   .     S
C1328  C1331   1.406   .     A
C1328  C1178   1.383   1_655 S
C1329  F1351   1.358   .     S
C1329  C1331   1.406   .     A
C1329  C1175   1.383   1_655 S
C1330  F1352   1.358   .     S
C1330  C1332   1.406   .     A
C1333  N1338   1.382   .     A
C1333  C1353   1.520   .     S
C1334  C1357   1.520   .     S
C1334  N1337   1.382   .     A
C1334  C879    1.434   1_565 S
C1335  C1361   1.519   .     S
C1335  N1338   1.382   .     A
C1336  N1337   1.382   .     A
C1336  C1365   1.519   .     S
C1336  C877    1.434   1_565 S
C1341  H1344   1.110   .     S
C1341  H1343   1.110   .     S
C1341  H1342   1.110   .     S
C1345  H1346   1.110   .     S
C1345  H1347   1.110   .     S
C1345  H1348   1.110   .     S
C1353  H1355   1.110   .     S
C1353  H1356   1.108   .     S
C1353  H1354   1.083   .     S
C1357  H1359   1.108   .     S
C1357  H1360   1.110   .     S
C1357  H1358   1.083   .     S
C1361  H1362   1.083   .     S
C1361  H1363   1.108   .     S
C1361  H1364   1.109   .     S
C1365  H1366   1.083   .     S
C1365  H1367   1.109   .     S
C1365  H1368   1.108   .     S
