data_str_m2_o5_o17_pcu_sym.31
_audit_creation_date              2020-01-03
_audit_creation_method            'Materials Studio'
_symmetry_space_group_name_H-M    'P1'
_symmetry_Int_Tables_number       1
_symmetry_cell_setting            triclinic
loop_
_symmetry_equiv_pos_as_xyz
  x,y,z
_cell_length_a                    30.1902
_cell_length_b                    27.2430
_cell_length_c                    23.3850
_cell_angle_alpha                 89.8613
_cell_angle_beta                  90.0000
_cell_angle_gamma                 90.0000
loop_
_atom_site_label
_atom_site_type_symbol
_atom_site_fract_x
_atom_site_fract_y
_atom_site_fract_z
_atom_site_U_iso_or_equiv
_atom_site_adp_type
_atom_site_occupancy
O1     O     0.25000   0.09613   0.21425   0.00000  Uiso   1.00
O2     O     0.25000   0.23720   0.11908   0.00000  Uiso   1.00
O3     O     0.25000   0.23720   0.21425   0.00000  Uiso   1.00
O4     O     0.25000   0.09613   0.11908   0.00000  Uiso   1.00
H5     H     0.46048   0.05048   0.11428   0.00000  Uiso   1.00
H6     H     0.03952   0.28286   0.21905   0.00000  Uiso   1.00
H7     H     0.46048   0.28286   0.21905   0.00000  Uiso   1.00
H8     H     0.03952   0.05047   0.11428   0.00000  Uiso   1.00
C9     C     0.25000   0.07336   0.16671   0.00000  Uiso   1.00
C10    C     0.25000   0.25997   0.16662   0.00000  Uiso   1.00
O11    O     0.18513   0.16667   0.21427   0.00000  Uiso   1.00
O12    O     0.31487   0.16667   0.11907   0.00000  Uiso   1.00
O13    O     0.31487   0.16667   0.21427   0.00000  Uiso   1.00
O14    O     0.18513   0.16667   0.11907   0.00000  Uiso   1.00
C15    C     0.16441   0.16667   0.16667   0.00000  Uiso   1.00
C16    C     0.33559   0.16667   0.16667   0.00000  Uiso   1.00
Cu17   Cu    0.25000   0.16667   0.22303   0.00000  Uiso   1.00
Cu18   Cu    0.25000   0.16667   0.11031   0.00000  Uiso   1.00
N19    N     0.25000   0.16667   0.02561   0.00000  Uiso   1.00
N20    N     0.25000   0.16667   0.30773   0.00000  Uiso   1.00
C21    C     0.40662   0.20847   0.18588   0.00000  Uiso   1.00
C22    C     0.09338   0.12486   0.14745   0.00000  Uiso   1.00
C23    C     0.40662   0.12486   0.14745   0.00000  Uiso   1.00
C24    C     0.09338   0.20847   0.18588   0.00000  Uiso   1.00
C25    C     0.38378   0.16667   0.16667   0.00000  Uiso   1.00
C26    C     0.11622   0.16667   0.16667   0.00000  Uiso   1.00
C27    C     0.45321   0.12465   0.14754   0.00000  Uiso   1.00
C28    C     0.04679   0.20868   0.18579   0.00000  Uiso   1.00
C29    C     0.45321   0.20868   0.18579   0.00000  Uiso   1.00
C30    C     0.04679   0.12465   0.14754   0.00000  Uiso   1.00
C31    C     0.47656   0.16667   0.16667   0.00000  Uiso   1.00
C32    C     0.02344   0.16667   0.16667   0.00000  Uiso   1.00
C33    C     0.47705   0.08333   0.12903   0.00000  Uiso   1.00
C34    C     0.02295   0.25000   0.20430   0.00000  Uiso   1.00
C35    C     0.47705   0.25000   0.20430   0.00000  Uiso   1.00
C36    C     0.02295   0.08333   0.12903   0.00000  Uiso   1.00
C37    C     0.25000   0.02180   0.16673   0.00000  Uiso   1.00
C38    C     0.25000   0.31153   0.16661   0.00000  Uiso   1.00
C39    C     0.38184   0.25133   0.20448   0.00000  Uiso   1.00
N40    N     0.36208   0.28543   0.21925   0.00000  Uiso   1.00
C41    C     0.11816   0.08200   0.12886   0.00000  Uiso   1.00
N42    N     0.13792   0.04790   0.11410   0.00000  Uiso   1.00
C43    C     0.38184   0.08201   0.12886   0.00000  Uiso   1.00
N44    N     0.36208   0.04790   0.11409   0.00000  Uiso   1.00
C45    C     0.11816   0.25133   0.20447   0.00000  Uiso   1.00
N46    N     0.13792   0.28543   0.21924   0.00000  Uiso   1.00
O47    O     0.75000   0.09613   0.21425   0.00000  Uiso   1.00
O48    O     0.75000   0.23720   0.11908   0.00000  Uiso   1.00
O49    O     0.75000   0.23720   0.21425   0.00000  Uiso   1.00
O50    O     0.75000   0.09613   0.11908   0.00000  Uiso   1.00
H51    H     0.96048   0.05048   0.11428   0.00000  Uiso   1.00
H52    H     0.53952   0.28286   0.21905   0.00000  Uiso   1.00
H53    H     0.96048   0.28286   0.21905   0.00000  Uiso   1.00
H54    H     0.53952   0.05047   0.11428   0.00000  Uiso   1.00
C55    C     0.75000   0.07336   0.16671   0.00000  Uiso   1.00
C56    C     0.75000   0.25997   0.16662   0.00000  Uiso   1.00
O57    O     0.68513   0.16667   0.21427   0.00000  Uiso   1.00
O58    O     0.81487   0.16667   0.11907   0.00000  Uiso   1.00
O59    O     0.81487   0.16667   0.21427   0.00000  Uiso   1.00
O60    O     0.68513   0.16667   0.11907   0.00000  Uiso   1.00
C61    C     0.66441   0.16667   0.16667   0.00000  Uiso   1.00
C62    C     0.83559   0.16667   0.16667   0.00000  Uiso   1.00
Cu63   Cu    0.75000   0.16667   0.22303   0.00000  Uiso   1.00
Cu64   Cu    0.75000   0.16667   0.11031   0.00000  Uiso   1.00
N65    N     0.75000   0.16667   0.02561   0.00000  Uiso   1.00
N66    N     0.75000   0.16667   0.30773   0.00000  Uiso   1.00
C67    C     0.90662   0.20847   0.18588   0.00000  Uiso   1.00
C68    C     0.59338   0.12486   0.14745   0.00000  Uiso   1.00
C69    C     0.90662   0.12486   0.14745   0.00000  Uiso   1.00
C70    C     0.59338   0.20847   0.18588   0.00000  Uiso   1.00
C71    C     0.88378   0.16667   0.16667   0.00000  Uiso   1.00
C72    C     0.61622   0.16667   0.16667   0.00000  Uiso   1.00
C73    C     0.95321   0.12465   0.14754   0.00000  Uiso   1.00
C74    C     0.54679   0.20868   0.18579   0.00000  Uiso   1.00
C75    C     0.95321   0.20868   0.18579   0.00000  Uiso   1.00
C76    C     0.54679   0.12465   0.14754   0.00000  Uiso   1.00
C77    C     0.97656   0.16667   0.16667   0.00000  Uiso   1.00
C78    C     0.52344   0.16667   0.16667   0.00000  Uiso   1.00
C79    C     0.97705   0.08333   0.12903   0.00000  Uiso   1.00
C80    C     0.52295   0.25000   0.20430   0.00000  Uiso   1.00
C81    C     0.97705   0.25000   0.20430   0.00000  Uiso   1.00
C82    C     0.52295   0.08333   0.12903   0.00000  Uiso   1.00
C83    C     0.75000   0.02180   0.16673   0.00000  Uiso   1.00
C84    C     0.75000   0.31153   0.16661   0.00000  Uiso   1.00
C85    C     0.88184   0.25133   0.20448   0.00000  Uiso   1.00
N86    N     0.86208   0.28543   0.21925   0.00000  Uiso   1.00
C87    C     0.61816   0.08200   0.12886   0.00000  Uiso   1.00
N88    N     0.63792   0.04790   0.11410   0.00000  Uiso   1.00
C89    C     0.88184   0.08201   0.12886   0.00000  Uiso   1.00
N90    N     0.86208   0.04790   0.11409   0.00000  Uiso   1.00
C91    C     0.61816   0.25133   0.20447   0.00000  Uiso   1.00
N92    N     0.63792   0.28543   0.21924   0.00000  Uiso   1.00
O93    O     0.25000   0.42946   0.21425   0.00000  Uiso   1.00
O94    O     0.25000   0.57054   0.11908   0.00000  Uiso   1.00
O95    O     0.25000   0.57054   0.21425   0.00000  Uiso   1.00
O96    O     0.25000   0.42946   0.11908   0.00000  Uiso   1.00
H97    H     0.46048   0.38381   0.11428   0.00000  Uiso   1.00
H98    H     0.03952   0.61619   0.21905   0.00000  Uiso   1.00
H99    H     0.46048   0.61619   0.21905   0.00000  Uiso   1.00
H100   H     0.03952   0.38381   0.11428   0.00000  Uiso   1.00
C101   C     0.25000   0.40669   0.16671   0.00000  Uiso   1.00
C102   C     0.25000   0.59331   0.16662   0.00000  Uiso   1.00
O103   O     0.18513   0.50000   0.21427   0.00000  Uiso   1.00
O104   O     0.31487   0.50000   0.11907   0.00000  Uiso   1.00
O105   O     0.31487   0.50000   0.21427   0.00000  Uiso   1.00
O106   O     0.18513   0.50000   0.11907   0.00000  Uiso   1.00
C107   C     0.16441   0.50000   0.16667   0.00000  Uiso   1.00
C108   C     0.33559   0.50000   0.16667   0.00000  Uiso   1.00
Cu109  Cu    0.25000   0.50000   0.22303   0.00000  Uiso   1.00
Cu110  Cu    0.25000   0.50000   0.11031   0.00000  Uiso   1.00
N111   N     0.25000   0.50000   0.02561   0.00000  Uiso   1.00
N112   N     0.25000   0.50000   0.30773   0.00000  Uiso   1.00
C113   C     0.40662   0.54180   0.18588   0.00000  Uiso   1.00
C114   C     0.09338   0.45820   0.14745   0.00000  Uiso   1.00
C115   C     0.40662   0.45820   0.14745   0.00000  Uiso   1.00
C116   C     0.09338   0.54181   0.18588   0.00000  Uiso   1.00
C117   C     0.38378   0.50000   0.16667   0.00000  Uiso   1.00
C118   C     0.11622   0.50000   0.16667   0.00000  Uiso   1.00
C119   C     0.45321   0.45799   0.14754   0.00000  Uiso   1.00
C120   C     0.04679   0.54201   0.18579   0.00000  Uiso   1.00
C121   C     0.45321   0.54201   0.18579   0.00000  Uiso   1.00
C122   C     0.04679   0.45799   0.14754   0.00000  Uiso   1.00
C123   C     0.47656   0.50000   0.16667   0.00000  Uiso   1.00
C124   C     0.02344   0.50000   0.16667   0.00000  Uiso   1.00
C125   C     0.47705   0.41666   0.12903   0.00000  Uiso   1.00
C126   C     0.02295   0.58334   0.20430   0.00000  Uiso   1.00
C127   C     0.47705   0.58334   0.20430   0.00000  Uiso   1.00
C128   C     0.02295   0.41666   0.12903   0.00000  Uiso   1.00
C129   C     0.25000   0.35513   0.16673   0.00000  Uiso   1.00
C130   C     0.25000   0.64487   0.16661   0.00000  Uiso   1.00
C131   C     0.38184   0.58466   0.20448   0.00000  Uiso   1.00
N132   N     0.36208   0.61876   0.21925   0.00000  Uiso   1.00
C133   C     0.11816   0.41534   0.12886   0.00000  Uiso   1.00
N134   N     0.13792   0.38123   0.11410   0.00000  Uiso   1.00
C135   C     0.38184   0.41534   0.12886   0.00000  Uiso   1.00
N136   N     0.36208   0.38124   0.11409   0.00000  Uiso   1.00
C137   C     0.11816   0.58466   0.20447   0.00000  Uiso   1.00
N138   N     0.13792   0.61877   0.21924   0.00000  Uiso   1.00
O139   O     0.75000   0.42946   0.21425   0.00000  Uiso   1.00
O140   O     0.75000   0.57054   0.11908   0.00000  Uiso   1.00
O141   O     0.75000   0.57054   0.21425   0.00000  Uiso   1.00
O142   O     0.75000   0.42946   0.11908   0.00000  Uiso   1.00
H143   H     0.96048   0.38381   0.11428   0.00000  Uiso   1.00
H144   H     0.53952   0.61619   0.21905   0.00000  Uiso   1.00
H145   H     0.96048   0.61619   0.21905   0.00000  Uiso   1.00
H146   H     0.53952   0.38381   0.11428   0.00000  Uiso   1.00
C147   C     0.75000   0.40669   0.16671   0.00000  Uiso   1.00
C148   C     0.75000   0.59331   0.16662   0.00000  Uiso   1.00
O149   O     0.68513   0.50000   0.21427   0.00000  Uiso   1.00
O150   O     0.81487   0.50000   0.11907   0.00000  Uiso   1.00
O151   O     0.81487   0.50000   0.21427   0.00000  Uiso   1.00
O152   O     0.68513   0.50000   0.11907   0.00000  Uiso   1.00
C153   C     0.66441   0.50000   0.16667   0.00000  Uiso   1.00
C154   C     0.83559   0.50000   0.16667   0.00000  Uiso   1.00
Cu155  Cu    0.75000   0.50000   0.22303   0.00000  Uiso   1.00
Cu156  Cu    0.75000   0.50000   0.11031   0.00000  Uiso   1.00
N157   N     0.75000   0.50000   0.02561   0.00000  Uiso   1.00
N158   N     0.75000   0.50000   0.30773   0.00000  Uiso   1.00
C159   C     0.90662   0.54180   0.18588   0.00000  Uiso   1.00
C160   C     0.59338   0.45820   0.14745   0.00000  Uiso   1.00
C161   C     0.90662   0.45820   0.14745   0.00000  Uiso   1.00
C162   C     0.59338   0.54181   0.18588   0.00000  Uiso   1.00
C163   C     0.88378   0.50000   0.16667   0.00000  Uiso   1.00
C164   C     0.61622   0.50000   0.16667   0.00000  Uiso   1.00
C165   C     0.95321   0.45799   0.14754   0.00000  Uiso   1.00
C166   C     0.54679   0.54201   0.18579   0.00000  Uiso   1.00
C167   C     0.95321   0.54201   0.18579   0.00000  Uiso   1.00
C168   C     0.54679   0.45799   0.14754   0.00000  Uiso   1.00
C169   C     0.97656   0.50000   0.16667   0.00000  Uiso   1.00
C170   C     0.52344   0.50000   0.16667   0.00000  Uiso   1.00
C171   C     0.97705   0.41666   0.12903   0.00000  Uiso   1.00
C172   C     0.52295   0.58334   0.20430   0.00000  Uiso   1.00
C173   C     0.97705   0.58334   0.20430   0.00000  Uiso   1.00
C174   C     0.52295   0.41666   0.12903   0.00000  Uiso   1.00
C175   C     0.75000   0.35513   0.16673   0.00000  Uiso   1.00
C176   C     0.75000   0.64487   0.16661   0.00000  Uiso   1.00
C177   C     0.88184   0.58466   0.20448   0.00000  Uiso   1.00
N178   N     0.86208   0.61876   0.21925   0.00000  Uiso   1.00
C179   C     0.61816   0.41534   0.12886   0.00000  Uiso   1.00
N180   N     0.63792   0.38123   0.11410   0.00000  Uiso   1.00
C181   C     0.88184   0.41534   0.12886   0.00000  Uiso   1.00
N182   N     0.86208   0.38124   0.11409   0.00000  Uiso   1.00
C183   C     0.61816   0.58466   0.20447   0.00000  Uiso   1.00
N184   N     0.63792   0.61877   0.21924   0.00000  Uiso   1.00
O185   O     0.25000   0.76280   0.21425   0.00000  Uiso   1.00
O186   O     0.25000   0.90387   0.11908   0.00000  Uiso   1.00
O187   O     0.25000   0.90387   0.21425   0.00000  Uiso   1.00
O188   O     0.25000   0.76280   0.11908   0.00000  Uiso   1.00
H189   H     0.46048   0.71714   0.11428   0.00000  Uiso   1.00
H190   H     0.03952   0.94953   0.21905   0.00000  Uiso   1.00
H191   H     0.46048   0.94953   0.21905   0.00000  Uiso   1.00
H192   H     0.03952   0.71714   0.11428   0.00000  Uiso   1.00
C193   C     0.25000   0.74003   0.16671   0.00000  Uiso   1.00
C194   C     0.25000   0.92664   0.16662   0.00000  Uiso   1.00
O195   O     0.18513   0.83333   0.21427   0.00000  Uiso   1.00
O196   O     0.31487   0.83333   0.11907   0.00000  Uiso   1.00
O197   O     0.31487   0.83333   0.21427   0.00000  Uiso   1.00
O198   O     0.18513   0.83333   0.11907   0.00000  Uiso   1.00
C199   C     0.16441   0.83333   0.16667   0.00000  Uiso   1.00
C200   C     0.33559   0.83333   0.16667   0.00000  Uiso   1.00
Cu201  Cu    0.25000   0.83333   0.22303   0.00000  Uiso   1.00
Cu202  Cu    0.25000   0.83333   0.11031   0.00000  Uiso   1.00
N203   N     0.25000   0.83333   0.02561   0.00000  Uiso   1.00
N204   N     0.25000   0.83333   0.30773   0.00000  Uiso   1.00
C205   C     0.40662   0.87514   0.18588   0.00000  Uiso   1.00
C206   C     0.09338   0.79153   0.14745   0.00000  Uiso   1.00
C207   C     0.40662   0.79153   0.14745   0.00000  Uiso   1.00
C208   C     0.09338   0.87514   0.18588   0.00000  Uiso   1.00
C209   C     0.38378   0.83333   0.16667   0.00000  Uiso   1.00
C210   C     0.11622   0.83333   0.16667   0.00000  Uiso   1.00
C211   C     0.45321   0.79132   0.14754   0.00000  Uiso   1.00
C212   C     0.04679   0.87535   0.18579   0.00000  Uiso   1.00
C213   C     0.45321   0.87535   0.18579   0.00000  Uiso   1.00
C214   C     0.04679   0.79132   0.14754   0.00000  Uiso   1.00
C215   C     0.47656   0.83333   0.16667   0.00000  Uiso   1.00
C216   C     0.02344   0.83333   0.16667   0.00000  Uiso   1.00
C217   C     0.47705   0.75000   0.12903   0.00000  Uiso   1.00
C218   C     0.02295   0.91667   0.20430   0.00000  Uiso   1.00
C219   C     0.47705   0.91667   0.20430   0.00000  Uiso   1.00
C220   C     0.02295   0.75000   0.12903   0.00000  Uiso   1.00
C221   C     0.25000   0.68847   0.16673   0.00000  Uiso   1.00
C222   C     0.25000   0.97820   0.16661   0.00000  Uiso   1.00
C223   C     0.38184   0.91799   0.20448   0.00000  Uiso   1.00
N224   N     0.36208   0.95210   0.21925   0.00000  Uiso   1.00
C225   C     0.11816   0.74867   0.12886   0.00000  Uiso   1.00
N226   N     0.13792   0.71457   0.11410   0.00000  Uiso   1.00
C227   C     0.38184   0.74867   0.12886   0.00000  Uiso   1.00
N228   N     0.36208   0.71457   0.11409   0.00000  Uiso   1.00
C229   C     0.11816   0.91800   0.20447   0.00000  Uiso   1.00
N230   N     0.13792   0.95210   0.21924   0.00000  Uiso   1.00
O231   O     0.75000   0.76280   0.21425   0.00000  Uiso   1.00
O232   O     0.75000   0.90387   0.11908   0.00000  Uiso   1.00
O233   O     0.75000   0.90387   0.21425   0.00000  Uiso   1.00
O234   O     0.75000   0.76280   0.11908   0.00000  Uiso   1.00
H235   H     0.96048   0.71714   0.11428   0.00000  Uiso   1.00
H236   H     0.53952   0.94953   0.21905   0.00000  Uiso   1.00
H237   H     0.96048   0.94953   0.21905   0.00000  Uiso   1.00
H238   H     0.53952   0.71714   0.11428   0.00000  Uiso   1.00
C239   C     0.75000   0.74003   0.16671   0.00000  Uiso   1.00
C240   C     0.75000   0.92664   0.16662   0.00000  Uiso   1.00
O241   O     0.68513   0.83333   0.21427   0.00000  Uiso   1.00
O242   O     0.81487   0.83333   0.11907   0.00000  Uiso   1.00
O243   O     0.81487   0.83333   0.21427   0.00000  Uiso   1.00
O244   O     0.68513   0.83333   0.11907   0.00000  Uiso   1.00
C245   C     0.66441   0.83333   0.16667   0.00000  Uiso   1.00
C246   C     0.83559   0.83333   0.16667   0.00000  Uiso   1.00
Cu247  Cu    0.75000   0.83333   0.22303   0.00000  Uiso   1.00
Cu248  Cu    0.75000   0.83333   0.11031   0.00000  Uiso   1.00
N249   N     0.75000   0.83333   0.02561   0.00000  Uiso   1.00
N250   N     0.75000   0.83333   0.30773   0.00000  Uiso   1.00
C251   C     0.90662   0.87514   0.18588   0.00000  Uiso   1.00
C252   C     0.59338   0.79153   0.14745   0.00000  Uiso   1.00
C253   C     0.90662   0.79153   0.14745   0.00000  Uiso   1.00
C254   C     0.59338   0.87514   0.18588   0.00000  Uiso   1.00
C255   C     0.88378   0.83333   0.16667   0.00000  Uiso   1.00
C256   C     0.61622   0.83333   0.16667   0.00000  Uiso   1.00
C257   C     0.95321   0.79132   0.14754   0.00000  Uiso   1.00
C258   C     0.54679   0.87535   0.18579   0.00000  Uiso   1.00
C259   C     0.95321   0.87535   0.18579   0.00000  Uiso   1.00
C260   C     0.54679   0.79132   0.14754   0.00000  Uiso   1.00
C261   C     0.97656   0.83333   0.16667   0.00000  Uiso   1.00
C262   C     0.52344   0.83333   0.16667   0.00000  Uiso   1.00
C263   C     0.97705   0.75000   0.12903   0.00000  Uiso   1.00
C264   C     0.52295   0.91667   0.20430   0.00000  Uiso   1.00
C265   C     0.97705   0.91667   0.20430   0.00000  Uiso   1.00
C266   C     0.52295   0.75000   0.12903   0.00000  Uiso   1.00
C267   C     0.75000   0.68847   0.16673   0.00000  Uiso   1.00
C268   C     0.75000   0.97820   0.16661   0.00000  Uiso   1.00
C269   C     0.88184   0.91799   0.20448   0.00000  Uiso   1.00
N270   N     0.86208   0.95210   0.21925   0.00000  Uiso   1.00
C271   C     0.61816   0.74867   0.12886   0.00000  Uiso   1.00
N272   N     0.63792   0.71457   0.11410   0.00000  Uiso   1.00
C273   C     0.88184   0.74867   0.12886   0.00000  Uiso   1.00
N274   N     0.86208   0.71457   0.11409   0.00000  Uiso   1.00
C275   C     0.61816   0.91800   0.20447   0.00000  Uiso   1.00
N276   N     0.63792   0.95210   0.21924   0.00000  Uiso   1.00
O277   O     0.25000   0.09613   0.54759   0.00000  Uiso   1.00
O278   O     0.25000   0.23720   0.45241   0.00000  Uiso   1.00
O279   O     0.25000   0.23720   0.54759   0.00000  Uiso   1.00
O280   O     0.25000   0.09613   0.45241   0.00000  Uiso   1.00
H281   H     0.46048   0.05048   0.44761   0.00000  Uiso   1.00
H282   H     0.03952   0.28286   0.55239   0.00000  Uiso   1.00
H283   H     0.46048   0.28286   0.55239   0.00000  Uiso   1.00
H284   H     0.03952   0.05047   0.44761   0.00000  Uiso   1.00
C285   C     0.25000   0.07336   0.50004   0.00000  Uiso   1.00
C286   C     0.25000   0.25997   0.49996   0.00000  Uiso   1.00
O287   O     0.18513   0.16667   0.54760   0.00000  Uiso   1.00
O288   O     0.31487   0.16667   0.45240   0.00000  Uiso   1.00
O289   O     0.31487   0.16667   0.54760   0.00000  Uiso   1.00
O290   O     0.18513   0.16667   0.45240   0.00000  Uiso   1.00
C291   C     0.16441   0.16667   0.50000   0.00000  Uiso   1.00
C292   C     0.33559   0.16667   0.50000   0.00000  Uiso   1.00
Cu293  Cu    0.25000   0.16667   0.55636   0.00000  Uiso   1.00
Cu294  Cu    0.25000   0.16667   0.44364   0.00000  Uiso   1.00
N295   N     0.25000   0.16667   0.35894   0.00000  Uiso   1.00
N296   N     0.25000   0.16667   0.64106   0.00000  Uiso   1.00
C297   C     0.40662   0.20847   0.51922   0.00000  Uiso   1.00
C298   C     0.09338   0.12486   0.48078   0.00000  Uiso   1.00
C299   C     0.40662   0.12486   0.48078   0.00000  Uiso   1.00
C300   C     0.09338   0.20847   0.51922   0.00000  Uiso   1.00
C301   C     0.38378   0.16667   0.50000   0.00000  Uiso   1.00
C302   C     0.11622   0.16667   0.50000   0.00000  Uiso   1.00
C303   C     0.45321   0.12465   0.48088   0.00000  Uiso   1.00
C304   C     0.04679   0.20868   0.51912   0.00000  Uiso   1.00
C305   C     0.45321   0.20868   0.51913   0.00000  Uiso   1.00
C306   C     0.04679   0.12465   0.48088   0.00000  Uiso   1.00
C307   C     0.47656   0.16667   0.50000   0.00000  Uiso   1.00
C308   C     0.02344   0.16667   0.50000   0.00000  Uiso   1.00
C309   C     0.47705   0.08333   0.46237   0.00000  Uiso   1.00
C310   C     0.02295   0.25000   0.53763   0.00000  Uiso   1.00
C311   C     0.47705   0.25000   0.53763   0.00000  Uiso   1.00
C312   C     0.02295   0.08333   0.46237   0.00000  Uiso   1.00
C313   C     0.25000   0.02180   0.50006   0.00000  Uiso   1.00
C314   C     0.25000   0.31153   0.49994   0.00000  Uiso   1.00
C315   C     0.38184   0.25133   0.53781   0.00000  Uiso   1.00
N316   N     0.36208   0.28543   0.55258   0.00000  Uiso   1.00
C317   C     0.11816   0.08200   0.46220   0.00000  Uiso   1.00
N318   N     0.13792   0.04790   0.44743   0.00000  Uiso   1.00
C319   C     0.38184   0.08201   0.46219   0.00000  Uiso   1.00
N320   N     0.36208   0.04790   0.44742   0.00000  Uiso   1.00
C321   C     0.11816   0.25133   0.53780   0.00000  Uiso   1.00
N322   N     0.13792   0.28543   0.55257   0.00000  Uiso   1.00
O323   O     0.75000   0.09613   0.54759   0.00000  Uiso   1.00
O324   O     0.75000   0.23720   0.45241   0.00000  Uiso   1.00
O325   O     0.75000   0.23720   0.54759   0.00000  Uiso   1.00
O326   O     0.75000   0.09613   0.45241   0.00000  Uiso   1.00
H327   H     0.96048   0.05048   0.44761   0.00000  Uiso   1.00
H328   H     0.53952   0.28286   0.55239   0.00000  Uiso   1.00
H329   H     0.96048   0.28286   0.55239   0.00000  Uiso   1.00
H330   H     0.53952   0.05047   0.44761   0.00000  Uiso   1.00
C331   C     0.75000   0.07336   0.50004   0.00000  Uiso   1.00
C332   C     0.75000   0.25997   0.49996   0.00000  Uiso   1.00
O333   O     0.68513   0.16667   0.54760   0.00000  Uiso   1.00
O334   O     0.81487   0.16667   0.45240   0.00000  Uiso   1.00
O335   O     0.81487   0.16667   0.54760   0.00000  Uiso   1.00
O336   O     0.68513   0.16667   0.45240   0.00000  Uiso   1.00
C337   C     0.66441   0.16667   0.50000   0.00000  Uiso   1.00
C338   C     0.83559   0.16667   0.50000   0.00000  Uiso   1.00
Cu339  Cu    0.75000   0.16667   0.55636   0.00000  Uiso   1.00
Cu340  Cu    0.75000   0.16667   0.44364   0.00000  Uiso   1.00
N341   N     0.75000   0.16667   0.35894   0.00000  Uiso   1.00
N342   N     0.75000   0.16667   0.64106   0.00000  Uiso   1.00
C343   C     0.90662   0.20847   0.51922   0.00000  Uiso   1.00
C344   C     0.59338   0.12486   0.48078   0.00000  Uiso   1.00
C345   C     0.90662   0.12486   0.48078   0.00000  Uiso   1.00
C346   C     0.59338   0.20847   0.51922   0.00000  Uiso   1.00
C347   C     0.88378   0.16667   0.50000   0.00000  Uiso   1.00
C348   C     0.61622   0.16667   0.50000   0.00000  Uiso   1.00
C349   C     0.95321   0.12465   0.48088   0.00000  Uiso   1.00
C350   C     0.54679   0.20868   0.51912   0.00000  Uiso   1.00
C351   C     0.95321   0.20868   0.51913   0.00000  Uiso   1.00
C352   C     0.54679   0.12465   0.48088   0.00000  Uiso   1.00
C353   C     0.97656   0.16667   0.50000   0.00000  Uiso   1.00
C354   C     0.52344   0.16667   0.50000   0.00000  Uiso   1.00
C355   C     0.97705   0.08333   0.46237   0.00000  Uiso   1.00
C356   C     0.52295   0.25000   0.53763   0.00000  Uiso   1.00
C357   C     0.97705   0.25000   0.53763   0.00000  Uiso   1.00
C358   C     0.52295   0.08333   0.46237   0.00000  Uiso   1.00
C359   C     0.75000   0.02180   0.50006   0.00000  Uiso   1.00
C360   C     0.75000   0.31153   0.49994   0.00000  Uiso   1.00
C361   C     0.88184   0.25133   0.53781   0.00000  Uiso   1.00
N362   N     0.86208   0.28543   0.55258   0.00000  Uiso   1.00
C363   C     0.61816   0.08200   0.46220   0.00000  Uiso   1.00
N364   N     0.63792   0.04790   0.44743   0.00000  Uiso   1.00
C365   C     0.88184   0.08201   0.46219   0.00000  Uiso   1.00
N366   N     0.86208   0.04790   0.44742   0.00000  Uiso   1.00
C367   C     0.61816   0.25133   0.53780   0.00000  Uiso   1.00
N368   N     0.63792   0.28543   0.55257   0.00000  Uiso   1.00
O369   O     0.25000   0.42946   0.54759   0.00000  Uiso   1.00
O370   O     0.25000   0.57054   0.45241   0.00000  Uiso   1.00
O371   O     0.25000   0.57054   0.54759   0.00000  Uiso   1.00
O372   O     0.25000   0.42946   0.45241   0.00000  Uiso   1.00
H373   H     0.46048   0.38381   0.44761   0.00000  Uiso   1.00
H374   H     0.03952   0.61619   0.55239   0.00000  Uiso   1.00
H375   H     0.46048   0.61619   0.55239   0.00000  Uiso   1.00
H376   H     0.03952   0.38381   0.44761   0.00000  Uiso   1.00
C377   C     0.25000   0.40669   0.50004   0.00000  Uiso   1.00
C378   C     0.25000   0.59331   0.49996   0.00000  Uiso   1.00
O379   O     0.18513   0.50000   0.54760   0.00000  Uiso   1.00
O380   O     0.31487   0.50000   0.45240   0.00000  Uiso   1.00
O381   O     0.31487   0.50000   0.54760   0.00000  Uiso   1.00
O382   O     0.18513   0.50000   0.45240   0.00000  Uiso   1.00
C383   C     0.16441   0.50000   0.50000   0.00000  Uiso   1.00
C384   C     0.33559   0.50000   0.50000   0.00000  Uiso   1.00
Cu385  Cu    0.25000   0.50000   0.55636   0.00000  Uiso   1.00
Cu386  Cu    0.25000   0.50000   0.44364   0.00000  Uiso   1.00
N387   N     0.25000   0.50000   0.35894   0.00000  Uiso   1.00
N388   N     0.25000   0.50000   0.64106   0.00000  Uiso   1.00
C389   C     0.40662   0.54180   0.51922   0.00000  Uiso   1.00
C390   C     0.09338   0.45820   0.48078   0.00000  Uiso   1.00
C391   C     0.40662   0.45820   0.48078   0.00000  Uiso   1.00
C392   C     0.09338   0.54181   0.51922   0.00000  Uiso   1.00
C393   C     0.38378   0.50000   0.50000   0.00000  Uiso   1.00
C394   C     0.11622   0.50000   0.50000   0.00000  Uiso   1.00
C395   C     0.45321   0.45799   0.48088   0.00000  Uiso   1.00
C396   C     0.04679   0.54201   0.51912   0.00000  Uiso   1.00
C397   C     0.45321   0.54201   0.51913   0.00000  Uiso   1.00
C398   C     0.04679   0.45799   0.48088   0.00000  Uiso   1.00
C399   C     0.47656   0.50000   0.50000   0.00000  Uiso   1.00
C400   C     0.02344   0.50000   0.50000   0.00000  Uiso   1.00
C401   C     0.47705   0.41666   0.46237   0.00000  Uiso   1.00
C402   C     0.02295   0.58334   0.53763   0.00000  Uiso   1.00
C403   C     0.47705   0.58334   0.53763   0.00000  Uiso   1.00
C404   C     0.02295   0.41666   0.46237   0.00000  Uiso   1.00
C405   C     0.25000   0.35513   0.50006   0.00000  Uiso   1.00
C406   C     0.25000   0.64487   0.49994   0.00000  Uiso   1.00
C407   C     0.38184   0.58466   0.53781   0.00000  Uiso   1.00
N408   N     0.36208   0.61876   0.55258   0.00000  Uiso   1.00
C409   C     0.11816   0.41534   0.46220   0.00000  Uiso   1.00
N410   N     0.13792   0.38123   0.44743   0.00000  Uiso   1.00
C411   C     0.38184   0.41534   0.46219   0.00000  Uiso   1.00
N412   N     0.36208   0.38124   0.44742   0.00000  Uiso   1.00
C413   C     0.11816   0.58466   0.53780   0.00000  Uiso   1.00
N414   N     0.13792   0.61877   0.55257   0.00000  Uiso   1.00
O415   O     0.75000   0.42946   0.54759   0.00000  Uiso   1.00
O416   O     0.75000   0.57054   0.45241   0.00000  Uiso   1.00
O417   O     0.75000   0.57054   0.54759   0.00000  Uiso   1.00
O418   O     0.75000   0.42946   0.45241   0.00000  Uiso   1.00
H419   H     0.96048   0.38381   0.44761   0.00000  Uiso   1.00
H420   H     0.53952   0.61619   0.55239   0.00000  Uiso   1.00
H421   H     0.96048   0.61619   0.55239   0.00000  Uiso   1.00
H422   H     0.53952   0.38381   0.44761   0.00000  Uiso   1.00
C423   C     0.75000   0.40669   0.50004   0.00000  Uiso   1.00
C424   C     0.75000   0.59331   0.49996   0.00000  Uiso   1.00
O425   O     0.68513   0.50000   0.54760   0.00000  Uiso   1.00
O426   O     0.81487   0.50000   0.45240   0.00000  Uiso   1.00
O427   O     0.81487   0.50000   0.54760   0.00000  Uiso   1.00
O428   O     0.68513   0.50000   0.45240   0.00000  Uiso   1.00
C429   C     0.66441   0.50000   0.50000   0.00000  Uiso   1.00
C430   C     0.83559   0.50000   0.50000   0.00000  Uiso   1.00
Cu431  Cu    0.75000   0.50000   0.55636   0.00000  Uiso   1.00
Cu432  Cu    0.75000   0.50000   0.44364   0.00000  Uiso   1.00
N433   N     0.75000   0.50000   0.35894   0.00000  Uiso   1.00
N434   N     0.75000   0.50000   0.64106   0.00000  Uiso   1.00
C435   C     0.90662   0.54180   0.51922   0.00000  Uiso   1.00
C436   C     0.59338   0.45820   0.48078   0.00000  Uiso   1.00
C437   C     0.90662   0.45820   0.48078   0.00000  Uiso   1.00
C438   C     0.59338   0.54181   0.51922   0.00000  Uiso   1.00
C439   C     0.88378   0.50000   0.50000   0.00000  Uiso   1.00
C440   C     0.61622   0.50000   0.50000   0.00000  Uiso   1.00
C441   C     0.95321   0.45799   0.48088   0.00000  Uiso   1.00
C442   C     0.54679   0.54201   0.51912   0.00000  Uiso   1.00
C443   C     0.95321   0.54201   0.51913   0.00000  Uiso   1.00
C444   C     0.54679   0.45799   0.48088   0.00000  Uiso   1.00
C445   C     0.97656   0.50000   0.50000   0.00000  Uiso   1.00
C446   C     0.52344   0.50000   0.50000   0.00000  Uiso   1.00
C447   C     0.97705   0.41666   0.46237   0.00000  Uiso   1.00
C448   C     0.52295   0.58334   0.53763   0.00000  Uiso   1.00
C449   C     0.97705   0.58334   0.53763   0.00000  Uiso   1.00
C450   C     0.52295   0.41666   0.46237   0.00000  Uiso   1.00
C451   C     0.75000   0.35513   0.50006   0.00000  Uiso   1.00
C452   C     0.75000   0.64487   0.49994   0.00000  Uiso   1.00
C453   C     0.88184   0.58466   0.53781   0.00000  Uiso   1.00
N454   N     0.86208   0.61876   0.55258   0.00000  Uiso   1.00
C455   C     0.61816   0.41534   0.46220   0.00000  Uiso   1.00
N456   N     0.63792   0.38123   0.44743   0.00000  Uiso   1.00
C457   C     0.88184   0.41534   0.46219   0.00000  Uiso   1.00
N458   N     0.86208   0.38124   0.44742   0.00000  Uiso   1.00
C459   C     0.61816   0.58466   0.53780   0.00000  Uiso   1.00
N460   N     0.63792   0.61877   0.55257   0.00000  Uiso   1.00
O461   O     0.25000   0.76280   0.54759   0.00000  Uiso   1.00
O462   O     0.25000   0.90387   0.45241   0.00000  Uiso   1.00
O463   O     0.25000   0.90387   0.54759   0.00000  Uiso   1.00
O464   O     0.25000   0.76280   0.45241   0.00000  Uiso   1.00
H465   H     0.46048   0.71714   0.44761   0.00000  Uiso   1.00
H466   H     0.03952   0.94953   0.55239   0.00000  Uiso   1.00
H467   H     0.46048   0.94953   0.55239   0.00000  Uiso   1.00
H468   H     0.03952   0.71714   0.44761   0.00000  Uiso   1.00
C469   C     0.25000   0.74003   0.50004   0.00000  Uiso   1.00
C470   C     0.25000   0.92664   0.49996   0.00000  Uiso   1.00
O471   O     0.18513   0.83333   0.54760   0.00000  Uiso   1.00
O472   O     0.31487   0.83333   0.45240   0.00000  Uiso   1.00
O473   O     0.31487   0.83333   0.54760   0.00000  Uiso   1.00
O474   O     0.18513   0.83333   0.45240   0.00000  Uiso   1.00
C475   C     0.16441   0.83333   0.50000   0.00000  Uiso   1.00
C476   C     0.33559   0.83333   0.50000   0.00000  Uiso   1.00
Cu477  Cu    0.25000   0.83333   0.55636   0.00000  Uiso   1.00
Cu478  Cu    0.25000   0.83333   0.44364   0.00000  Uiso   1.00
N479   N     0.25000   0.83333   0.35894   0.00000  Uiso   1.00
N480   N     0.25000   0.83333   0.64106   0.00000  Uiso   1.00
C481   C     0.40662   0.87514   0.51922   0.00000  Uiso   1.00
C482   C     0.09338   0.79153   0.48078   0.00000  Uiso   1.00
C483   C     0.40662   0.79153   0.48078   0.00000  Uiso   1.00
C484   C     0.09338   0.87514   0.51922   0.00000  Uiso   1.00
C485   C     0.38378   0.83333   0.50000   0.00000  Uiso   1.00
C486   C     0.11622   0.83333   0.50000   0.00000  Uiso   1.00
C487   C     0.45321   0.79132   0.48088   0.00000  Uiso   1.00
C488   C     0.04679   0.87535   0.51912   0.00000  Uiso   1.00
C489   C     0.45321   0.87535   0.51913   0.00000  Uiso   1.00
C490   C     0.04679   0.79132   0.48088   0.00000  Uiso   1.00
C491   C     0.47656   0.83333   0.50000   0.00000  Uiso   1.00
C492   C     0.02344   0.83333   0.50000   0.00000  Uiso   1.00
C493   C     0.47705   0.75000   0.46237   0.00000  Uiso   1.00
C494   C     0.02295   0.91667   0.53763   0.00000  Uiso   1.00
C495   C     0.47705   0.91667   0.53763   0.00000  Uiso   1.00
C496   C     0.02295   0.75000   0.46237   0.00000  Uiso   1.00
C497   C     0.25000   0.68847   0.50006   0.00000  Uiso   1.00
C498   C     0.25000   0.97820   0.49994   0.00000  Uiso   1.00
C499   C     0.38184   0.91799   0.53781   0.00000  Uiso   1.00
N500   N     0.36208   0.95210   0.55258   0.00000  Uiso   1.00
C501   C     0.11816   0.74867   0.46220   0.00000  Uiso   1.00
N502   N     0.13792   0.71457   0.44743   0.00000  Uiso   1.00
C503   C     0.38184   0.74867   0.46219   0.00000  Uiso   1.00
N504   N     0.36208   0.71457   0.44742   0.00000  Uiso   1.00
C505   C     0.11816   0.91800   0.53780   0.00000  Uiso   1.00
N506   N     0.13792   0.95210   0.55257   0.00000  Uiso   1.00
O507   O     0.75000   0.76280   0.54759   0.00000  Uiso   1.00
O508   O     0.75000   0.90387   0.45241   0.00000  Uiso   1.00
O509   O     0.75000   0.90387   0.54759   0.00000  Uiso   1.00
O510   O     0.75000   0.76280   0.45241   0.00000  Uiso   1.00
H511   H     0.96048   0.71714   0.44761   0.00000  Uiso   1.00
H512   H     0.53952   0.94953   0.55239   0.00000  Uiso   1.00
H513   H     0.96048   0.94953   0.55239   0.00000  Uiso   1.00
H514   H     0.53952   0.71714   0.44761   0.00000  Uiso   1.00
C515   C     0.75000   0.74003   0.50004   0.00000  Uiso   1.00
C516   C     0.75000   0.92664   0.49996   0.00000  Uiso   1.00
O517   O     0.68513   0.83333   0.54760   0.00000  Uiso   1.00
O518   O     0.81487   0.83333   0.45240   0.00000  Uiso   1.00
O519   O     0.81487   0.83333   0.54760   0.00000  Uiso   1.00
O520   O     0.68513   0.83333   0.45240   0.00000  Uiso   1.00
C521   C     0.66441   0.83333   0.50000   0.00000  Uiso   1.00
C522   C     0.83559   0.83333   0.50000   0.00000  Uiso   1.00
Cu523  Cu    0.75000   0.83333   0.55636   0.00000  Uiso   1.00
Cu524  Cu    0.75000   0.83333   0.44364   0.00000  Uiso   1.00
N525   N     0.75000   0.83333   0.35894   0.00000  Uiso   1.00
N526   N     0.75000   0.83333   0.64106   0.00000  Uiso   1.00
C527   C     0.90662   0.87514   0.51922   0.00000  Uiso   1.00
C528   C     0.59338   0.79153   0.48078   0.00000  Uiso   1.00
C529   C     0.90662   0.79153   0.48078   0.00000  Uiso   1.00
C530   C     0.59338   0.87514   0.51922   0.00000  Uiso   1.00
C531   C     0.88378   0.83333   0.50000   0.00000  Uiso   1.00
C532   C     0.61622   0.83333   0.50000   0.00000  Uiso   1.00
C533   C     0.95321   0.79132   0.48088   0.00000  Uiso   1.00
C534   C     0.54679   0.87535   0.51912   0.00000  Uiso   1.00
C535   C     0.95321   0.87535   0.51913   0.00000  Uiso   1.00
C536   C     0.54679   0.79132   0.48088   0.00000  Uiso   1.00
C537   C     0.97656   0.83333   0.50000   0.00000  Uiso   1.00
C538   C     0.52344   0.83333   0.50000   0.00000  Uiso   1.00
C539   C     0.97705   0.75000   0.46237   0.00000  Uiso   1.00
C540   C     0.52295   0.91667   0.53763   0.00000  Uiso   1.00
C541   C     0.97705   0.91667   0.53763   0.00000  Uiso   1.00
C542   C     0.52295   0.75000   0.46237   0.00000  Uiso   1.00
C543   C     0.75000   0.68847   0.50006   0.00000  Uiso   1.00
C544   C     0.75000   0.97820   0.49994   0.00000  Uiso   1.00
C545   C     0.88184   0.91799   0.53781   0.00000  Uiso   1.00
N546   N     0.86208   0.95210   0.55258   0.00000  Uiso   1.00
C547   C     0.61816   0.74867   0.46220   0.00000  Uiso   1.00
N548   N     0.63792   0.71457   0.44743   0.00000  Uiso   1.00
C549   C     0.88184   0.74867   0.46219   0.00000  Uiso   1.00
N550   N     0.86208   0.71457   0.44742   0.00000  Uiso   1.00
C551   C     0.61816   0.91800   0.53780   0.00000  Uiso   1.00
N552   N     0.63792   0.95210   0.55257   0.00000  Uiso   1.00
O553   O     0.25000   0.09613   0.88092   0.00000  Uiso   1.00
O554   O     0.25000   0.23720   0.78575   0.00000  Uiso   1.00
O555   O     0.25000   0.23720   0.88092   0.00000  Uiso   1.00
O556   O     0.25000   0.09613   0.78575   0.00000  Uiso   1.00
H557   H     0.46048   0.05048   0.78095   0.00000  Uiso   1.00
H558   H     0.03952   0.28286   0.88572   0.00000  Uiso   1.00
H559   H     0.46048   0.28286   0.88572   0.00000  Uiso   1.00
H560   H     0.03952   0.05047   0.78095   0.00000  Uiso   1.00
C561   C     0.25000   0.07336   0.83338   0.00000  Uiso   1.00
C562   C     0.25000   0.25997   0.83329   0.00000  Uiso   1.00
O563   O     0.18513   0.16667   0.88093   0.00000  Uiso   1.00
O564   O     0.31487   0.16667   0.78573   0.00000  Uiso   1.00
O565   O     0.31487   0.16667   0.88093   0.00000  Uiso   1.00
O566   O     0.18513   0.16667   0.78573   0.00000  Uiso   1.00
C567   C     0.16441   0.16667   0.83333   0.00000  Uiso   1.00
C568   C     0.33559   0.16667   0.83333   0.00000  Uiso   1.00
Cu569  Cu    0.25000   0.16667   0.88969   0.00000  Uiso   1.00
Cu570  Cu    0.25000   0.16667   0.77697   0.00000  Uiso   1.00
N571   N     0.25000   0.16667   0.69227   0.00000  Uiso   1.00
N572   N     0.25000   0.16667   0.97439   0.00000  Uiso   1.00
C573   C     0.40662   0.20847   0.85255   0.00000  Uiso   1.00
C574   C     0.09338   0.12486   0.81412   0.00000  Uiso   1.00
C575   C     0.40662   0.12486   0.81412   0.00000  Uiso   1.00
C576   C     0.09338   0.20847   0.85255   0.00000  Uiso   1.00
C577   C     0.38378   0.16667   0.83333   0.00000  Uiso   1.00
C578   C     0.11622   0.16667   0.83333   0.00000  Uiso   1.00
C579   C     0.45321   0.12465   0.81421   0.00000  Uiso   1.00
C580   C     0.04679   0.20868   0.85246   0.00000  Uiso   1.00
C581   C     0.45321   0.20868   0.85246   0.00000  Uiso   1.00
C582   C     0.04679   0.12465   0.81421   0.00000  Uiso   1.00
C583   C     0.47656   0.16667   0.83333   0.00000  Uiso   1.00
C584   C     0.02344   0.16667   0.83333   0.00000  Uiso   1.00
C585   C     0.47705   0.08333   0.79570   0.00000  Uiso   1.00
C586   C     0.02295   0.25000   0.87097   0.00000  Uiso   1.00
C587   C     0.47705   0.25000   0.87097   0.00000  Uiso   1.00
C588   C     0.02295   0.08333   0.79570   0.00000  Uiso   1.00
C589   C     0.25000   0.02180   0.83339   0.00000  Uiso   1.00
C590   C     0.25000   0.31153   0.83327   0.00000  Uiso   1.00
C591   C     0.38184   0.25133   0.87114   0.00000  Uiso   1.00
N592   N     0.36208   0.28543   0.88591   0.00000  Uiso   1.00
C593   C     0.11816   0.08200   0.79553   0.00000  Uiso   1.00
N594   N     0.13792   0.04790   0.78076   0.00000  Uiso   1.00
C595   C     0.38184   0.08201   0.79552   0.00000  Uiso   1.00
N596   N     0.36208   0.04790   0.78076   0.00000  Uiso   1.00
C597   C     0.11816   0.25133   0.87114   0.00000  Uiso   1.00
N598   N     0.13792   0.28543   0.88590   0.00000  Uiso   1.00
O599   O     0.75000   0.09613   0.88092   0.00000  Uiso   1.00
O600   O     0.75000   0.23720   0.78575   0.00000  Uiso   1.00
O601   O     0.75000   0.23720   0.88092   0.00000  Uiso   1.00
O602   O     0.75000   0.09613   0.78575   0.00000  Uiso   1.00
H603   H     0.96048   0.05048   0.78095   0.00000  Uiso   1.00
H604   H     0.53952   0.28286   0.88572   0.00000  Uiso   1.00
H605   H     0.96048   0.28286   0.88572   0.00000  Uiso   1.00
H606   H     0.53952   0.05047   0.78095   0.00000  Uiso   1.00
C607   C     0.75000   0.07336   0.83338   0.00000  Uiso   1.00
C608   C     0.75000   0.25997   0.83329   0.00000  Uiso   1.00
O609   O     0.68513   0.16667   0.88093   0.00000  Uiso   1.00
O610   O     0.81487   0.16667   0.78573   0.00000  Uiso   1.00
O611   O     0.81487   0.16667   0.88093   0.00000  Uiso   1.00
O612   O     0.68513   0.16667   0.78573   0.00000  Uiso   1.00
C613   C     0.66441   0.16667   0.83333   0.00000  Uiso   1.00
C614   C     0.83559   0.16667   0.83333   0.00000  Uiso   1.00
Cu615  Cu    0.75000   0.16667   0.88969   0.00000  Uiso   1.00
Cu616  Cu    0.75000   0.16667   0.77697   0.00000  Uiso   1.00
N617   N     0.75000   0.16667   0.69227   0.00000  Uiso   1.00
N618   N     0.75000   0.16667   0.97439   0.00000  Uiso   1.00
C619   C     0.90662   0.20847   0.85255   0.00000  Uiso   1.00
C620   C     0.59338   0.12486   0.81412   0.00000  Uiso   1.00
C621   C     0.90662   0.12486   0.81412   0.00000  Uiso   1.00
C622   C     0.59338   0.20847   0.85255   0.00000  Uiso   1.00
C623   C     0.88378   0.16667   0.83333   0.00000  Uiso   1.00
C624   C     0.61622   0.16667   0.83333   0.00000  Uiso   1.00
C625   C     0.95321   0.12465   0.81421   0.00000  Uiso   1.00
C626   C     0.54679   0.20868   0.85246   0.00000  Uiso   1.00
C627   C     0.95321   0.20868   0.85246   0.00000  Uiso   1.00
C628   C     0.54679   0.12465   0.81421   0.00000  Uiso   1.00
C629   C     0.97656   0.16667   0.83333   0.00000  Uiso   1.00
C630   C     0.52344   0.16667   0.83333   0.00000  Uiso   1.00
C631   C     0.97705   0.08333   0.79570   0.00000  Uiso   1.00
C632   C     0.52295   0.25000   0.87097   0.00000  Uiso   1.00
C633   C     0.97705   0.25000   0.87097   0.00000  Uiso   1.00
C634   C     0.52295   0.08333   0.79570   0.00000  Uiso   1.00
C635   C     0.75000   0.02180   0.83339   0.00000  Uiso   1.00
C636   C     0.75000   0.31153   0.83327   0.00000  Uiso   1.00
C637   C     0.88184   0.25133   0.87114   0.00000  Uiso   1.00
N638   N     0.86208   0.28543   0.88591   0.00000  Uiso   1.00
C639   C     0.61816   0.08200   0.79553   0.00000  Uiso   1.00
N640   N     0.63792   0.04790   0.78076   0.00000  Uiso   1.00
C641   C     0.88184   0.08201   0.79552   0.00000  Uiso   1.00
N642   N     0.86208   0.04790   0.78076   0.00000  Uiso   1.00
C643   C     0.61816   0.25133   0.87114   0.00000  Uiso   1.00
N644   N     0.63792   0.28543   0.88590   0.00000  Uiso   1.00
O645   O     0.25000   0.42946   0.88092   0.00000  Uiso   1.00
O646   O     0.25000   0.57054   0.78575   0.00000  Uiso   1.00
O647   O     0.25000   0.57054   0.88092   0.00000  Uiso   1.00
O648   O     0.25000   0.42946   0.78575   0.00000  Uiso   1.00
H649   H     0.46048   0.38381   0.78095   0.00000  Uiso   1.00
H650   H     0.03952   0.61619   0.88572   0.00000  Uiso   1.00
H651   H     0.46048   0.61619   0.88572   0.00000  Uiso   1.00
H652   H     0.03952   0.38381   0.78095   0.00000  Uiso   1.00
C653   C     0.25000   0.40669   0.83338   0.00000  Uiso   1.00
C654   C     0.25000   0.59331   0.83329   0.00000  Uiso   1.00
O655   O     0.18513   0.50000   0.88093   0.00000  Uiso   1.00
O656   O     0.31487   0.50000   0.78573   0.00000  Uiso   1.00
O657   O     0.31487   0.50000   0.88093   0.00000  Uiso   1.00
O658   O     0.18513   0.50000   0.78573   0.00000  Uiso   1.00
C659   C     0.16441   0.50000   0.83333   0.00000  Uiso   1.00
C660   C     0.33559   0.50000   0.83333   0.00000  Uiso   1.00
Cu661  Cu    0.25000   0.50000   0.88969   0.00000  Uiso   1.00
Cu662  Cu    0.25000   0.50000   0.77697   0.00000  Uiso   1.00
N663   N     0.25000   0.50000   0.69227   0.00000  Uiso   1.00
N664   N     0.25000   0.50000   0.97439   0.00000  Uiso   1.00
C665   C     0.40662   0.54180   0.85255   0.00000  Uiso   1.00
C666   C     0.09338   0.45820   0.81412   0.00000  Uiso   1.00
C667   C     0.40662   0.45820   0.81412   0.00000  Uiso   1.00
C668   C     0.09338   0.54181   0.85255   0.00000  Uiso   1.00
C669   C     0.38378   0.50000   0.83333   0.00000  Uiso   1.00
C670   C     0.11622   0.50000   0.83333   0.00000  Uiso   1.00
C671   C     0.45321   0.45799   0.81421   0.00000  Uiso   1.00
C672   C     0.04679   0.54201   0.85246   0.00000  Uiso   1.00
C673   C     0.45321   0.54201   0.85246   0.00000  Uiso   1.00
C674   C     0.04679   0.45799   0.81421   0.00000  Uiso   1.00
C675   C     0.47656   0.50000   0.83333   0.00000  Uiso   1.00
C676   C     0.02344   0.50000   0.83333   0.00000  Uiso   1.00
C677   C     0.47705   0.41666   0.79570   0.00000  Uiso   1.00
C678   C     0.02295   0.58334   0.87097   0.00000  Uiso   1.00
C679   C     0.47705   0.58334   0.87097   0.00000  Uiso   1.00
C680   C     0.02295   0.41666   0.79570   0.00000  Uiso   1.00
C681   C     0.25000   0.35513   0.83339   0.00000  Uiso   1.00
C682   C     0.25000   0.64487   0.83327   0.00000  Uiso   1.00
C683   C     0.38184   0.58466   0.87114   0.00000  Uiso   1.00
N684   N     0.36208   0.61876   0.88591   0.00000  Uiso   1.00
C685   C     0.11816   0.41534   0.79553   0.00000  Uiso   1.00
N686   N     0.13792   0.38123   0.78076   0.00000  Uiso   1.00
C687   C     0.38184   0.41534   0.79552   0.00000  Uiso   1.00
N688   N     0.36208   0.38124   0.78076   0.00000  Uiso   1.00
C689   C     0.11816   0.58466   0.87114   0.00000  Uiso   1.00
N690   N     0.13792   0.61877   0.88590   0.00000  Uiso   1.00
O691   O     0.75000   0.42946   0.88092   0.00000  Uiso   1.00
O692   O     0.75000   0.57054   0.78575   0.00000  Uiso   1.00
O693   O     0.75000   0.57054   0.88092   0.00000  Uiso   1.00
O694   O     0.75000   0.42946   0.78575   0.00000  Uiso   1.00
H695   H     0.96048   0.38381   0.78095   0.00000  Uiso   1.00
H696   H     0.53952   0.61619   0.88572   0.00000  Uiso   1.00
H697   H     0.96048   0.61619   0.88572   0.00000  Uiso   1.00
H698   H     0.53952   0.38381   0.78095   0.00000  Uiso   1.00
C699   C     0.75000   0.40669   0.83338   0.00000  Uiso   1.00
C700   C     0.75000   0.59331   0.83329   0.00000  Uiso   1.00
O701   O     0.68513   0.50000   0.88093   0.00000  Uiso   1.00
O702   O     0.81487   0.50000   0.78573   0.00000  Uiso   1.00
O703   O     0.81487   0.50000   0.88093   0.00000  Uiso   1.00
O704   O     0.68513   0.50000   0.78573   0.00000  Uiso   1.00
C705   C     0.66441   0.50000   0.83333   0.00000  Uiso   1.00
C706   C     0.83559   0.50000   0.83333   0.00000  Uiso   1.00
Cu707  Cu    0.75000   0.50000   0.88969   0.00000  Uiso   1.00
Cu708  Cu    0.75000   0.50000   0.77697   0.00000  Uiso   1.00
N709   N     0.75000   0.50000   0.69227   0.00000  Uiso   1.00
N710   N     0.75000   0.50000   0.97439   0.00000  Uiso   1.00
C711   C     0.90662   0.54180   0.85255   0.00000  Uiso   1.00
C712   C     0.59338   0.45820   0.81412   0.00000  Uiso   1.00
C713   C     0.90662   0.45820   0.81412   0.00000  Uiso   1.00
C714   C     0.59338   0.54181   0.85255   0.00000  Uiso   1.00
C715   C     0.88378   0.50000   0.83333   0.00000  Uiso   1.00
C716   C     0.61622   0.50000   0.83333   0.00000  Uiso   1.00
C717   C     0.95321   0.45799   0.81421   0.00000  Uiso   1.00
C718   C     0.54679   0.54201   0.85246   0.00000  Uiso   1.00
C719   C     0.95321   0.54201   0.85246   0.00000  Uiso   1.00
C720   C     0.54679   0.45799   0.81421   0.00000  Uiso   1.00
C721   C     0.97656   0.50000   0.83333   0.00000  Uiso   1.00
C722   C     0.52344   0.50000   0.83333   0.00000  Uiso   1.00
C723   C     0.97705   0.41666   0.79570   0.00000  Uiso   1.00
C724   C     0.52295   0.58334   0.87097   0.00000  Uiso   1.00
C725   C     0.97705   0.58334   0.87097   0.00000  Uiso   1.00
C726   C     0.52295   0.41666   0.79570   0.00000  Uiso   1.00
C727   C     0.75000   0.35513   0.83339   0.00000  Uiso   1.00
C728   C     0.75000   0.64487   0.83327   0.00000  Uiso   1.00
C729   C     0.88184   0.58466   0.87114   0.00000  Uiso   1.00
N730   N     0.86208   0.61876   0.88591   0.00000  Uiso   1.00
C731   C     0.61816   0.41534   0.79553   0.00000  Uiso   1.00
N732   N     0.63792   0.38123   0.78076   0.00000  Uiso   1.00
C733   C     0.88184   0.41534   0.79552   0.00000  Uiso   1.00
N734   N     0.86208   0.38124   0.78076   0.00000  Uiso   1.00
C735   C     0.61816   0.58466   0.87114   0.00000  Uiso   1.00
N736   N     0.63792   0.61877   0.88590   0.00000  Uiso   1.00
O737   O     0.25000   0.76280   0.88092   0.00000  Uiso   1.00
O738   O     0.25000   0.90387   0.78575   0.00000  Uiso   1.00
O739   O     0.25000   0.90387   0.88092   0.00000  Uiso   1.00
O740   O     0.25000   0.76280   0.78575   0.00000  Uiso   1.00
H741   H     0.46048   0.71714   0.78095   0.00000  Uiso   1.00
H742   H     0.03952   0.94953   0.88572   0.00000  Uiso   1.00
H743   H     0.46048   0.94953   0.88572   0.00000  Uiso   1.00
H744   H     0.03952   0.71714   0.78095   0.00000  Uiso   1.00
C745   C     0.25000   0.74003   0.83338   0.00000  Uiso   1.00
C746   C     0.25000   0.92664   0.83329   0.00000  Uiso   1.00
O747   O     0.18513   0.83333   0.88093   0.00000  Uiso   1.00
O748   O     0.31487   0.83333   0.78573   0.00000  Uiso   1.00
O749   O     0.31487   0.83333   0.88093   0.00000  Uiso   1.00
O750   O     0.18513   0.83333   0.78573   0.00000  Uiso   1.00
C751   C     0.16441   0.83333   0.83333   0.00000  Uiso   1.00
C752   C     0.33559   0.83333   0.83333   0.00000  Uiso   1.00
Cu753  Cu    0.25000   0.83333   0.88969   0.00000  Uiso   1.00
Cu754  Cu    0.25000   0.83333   0.77697   0.00000  Uiso   1.00
N755   N     0.25000   0.83333   0.69227   0.00000  Uiso   1.00
N756   N     0.25000   0.83333   0.97439   0.00000  Uiso   1.00
C757   C     0.40662   0.87514   0.85255   0.00000  Uiso   1.00
C758   C     0.09338   0.79153   0.81412   0.00000  Uiso   1.00
C759   C     0.40662   0.79153   0.81412   0.00000  Uiso   1.00
C760   C     0.09338   0.87514   0.85255   0.00000  Uiso   1.00
C761   C     0.38378   0.83333   0.83333   0.00000  Uiso   1.00
C762   C     0.11622   0.83333   0.83333   0.00000  Uiso   1.00
C763   C     0.45321   0.79132   0.81421   0.00000  Uiso   1.00
C764   C     0.04679   0.87535   0.85246   0.00000  Uiso   1.00
C765   C     0.45321   0.87535   0.85246   0.00000  Uiso   1.00
C766   C     0.04679   0.79132   0.81421   0.00000  Uiso   1.00
C767   C     0.47656   0.83333   0.83333   0.00000  Uiso   1.00
C768   C     0.02344   0.83333   0.83333   0.00000  Uiso   1.00
C769   C     0.47705   0.75000   0.79570   0.00000  Uiso   1.00
C770   C     0.02295   0.91667   0.87097   0.00000  Uiso   1.00
C771   C     0.47705   0.91667   0.87097   0.00000  Uiso   1.00
C772   C     0.02295   0.75000   0.79570   0.00000  Uiso   1.00
C773   C     0.25000   0.68847   0.83339   0.00000  Uiso   1.00
C774   C     0.25000   0.97820   0.83327   0.00000  Uiso   1.00
C775   C     0.38184   0.91799   0.87114   0.00000  Uiso   1.00
N776   N     0.36208   0.95210   0.88591   0.00000  Uiso   1.00
C777   C     0.11816   0.74867   0.79553   0.00000  Uiso   1.00
N778   N     0.13792   0.71457   0.78076   0.00000  Uiso   1.00
C779   C     0.38184   0.74867   0.79552   0.00000  Uiso   1.00
N780   N     0.36208   0.71457   0.78076   0.00000  Uiso   1.00
C781   C     0.11816   0.91800   0.87114   0.00000  Uiso   1.00
N782   N     0.13792   0.95210   0.88590   0.00000  Uiso   1.00
O783   O     0.75000   0.76280   0.88092   0.00000  Uiso   1.00
O784   O     0.75000   0.90387   0.78575   0.00000  Uiso   1.00
O785   O     0.75000   0.90387   0.88092   0.00000  Uiso   1.00
O786   O     0.75000   0.76280   0.78575   0.00000  Uiso   1.00
H787   H     0.96048   0.71714   0.78095   0.00000  Uiso   1.00
H788   H     0.53952   0.94953   0.88572   0.00000  Uiso   1.00
H789   H     0.96048   0.94953   0.88572   0.00000  Uiso   1.00
H790   H     0.53952   0.71714   0.78095   0.00000  Uiso   1.00
C791   C     0.75000   0.74003   0.83338   0.00000  Uiso   1.00
C792   C     0.75000   0.92664   0.83329   0.00000  Uiso   1.00
O793   O     0.68513   0.83333   0.88093   0.00000  Uiso   1.00
O794   O     0.81487   0.83333   0.78573   0.00000  Uiso   1.00
O795   O     0.81487   0.83333   0.88093   0.00000  Uiso   1.00
O796   O     0.68513   0.83333   0.78573   0.00000  Uiso   1.00
C797   C     0.66441   0.83333   0.83333   0.00000  Uiso   1.00
C798   C     0.83559   0.83333   0.83333   0.00000  Uiso   1.00
Cu799  Cu    0.75000   0.83333   0.88969   0.00000  Uiso   1.00
Cu800  Cu    0.75000   0.83333   0.77697   0.00000  Uiso   1.00
N801   N     0.75000   0.83333   0.69227   0.00000  Uiso   1.00
N802   N     0.75000   0.83333   0.97439   0.00000  Uiso   1.00
C803   C     0.90662   0.87514   0.85255   0.00000  Uiso   1.00
C804   C     0.59338   0.79153   0.81412   0.00000  Uiso   1.00
C805   C     0.90662   0.79153   0.81412   0.00000  Uiso   1.00
C806   C     0.59338   0.87514   0.85255   0.00000  Uiso   1.00
C807   C     0.88378   0.83333   0.83333   0.00000  Uiso   1.00
C808   C     0.61622   0.83333   0.83333   0.00000  Uiso   1.00
C809   C     0.95321   0.79132   0.81421   0.00000  Uiso   1.00
C810   C     0.54679   0.87535   0.85246   0.00000  Uiso   1.00
C811   C     0.95321   0.87535   0.85246   0.00000  Uiso   1.00
C812   C     0.54679   0.79132   0.81421   0.00000  Uiso   1.00
C813   C     0.97656   0.83333   0.83333   0.00000  Uiso   1.00
C814   C     0.52344   0.83333   0.83333   0.00000  Uiso   1.00
C815   C     0.97705   0.75000   0.79570   0.00000  Uiso   1.00
C816   C     0.52295   0.91667   0.87097   0.00000  Uiso   1.00
C817   C     0.97705   0.91667   0.87097   0.00000  Uiso   1.00
C818   C     0.52295   0.75000   0.79570   0.00000  Uiso   1.00
C819   C     0.75000   0.68847   0.83339   0.00000  Uiso   1.00
C820   C     0.75000   0.97820   0.83327   0.00000  Uiso   1.00
C821   C     0.88184   0.91799   0.87114   0.00000  Uiso   1.00
N822   N     0.86208   0.95210   0.88591   0.00000  Uiso   1.00
C823   C     0.61816   0.74867   0.79553   0.00000  Uiso   1.00
N824   N     0.63792   0.71457   0.78076   0.00000  Uiso   1.00
C825   C     0.88184   0.74867   0.79552   0.00000  Uiso   1.00
N826   N     0.86208   0.71457   0.78076   0.00000  Uiso   1.00
C827   C     0.61816   0.91800   0.87114   0.00000  Uiso   1.00
N828   N     0.63792   0.95210   0.88590   0.00000  Uiso   1.00
loop_
_geom_bond_atom_site_label_1
_geom_bond_atom_site_label_2
_geom_bond_distance
_geom_bond_site_symmetry_2
_ccdc_geom_bond_type
O1     Cu17    1.933   .     S
O1     C9      1.274   .     A
O2     Cu18    1.933   .     S
O2     C10     1.274   .     A
O3     C10     1.274   .     A
O3     Cu17    1.932   .     S
O4     Cu18    1.932   .     S
O4     C9      1.274   .     A
H5     C33     1.083   .     S
H6     C34     1.083   .     S
H7     C35     1.083   .     S
H8     C36     1.083   .     S
C9     C37     1.405   .     S
C10    C38     1.405   .     S
O11    C15     1.277   .     A
O11    Cu17    1.969   .     S
O12    C16     1.277   .     A
O12    Cu18    1.969   .     S
O13    Cu17    1.969   .     S
O13    C16     1.277   .     A
O14    Cu18    1.969   .     S
O14    C15     1.277   .     A
C15    C26     1.455   .     S
C16    C25     1.455   .     S
Cu17   N20     1.981   .     S
Cu17   Cu18    2.636   .     S
Cu18   N19     1.981   .     S
N19    N572    1.198   1_554 S
N20    N295    1.198   .     S
C21    C39     1.454   .     S
C21    C25     1.406   .     A
C21    C29     1.407   .     A
C22    C41     1.454   .     S
C22    C26     1.406   .     A
C22    C30     1.407   .     A
C23    C27     1.407   .     A
C23    C25     1.406   .     A
C23    C43     1.454   .     S
C24    C28     1.407   .     A
C24    C45     1.454   .     S
C24    C26     1.406   .     A
C27    C33     1.405   .     A
C27    C31     1.418   .     A
C28    C34     1.405   .     A
C28    C32     1.418   .     A
C29    C35     1.405   .     A
C29    C31     1.418   .     A
C30    C36     1.405   .     A
C30    C32     1.418   .     A
C31    C78     1.415   .     S
C32    C77     1.415   1_455 S
C33    C82     1.385   .     S
C34    C81     1.385   1_455 S
C35    C80     1.385   .     S
C36    C79     1.385   1_455 S
C37    C222    1.188   1_545 S
C38    C129    1.188   .     S
C39    N40     1.157   .     T
C41    N42     1.157   .     T
C43    N44     1.157   .     T
C45    N46     1.157   .     T
O47    Cu63    1.933   .     S
O47    C55     1.274   .     A
O48    Cu64    1.933   .     S
O48    C56     1.274   .     A
O49    C56     1.274   .     A
O49    Cu63    1.932   .     S
O50    Cu64    1.932   .     S
O50    C55     1.274   .     A
H51    C79     1.083   .     S
H52    C80     1.083   .     S
H53    C81     1.083   .     S
H54    C82     1.083   .     S
C55    C83     1.405   .     S
C56    C84     1.405   .     S
O57    C61     1.277   .     A
O57    Cu63    1.969   .     S
O58    C62     1.277   .     A
O58    Cu64    1.969   .     S
O59    Cu63    1.969   .     S
O59    C62     1.277   .     A
O60    Cu64    1.969   .     S
O60    C61     1.277   .     A
C61    C72     1.455   .     S
C62    C71     1.455   .     S
Cu63   N66     1.981   .     S
Cu63   Cu64    2.636   .     S
Cu64   N65     1.981   .     S
N65    N618    1.198   1_554 S
N66    N341    1.198   .     S
C67    C85     1.454   .     S
C67    C71     1.406   .     A
C67    C75     1.407   .     A
C68    C87     1.454   .     S
C68    C72     1.406   .     A
C68    C76     1.407   .     A
C69    C73     1.407   .     A
C69    C71     1.406   .     A
C69    C89     1.454   .     S
C70    C74     1.407   .     A
C70    C91     1.454   .     S
C70    C72     1.406   .     A
C73    C79     1.405   .     A
C73    C77     1.418   .     A
C74    C80     1.405   .     A
C74    C78     1.418   .     A
C75    C81     1.405   .     A
C75    C77     1.418   .     A
C76    C82     1.405   .     A
C76    C78     1.418   .     A
C77    C32     1.415   1_655 S
C79    C36     1.385   1_655 S
C81    C34     1.385   1_655 S
C83    C268    1.188   1_545 S
C84    C175    1.188   .     S
C85    N86     1.157   .     T
C87    N88     1.157   .     T
C89    N90     1.157   .     T
C91    N92     1.157   .     T
O93    Cu109   1.933   .     S
O93    C101    1.274   .     A
O94    Cu110   1.933   .     S
O94    C102    1.274   .     A
O95    C102    1.274   .     A
O95    Cu109   1.932   .     S
O96    Cu110   1.932   .     S
O96    C101    1.274   .     A
H97    C125    1.083   .     S
H98    C126    1.083   .     S
H99    C127    1.083   .     S
H100   C128    1.083   .     S
C101   C129    1.405   .     S
C102   C130    1.405   .     S
O103   C107    1.277   .     A
O103   Cu109   1.969   .     S
O104   C108    1.277   .     A
O104   Cu110   1.969   .     S
O105   Cu109   1.969   .     S
O105   C108    1.277   .     A
O106   Cu110   1.969   .     S
O106   C107    1.277   .     A
C107   C118    1.455   .     S
C108   C117    1.455   .     S
Cu109  N112    1.981   .     S
Cu109  Cu110   2.636   .     S
Cu110  N111    1.981   .     S
N111   N664    1.198   1_554 S
N112   N387    1.198   .     S
C113   C131    1.454   .     S
C113   C117    1.406   .     A
C113   C121    1.407   .     A
C114   C133    1.454   .     S
C114   C118    1.406   .     A
C114   C122    1.407   .     A
C115   C119    1.407   .     A
C115   C117    1.406   .     A
C115   C135    1.454   .     S
C116   C120    1.407   .     A
C116   C137    1.454   .     S
C116   C118    1.406   .     A
C119   C125    1.405   .     A
C119   C123    1.418   .     A
C120   C126    1.405   .     A
C120   C124    1.418   .     A
C121   C127    1.405   .     A
C121   C123    1.418   .     A
C122   C128    1.405   .     A
C122   C124    1.418   .     A
C123   C170    1.415   .     S
C124   C169    1.415   1_455 S
C125   C174    1.385   .     S
C126   C173    1.385   1_455 S
C127   C172    1.385   .     S
C128   C171    1.385   1_455 S
C130   C221    1.188   .     S
C131   N132    1.157   .     T
C133   N134    1.157   .     T
C135   N136    1.157   .     T
C137   N138    1.157   .     T
O139   Cu155   1.933   .     S
O139   C147    1.274   .     A
O140   Cu156   1.933   .     S
O140   C148    1.274   .     A
O141   C148    1.274   .     A
O141   Cu155   1.932   .     S
O142   Cu156   1.932   .     S
O142   C147    1.274   .     A
H143   C171    1.083   .     S
H144   C172    1.083   .     S
H145   C173    1.083   .     S
H146   C174    1.083   .     S
C147   C175    1.405   .     S
C148   C176    1.405   .     S
O149   C153    1.277   .     A
O149   Cu155   1.969   .     S
O150   C154    1.277   .     A
O150   Cu156   1.969   .     S
O151   Cu155   1.969   .     S
O151   C154    1.277   .     A
O152   Cu156   1.969   .     S
O152   C153    1.277   .     A
C153   C164    1.455   .     S
C154   C163    1.455   .     S
Cu155  N158    1.981   .     S
Cu155  Cu156   2.636   .     S
Cu156  N157    1.981   .     S
N157   N710    1.198   1_554 S
N158   N433    1.198   .     S
C159   C177    1.454   .     S
C159   C163    1.406   .     A
C159   C167    1.407   .     A
C160   C179    1.454   .     S
C160   C164    1.406   .     A
C160   C168    1.407   .     A
C161   C165    1.407   .     A
C161   C163    1.406   .     A
C161   C181    1.454   .     S
C162   C166    1.407   .     A
C162   C183    1.454   .     S
C162   C164    1.406   .     A
C165   C171    1.405   .     A
C165   C169    1.418   .     A
C166   C172    1.405   .     A
C166   C170    1.418   .     A
C167   C173    1.405   .     A
C167   C169    1.418   .     A
C168   C174    1.405   .     A
C168   C170    1.418   .     A
C169   C124    1.415   1_655 S
C171   C128    1.385   1_655 S
C173   C126    1.385   1_655 S
C176   C267    1.188   .     S
C177   N178    1.157   .     T
C179   N180    1.157   .     T
C181   N182    1.157   .     T
C183   N184    1.157   .     T
O185   Cu201   1.933   .     S
O185   C193    1.274   .     A
O186   Cu202   1.933   .     S
O186   C194    1.274   .     A
O187   C194    1.274   .     A
O187   Cu201   1.932   .     S
O188   Cu202   1.932   .     S
O188   C193    1.274   .     A
H189   C217    1.083   .     S
H190   C218    1.083   .     S
H191   C219    1.083   .     S
H192   C220    1.083   .     S
C193   C221    1.405   .     S
C194   C222    1.405   .     S
O195   C199    1.277   .     A
O195   Cu201   1.969   .     S
O196   C200    1.277   .     A
O196   Cu202   1.969   .     S
O197   Cu201   1.969   .     S
O197   C200    1.277   .     A
O198   Cu202   1.969   .     S
O198   C199    1.277   .     A
C199   C210    1.455   .     S
C200   C209    1.455   .     S
Cu201  N204    1.981   .     S
Cu201  Cu202   2.636   .     S
Cu202  N203    1.981   .     S
N203   N756    1.198   1_554 S
N204   N479    1.198   .     S
C205   C223    1.454   .     S
C205   C209    1.406   .     A
C205   C213    1.407   .     A
C206   C225    1.454   .     S
C206   C210    1.406   .     A
C206   C214    1.407   .     A
C207   C211    1.407   .     A
C207   C209    1.406   .     A
C207   C227    1.454   .     S
C208   C212    1.407   .     A
C208   C229    1.454   .     S
C208   C210    1.406   .     A
C211   C217    1.405   .     A
C211   C215    1.418   .     A
C212   C218    1.405   .     A
C212   C216    1.418   .     A
C213   C219    1.405   .     A
C213   C215    1.418   .     A
C214   C220    1.405   .     A
C214   C216    1.418   .     A
C215   C262    1.415   .     S
C216   C261    1.415   1_455 S
C217   C266    1.385   .     S
C218   C265    1.385   1_455 S
C219   C264    1.385   .     S
C220   C263    1.385   1_455 S
C222   C37     1.188   1_565 S
C223   N224    1.157   .     T
C225   N226    1.157   .     T
C227   N228    1.157   .     T
C229   N230    1.157   .     T
O231   Cu247   1.933   .     S
O231   C239    1.274   .     A
O232   Cu248   1.933   .     S
O232   C240    1.274   .     A
O233   C240    1.274   .     A
O233   Cu247   1.932   .     S
O234   Cu248   1.932   .     S
O234   C239    1.274   .     A
H235   C263    1.083   .     S
H236   C264    1.083   .     S
H237   C265    1.083   .     S
H238   C266    1.083   .     S
C239   C267    1.405   .     S
C240   C268    1.405   .     S
O241   C245    1.277   .     A
O241   Cu247   1.969   .     S
O242   C246    1.277   .     A
O242   Cu248   1.969   .     S
O243   Cu247   1.969   .     S
O243   C246    1.277   .     A
O244   Cu248   1.969   .     S
O244   C245    1.277   .     A
C245   C256    1.455   .     S
C246   C255    1.455   .     S
Cu247  N250    1.981   .     S
Cu247  Cu248   2.636   .     S
Cu248  N249    1.981   .     S
N249   N802    1.198   1_554 S
N250   N525    1.198   .     S
C251   C269    1.454   .     S
C251   C255    1.406   .     A
C251   C259    1.407   .     A
C252   C271    1.454   .     S
C252   C256    1.406   .     A
C252   C260    1.407   .     A
C253   C257    1.407   .     A
C253   C255    1.406   .     A
C253   C273    1.454   .     S
C254   C258    1.407   .     A
C254   C275    1.454   .     S
C254   C256    1.406   .     A
C257   C263    1.405   .     A
C257   C261    1.418   .     A
C258   C264    1.405   .     A
C258   C262    1.418   .     A
C259   C265    1.405   .     A
C259   C261    1.418   .     A
C260   C266    1.405   .     A
C260   C262    1.418   .     A
C261   C216    1.415   1_655 S
C263   C220    1.385   1_655 S
C265   C218    1.385   1_655 S
C268   C83     1.188   1_565 S
C269   N270    1.157   .     T
C271   N272    1.157   .     T
C273   N274    1.157   .     T
C275   N276    1.157   .     T
O277   Cu293   1.933   .     S
O277   C285    1.274   .     A
O278   Cu294   1.933   .     S
O278   C286    1.274   .     A
O279   C286    1.274   .     A
O279   Cu293   1.932   .     S
O280   Cu294   1.932   .     S
O280   C285    1.274   .     A
H281   C309    1.083   .     S
H282   C310    1.083   .     S
H283   C311    1.083   .     S
H284   C312    1.083   .     S
C285   C313    1.405   .     S
C286   C314    1.405   .     S
O287   C291    1.277   .     A
O287   Cu293   1.969   .     S
O288   C292    1.277   .     A
O288   Cu294   1.969   .     S
O289   Cu293   1.969   .     S
O289   C292    1.277   .     A
O290   Cu294   1.969   .     S
O290   C291    1.277   .     A
C291   C302    1.455   .     S
C292   C301    1.455   .     S
Cu293  N296    1.981   .     S
Cu293  Cu294   2.636   .     S
Cu294  N295    1.981   .     S
N296   N571    1.198   .     S
C297   C315    1.454   .     S
C297   C301    1.406   .     A
C297   C305    1.407   .     A
C298   C317    1.454   .     S
C298   C302    1.406   .     A
C298   C306    1.407   .     A
C299   C303    1.407   .     A
C299   C301    1.406   .     A
C299   C319    1.454   .     S
C300   C304    1.407   .     A
C300   C321    1.454   .     S
C300   C302    1.406   .     A
C303   C309    1.405   .     A
C303   C307    1.418   .     A
C304   C310    1.405   .     A
C304   C308    1.418   .     A
C305   C311    1.405   .     A
C305   C307    1.418   .     A
C306   C312    1.405   .     A
C306   C308    1.418   .     A
C307   C354    1.415   .     S
C308   C353    1.415   1_455 S
C309   C358    1.385   .     S
C310   C357    1.385   1_455 S
C311   C356    1.385   .     S
C312   C355    1.385   1_455 S
C313   C498    1.188   1_545 S
C314   C405    1.188   .     S
C315   N316    1.157   .     T
C317   N318    1.157   .     T
C319   N320    1.157   .     T
C321   N322    1.157   .     T
O323   Cu339   1.933   .     S
O323   C331    1.274   .     A
O324   Cu340   1.933   .     S
O324   C332    1.274   .     A
O325   C332    1.274   .     A
O325   Cu339   1.932   .     S
O326   Cu340   1.932   .     S
O326   C331    1.274   .     A
H327   C355    1.083   .     S
H328   C356    1.083   .     S
H329   C357    1.083   .     S
H330   C358    1.083   .     S
C331   C359    1.405   .     S
C332   C360    1.405   .     S
O333   C337    1.277   .     A
O333   Cu339   1.969   .     S
O334   C338    1.277   .     A
O334   Cu340   1.969   .     S
O335   Cu339   1.969   .     S
O335   C338    1.277   .     A
O336   Cu340   1.969   .     S
O336   C337    1.277   .     A
C337   C348    1.455   .     S
C338   C347    1.455   .     S
Cu339  N342    1.981   .     S
Cu339  Cu340   2.636   .     S
Cu340  N341    1.981   .     S
N342   N617    1.198   .     S
C343   C361    1.454   .     S
C343   C347    1.406   .     A
C343   C351    1.407   .     A
C344   C363    1.454   .     S
C344   C348    1.406   .     A
C344   C352    1.407   .     A
C345   C349    1.407   .     A
C345   C347    1.406   .     A
C345   C365    1.454   .     S
C346   C350    1.407   .     A
C346   C367    1.454   .     S
C346   C348    1.406   .     A
C349   C355    1.405   .     A
C349   C353    1.418   .     A
C350   C356    1.405   .     A
C350   C354    1.418   .     A
C351   C357    1.405   .     A
C351   C353    1.418   .     A
C352   C358    1.405   .     A
C352   C354    1.418   .     A
C353   C308    1.415   1_655 S
C355   C312    1.385   1_655 S
C357   C310    1.385   1_655 S
C359   C544    1.188   1_545 S
C360   C451    1.188   .     S
C361   N362    1.157   .     T
C363   N364    1.157   .     T
C365   N366    1.157   .     T
C367   N368    1.157   .     T
O369   Cu385   1.933   .     S
O369   C377    1.274   .     A
O370   Cu386   1.933   .     S
O370   C378    1.274   .     A
O371   C378    1.274   .     A
O371   Cu385   1.932   .     S
O372   Cu386   1.932   .     S
O372   C377    1.274   .     A
H373   C401    1.083   .     S
H374   C402    1.083   .     S
H375   C403    1.083   .     S
H376   C404    1.083   .     S
C377   C405    1.405   .     S
C378   C406    1.405   .     S
O379   C383    1.277   .     A
O379   Cu385   1.969   .     S
O380   C384    1.277   .     A
O380   Cu386   1.969   .     S
O381   Cu385   1.969   .     S
O381   C384    1.277   .     A
O382   Cu386   1.969   .     S
O382   C383    1.277   .     A
C383   C394    1.455   .     S
C384   C393    1.455   .     S
Cu385  N388    1.981   .     S
Cu385  Cu386   2.636   .     S
Cu386  N387    1.981   .     S
N388   N663    1.198   .     S
C389   C407    1.454   .     S
C389   C393    1.406   .     A
C389   C397    1.407   .     A
C390   C409    1.454   .     S
C390   C394    1.406   .     A
C390   C398    1.407   .     A
C391   C395    1.407   .     A
C391   C393    1.406   .     A
C391   C411    1.454   .     S
C392   C396    1.407   .     A
C392   C413    1.454   .     S
C392   C394    1.406   .     A
C395   C401    1.405   .     A
C395   C399    1.418   .     A
C396   C402    1.405   .     A
C396   C400    1.418   .     A
C397   C403    1.405   .     A
C397   C399    1.418   .     A
C398   C404    1.405   .     A
C398   C400    1.418   .     A
C399   C446    1.415   .     S
C400   C445    1.415   1_455 S
C401   C450    1.385   .     S
C402   C449    1.385   1_455 S
C403   C448    1.385   .     S
C404   C447    1.385   1_455 S
C406   C497    1.188   .     S
C407   N408    1.157   .     T
C409   N410    1.157   .     T
C411   N412    1.157   .     T
C413   N414    1.157   .     T
O415   Cu431   1.933   .     S
O415   C423    1.274   .     A
O416   Cu432   1.933   .     S
O416   C424    1.274   .     A
O417   C424    1.274   .     A
O417   Cu431   1.932   .     S
O418   Cu432   1.932   .     S
O418   C423    1.274   .     A
H419   C447    1.083   .     S
H420   C448    1.083   .     S
H421   C449    1.083   .     S
H422   C450    1.083   .     S
C423   C451    1.405   .     S
C424   C452    1.405   .     S
O425   C429    1.277   .     A
O425   Cu431   1.969   .     S
O426   C430    1.277   .     A
O426   Cu432   1.969   .     S
O427   Cu431   1.969   .     S
O427   C430    1.277   .     A
O428   Cu432   1.969   .     S
O428   C429    1.277   .     A
C429   C440    1.455   .     S
C430   C439    1.455   .     S
Cu431  N434    1.981   .     S
Cu431  Cu432   2.636   .     S
Cu432  N433    1.981   .     S
N434   N709    1.198   .     S
C435   C453    1.454   .     S
C435   C439    1.406   .     A
C435   C443    1.407   .     A
C436   C455    1.454   .     S
C436   C440    1.406   .     A
C436   C444    1.407   .     A
C437   C441    1.407   .     A
C437   C439    1.406   .     A
C437   C457    1.454   .     S
C438   C442    1.407   .     A
C438   C459    1.454   .     S
C438   C440    1.406   .     A
C441   C447    1.405   .     A
C441   C445    1.418   .     A
C442   C448    1.405   .     A
C442   C446    1.418   .     A
C443   C449    1.405   .     A
C443   C445    1.418   .     A
C444   C450    1.405   .     A
C444   C446    1.418   .     A
C445   C400    1.415   1_655 S
C447   C404    1.385   1_655 S
C449   C402    1.385   1_655 S
C452   C543    1.188   .     S
C453   N454    1.157   .     T
C455   N456    1.157   .     T
C457   N458    1.157   .     T
C459   N460    1.157   .     T
O461   Cu477   1.933   .     S
O461   C469    1.274   .     A
O462   Cu478   1.933   .     S
O462   C470    1.274   .     A
O463   C470    1.274   .     A
O463   Cu477   1.932   .     S
O464   Cu478   1.932   .     S
O464   C469    1.274   .     A
H465   C493    1.083   .     S
H466   C494    1.083   .     S
H467   C495    1.083   .     S
H468   C496    1.083   .     S
C469   C497    1.405   .     S
C470   C498    1.405   .     S
O471   C475    1.277   .     A
O471   Cu477   1.969   .     S
O472   C476    1.277   .     A
O472   Cu478   1.969   .     S
O473   Cu477   1.969   .     S
O473   C476    1.277   .     A
O474   Cu478   1.969   .     S
O474   C475    1.277   .     A
C475   C486    1.455   .     S
C476   C485    1.455   .     S
Cu477  N480    1.981   .     S
Cu477  Cu478   2.636   .     S
Cu478  N479    1.981   .     S
N480   N755    1.198   .     S
C481   C499    1.454   .     S
C481   C485    1.406   .     A
C481   C489    1.407   .     A
C482   C501    1.454   .     S
C482   C486    1.406   .     A
C482   C490    1.407   .     A
C483   C487    1.407   .     A
C483   C485    1.406   .     A
C483   C503    1.454   .     S
C484   C488    1.407   .     A
C484   C505    1.454   .     S
C484   C486    1.406   .     A
C487   C493    1.405   .     A
C487   C491    1.418   .     A
C488   C494    1.405   .     A
C488   C492    1.418   .     A
C489   C495    1.405   .     A
C489   C491    1.418   .     A
C490   C496    1.405   .     A
C490   C492    1.418   .     A
C491   C538    1.415   .     S
C492   C537    1.415   1_455 S
C493   C542    1.385   .     S
C494   C541    1.385   1_455 S
C495   C540    1.385   .     S
C496   C539    1.385   1_455 S
C498   C313    1.188   1_565 S
C499   N500    1.157   .     T
C501   N502    1.157   .     T
C503   N504    1.157   .     T
C505   N506    1.157   .     T
O507   Cu523   1.933   .     S
O507   C515    1.274   .     A
O508   Cu524   1.933   .     S
O508   C516    1.274   .     A
O509   C516    1.274   .     A
O509   Cu523   1.932   .     S
O510   Cu524   1.932   .     S
O510   C515    1.274   .     A
H511   C539    1.083   .     S
H512   C540    1.083   .     S
H513   C541    1.083   .     S
H514   C542    1.083   .     S
C515   C543    1.405   .     S
C516   C544    1.405   .     S
O517   C521    1.277   .     A
O517   Cu523   1.969   .     S
O518   C522    1.277   .     A
O518   Cu524   1.969   .     S
O519   Cu523   1.969   .     S
O519   C522    1.277   .     A
O520   Cu524   1.969   .     S
O520   C521    1.277   .     A
C521   C532    1.455   .     S
C522   C531    1.455   .     S
Cu523  N526    1.981   .     S
Cu523  Cu524   2.636   .     S
Cu524  N525    1.981   .     S
N526   N801    1.198   .     S
C527   C545    1.454   .     S
C527   C531    1.406   .     A
C527   C535    1.407   .     A
C528   C547    1.454   .     S
C528   C532    1.406   .     A
C528   C536    1.407   .     A
C529   C533    1.407   .     A
C529   C531    1.406   .     A
C529   C549    1.454   .     S
C530   C534    1.407   .     A
C530   C551    1.454   .     S
C530   C532    1.406   .     A
C533   C539    1.405   .     A
C533   C537    1.418   .     A
C534   C540    1.405   .     A
C534   C538    1.418   .     A
C535   C541    1.405   .     A
C535   C537    1.418   .     A
C536   C542    1.405   .     A
C536   C538    1.418   .     A
C537   C492    1.415   1_655 S
C539   C496    1.385   1_655 S
C541   C494    1.385   1_655 S
C544   C359    1.188   1_565 S
C545   N546    1.157   .     T
C547   N548    1.157   .     T
C549   N550    1.157   .     T
C551   N552    1.157   .     T
O553   Cu569   1.933   .     S
O553   C561    1.274   .     A
O554   Cu570   1.933   .     S
O554   C562    1.274   .     A
O555   C562    1.274   .     A
O555   Cu569   1.932   .     S
O556   Cu570   1.932   .     S
O556   C561    1.274   .     A
H557   C585    1.083   .     S
H558   C586    1.083   .     S
H559   C587    1.083   .     S
H560   C588    1.083   .     S
C561   C589    1.405   .     S
C562   C590    1.405   .     S
O563   C567    1.277   .     A
O563   Cu569   1.969   .     S
O564   C568    1.277   .     A
O564   Cu570   1.969   .     S
O565   Cu569   1.969   .     S
O565   C568    1.277   .     A
O566   Cu570   1.969   .     S
O566   C567    1.277   .     A
C567   C578    1.455   .     S
C568   C577    1.455   .     S
Cu569  N572    1.981   .     S
Cu569  Cu570   2.636   .     S
Cu570  N571    1.981   .     S
N572   N19     1.198   1_556 S
C573   C591    1.454   .     S
C573   C577    1.406   .     A
C573   C581    1.407   .     A
C574   C593    1.454   .     S
C574   C578    1.406   .     A
C574   C582    1.407   .     A
C575   C579    1.407   .     A
C575   C577    1.406   .     A
C575   C595    1.454   .     S
C576   C580    1.407   .     A
C576   C597    1.454   .     S
C576   C578    1.406   .     A
C579   C585    1.405   .     A
C579   C583    1.418   .     A
C580   C586    1.405   .     A
C580   C584    1.418   .     A
C581   C587    1.405   .     A
C581   C583    1.418   .     A
C582   C588    1.405   .     A
C582   C584    1.418   .     A
C583   C630    1.415   .     S
C584   C629    1.415   1_455 S
C585   C634    1.385   .     S
C586   C633    1.385   1_455 S
C587   C632    1.385   .     S
C588   C631    1.385   1_455 S
C589   C774    1.188   1_545 S
C590   C681    1.188   .     S
C591   N592    1.157   .     T
C593   N594    1.157   .     T
C595   N596    1.157   .     T
C597   N598    1.157   .     T
O599   Cu615   1.933   .     S
O599   C607    1.274   .     A
O600   Cu616   1.933   .     S
O600   C608    1.274   .     A
O601   C608    1.274   .     A
O601   Cu615   1.932   .     S
O602   Cu616   1.932   .     S
O602   C607    1.274   .     A
H603   C631    1.083   .     S
H604   C632    1.083   .     S
H605   C633    1.083   .     S
H606   C634    1.083   .     S
C607   C635    1.405   .     S
C608   C636    1.405   .     S
O609   C613    1.277   .     A
O609   Cu615   1.969   .     S
O610   C614    1.277   .     A
O610   Cu616   1.969   .     S
O611   Cu615   1.969   .     S
O611   C614    1.277   .     A
O612   Cu616   1.969   .     S
O612   C613    1.277   .     A
C613   C624    1.455   .     S
C614   C623    1.455   .     S
Cu615  N618    1.981   .     S
Cu615  Cu616   2.636   .     S
Cu616  N617    1.981   .     S
N618   N65     1.198   1_556 S
C619   C637    1.454   .     S
C619   C623    1.406   .     A
C619   C627    1.407   .     A
C620   C639    1.454   .     S
C620   C624    1.406   .     A
C620   C628    1.407   .     A
C621   C625    1.407   .     A
C621   C623    1.406   .     A
C621   C641    1.454   .     S
C622   C626    1.407   .     A
C622   C643    1.454   .     S
C622   C624    1.406   .     A
C625   C631    1.405   .     A
C625   C629    1.418   .     A
C626   C632    1.405   .     A
C626   C630    1.418   .     A
C627   C633    1.405   .     A
C627   C629    1.418   .     A
C628   C634    1.405   .     A
C628   C630    1.418   .     A
C629   C584    1.415   1_655 S
C631   C588    1.385   1_655 S
C633   C586    1.385   1_655 S
C635   C820    1.188   1_545 S
C636   C727    1.188   .     S
C637   N638    1.157   .     T
C639   N640    1.157   .     T
C641   N642    1.157   .     T
C643   N644    1.157   .     T
O645   Cu661   1.933   .     S
O645   C653    1.274   .     A
O646   Cu662   1.933   .     S
O646   C654    1.274   .     A
O647   C654    1.274   .     A
O647   Cu661   1.932   .     S
O648   Cu662   1.932   .     S
O648   C653    1.274   .     A
H649   C677    1.083   .     S
H650   C678    1.083   .     S
H651   C679    1.083   .     S
H652   C680    1.083   .     S
C653   C681    1.405   .     S
C654   C682    1.405   .     S
O655   C659    1.277   .     A
O655   Cu661   1.969   .     S
O656   C660    1.277   .     A
O656   Cu662   1.969   .     S
O657   Cu661   1.969   .     S
O657   C660    1.277   .     A
O658   Cu662   1.969   .     S
O658   C659    1.277   .     A
C659   C670    1.455   .     S
C660   C669    1.455   .     S
Cu661  N664    1.981   .     S
Cu661  Cu662   2.636   .     S
Cu662  N663    1.981   .     S
N664   N111    1.198   1_556 S
C665   C683    1.454   .     S
C665   C669    1.406   .     A
C665   C673    1.407   .     A
C666   C685    1.454   .     S
C666   C670    1.406   .     A
C666   C674    1.407   .     A
C667   C671    1.407   .     A
C667   C669    1.406   .     A
C667   C687    1.454   .     S
C668   C672    1.407   .     A
C668   C689    1.454   .     S
C668   C670    1.406   .     A
C671   C677    1.405   .     A
C671   C675    1.418   .     A
C672   C678    1.405   .     A
C672   C676    1.418   .     A
C673   C679    1.405   .     A
C673   C675    1.418   .     A
C674   C680    1.405   .     A
C674   C676    1.418   .     A
C675   C722    1.415   .     S
C676   C721    1.415   1_455 S
C677   C726    1.385   .     S
C678   C725    1.385   1_455 S
C679   C724    1.385   .     S
C680   C723    1.385   1_455 S
C682   C773    1.188   .     S
C683   N684    1.157   .     T
C685   N686    1.157   .     T
C687   N688    1.157   .     T
C689   N690    1.157   .     T
O691   Cu707   1.933   .     S
O691   C699    1.274   .     A
O692   Cu708   1.933   .     S
O692   C700    1.274   .     A
O693   C700    1.274   .     A
O693   Cu707   1.932   .     S
O694   Cu708   1.932   .     S
O694   C699    1.274   .     A
H695   C723    1.083   .     S
H696   C724    1.083   .     S
H697   C725    1.083   .     S
H698   C726    1.083   .     S
C699   C727    1.405   .     S
C700   C728    1.405   .     S
O701   C705    1.277   .     A
O701   Cu707   1.969   .     S
O702   C706    1.277   .     A
O702   Cu708   1.969   .     S
O703   Cu707   1.969   .     S
O703   C706    1.277   .     A
O704   Cu708   1.969   .     S
O704   C705    1.277   .     A
C705   C716    1.455   .     S
C706   C715    1.455   .     S
Cu707  N710    1.981   .     S
Cu707  Cu708   2.636   .     S
Cu708  N709    1.981   .     S
N710   N157    1.198   1_556 S
C711   C729    1.454   .     S
C711   C715    1.406   .     A
C711   C719    1.407   .     A
C712   C731    1.454   .     S
C712   C716    1.406   .     A
C712   C720    1.407   .     A
C713   C717    1.407   .     A
C713   C715    1.406   .     A
C713   C733    1.454   .     S
C714   C718    1.407   .     A
C714   C735    1.454   .     S
C714   C716    1.406   .     A
C717   C723    1.405   .     A
C717   C721    1.418   .     A
C718   C724    1.405   .     A
C718   C722    1.418   .     A
C719   C725    1.405   .     A
C719   C721    1.418   .     A
C720   C726    1.405   .     A
C720   C722    1.418   .     A
C721   C676    1.415   1_655 S
C723   C680    1.385   1_655 S
C725   C678    1.385   1_655 S
C728   C819    1.188   .     S
C729   N730    1.157   .     T
C731   N732    1.157   .     T
C733   N734    1.157   .     T
C735   N736    1.157   .     T
O737   Cu753   1.933   .     S
O737   C745    1.274   .     A
O738   Cu754   1.933   .     S
O738   C746    1.274   .     A
O739   C746    1.274   .     A
O739   Cu753   1.932   .     S
O740   Cu754   1.932   .     S
O740   C745    1.274   .     A
H741   C769    1.083   .     S
H742   C770    1.083   .     S
H743   C771    1.083   .     S
H744   C772    1.083   .     S
C745   C773    1.405   .     S
C746   C774    1.405   .     S
O747   C751    1.277   .     A
O747   Cu753   1.969   .     S
O748   C752    1.277   .     A
O748   Cu754   1.969   .     S
O749   Cu753   1.969   .     S
O749   C752    1.277   .     A
O750   Cu754   1.969   .     S
O750   C751    1.277   .     A
C751   C762    1.455   .     S
C752   C761    1.455   .     S
Cu753  N756    1.981   .     S
Cu753  Cu754   2.636   .     S
Cu754  N755    1.981   .     S
N756   N203    1.198   1_556 S
C757   C775    1.454   .     S
C757   C761    1.406   .     A
C757   C765    1.407   .     A
C758   C777    1.454   .     S
C758   C762    1.406   .     A
C758   C766    1.407   .     A
C759   C763    1.407   .     A
C759   C761    1.406   .     A
C759   C779    1.454   .     S
C760   C764    1.407   .     A
C760   C781    1.454   .     S
C760   C762    1.406   .     A
C763   C769    1.405   .     A
C763   C767    1.418   .     A
C764   C770    1.405   .     A
C764   C768    1.418   .     A
C765   C771    1.405   .     A
C765   C767    1.418   .     A
C766   C772    1.405   .     A
C766   C768    1.418   .     A
C767   C814    1.415   .     S
C768   C813    1.415   1_455 S
C769   C818    1.385   .     S
C770   C817    1.385   1_455 S
C771   C816    1.385   .     S
C772   C815    1.385   1_455 S
C774   C589    1.188   1_565 S
C775   N776    1.157   .     T
C777   N778    1.157   .     T
C779   N780    1.157   .     T
C781   N782    1.157   .     T
O783   Cu799   1.933   .     S
O783   C791    1.274   .     A
O784   Cu800   1.933   .     S
O784   C792    1.274   .     A
O785   C792    1.274   .     A
O785   Cu799   1.932   .     S
O786   Cu800   1.932   .     S
O786   C791    1.274   .     A
H787   C815    1.083   .     S
H788   C816    1.083   .     S
H789   C817    1.083   .     S
H790   C818    1.083   .     S
C791   C819    1.405   .     S
C792   C820    1.405   .     S
O793   C797    1.277   .     A
O793   Cu799   1.969   .     S
O794   C798    1.277   .     A
O794   Cu800   1.969   .     S
O795   Cu799   1.969   .     S
O795   C798    1.277   .     A
O796   Cu800   1.969   .     S
O796   C797    1.277   .     A
C797   C808    1.455   .     S
C798   C807    1.455   .     S
Cu799  N802    1.981   .     S
Cu799  Cu800   2.636   .     S
Cu800  N801    1.981   .     S
N802   N249    1.198   1_556 S
C803   C821    1.454   .     S
C803   C807    1.406   .     A
C803   C811    1.407   .     A
C804   C823    1.454   .     S
C804   C808    1.406   .     A
C804   C812    1.407   .     A
C805   C809    1.407   .     A
C805   C807    1.406   .     A
C805   C825    1.454   .     S
C806   C810    1.407   .     A
C806   C827    1.454   .     S
C806   C808    1.406   .     A
C809   C815    1.405   .     A
C809   C813    1.418   .     A
C810   C816    1.405   .     A
C810   C814    1.418   .     A
C811   C817    1.405   .     A
C811   C813    1.418   .     A
C812   C818    1.405   .     A
C812   C814    1.418   .     A
C813   C768    1.415   1_655 S
C815   C772    1.385   1_655 S
C817   C770    1.385   1_655 S
C820   C635    1.188   1_565 S
C821   N822    1.157   .     T
C823   N824    1.157   .     T
C825   N826    1.157   .     T
C827   N828    1.157   .     T
