data_str_m2_o1_o17_pcu_sym.145
_audit_creation_date              2020-01-03
_audit_creation_method            'Materials Studio'
_symmetry_space_group_name_H-M    'P1'
_symmetry_Int_Tables_number       1
_symmetry_cell_setting            triclinic
loop_
_symmetry_equiv_pos_as_xyz
  x,y,z
_cell_length_a                    32.4956
_cell_length_b                    28.5572
_cell_length_c                    30.0940
_cell_angle_alpha                 90.0528
_cell_angle_beta                  90.0916
_cell_angle_gamma                 90.0344
loop_
_atom_site_label
_atom_site_type_symbol
_atom_site_fract_x
_atom_site_fract_y
_atom_site_fract_z
_atom_site_U_iso_or_equiv
_atom_site_adp_type
_atom_site_occupancy
C1     C     0.08735   0.16666   0.24995   0.00000  Uiso   1.00
C2     C     0.24598   0.16667   0.25005   0.00000  Uiso   1.00
C3     C     0.10851   0.22163   0.02050   0.00000  Uiso   1.00
C4     C     0.22483   0.11170   0.47950   0.00000  Uiso   1.00
C5     C     0.02126   0.12413   0.25127   0.00000  Uiso   1.00
C6     C     0.31207   0.20920   0.24873   0.00000  Uiso   1.00
C7     C     0.31202   0.12414   0.25138   0.00000  Uiso   1.00
C8     C     0.02131   0.20919   0.24862   0.00000  Uiso   1.00
C9     C     0.29059   0.16668   0.25008   0.00000  Uiso   1.00
C10    C     0.04274   0.16666   0.24992   0.00000  Uiso   1.00
C11    C     0.14059   0.02476   0.22294   0.00000  Uiso   1.00
C12    C     0.19274   0.30857   0.27706   0.00000  Uiso   1.00
C13    C     0.19274   0.02485   0.27706   0.00000  Uiso   1.00
C14    C     0.14059   0.30848   0.22294   0.00000  Uiso   1.00
C15    C     0.16514   0.16664   0.16448   0.00000  Uiso   1.00
C16    C     0.16820   0.16669   0.33552   0.00000  Uiso   1.00
C17    C     0.19972   0.14032   0.40754   0.00000  Uiso   1.00
C18    C     0.13362   0.19301   0.09246   0.00000  Uiso   1.00
C19    C     0.17013   0.16686   0.38377   0.00000  Uiso   1.00
C20    C     0.16321   0.16647   0.11623   0.00000  Uiso   1.00
C21    C     0.14116   0.19418   0.40617   0.00000  Uiso   1.00
C22    C     0.19217   0.13916   0.09384   0.00000  Uiso   1.00
C23    C     0.13976   0.19446   0.45229   0.00000  Uiso   1.00
C24    C     0.19357   0.13887   0.04771   0.00000  Uiso   1.00
C25    C     0.16765   0.16675   0.47663   0.00000  Uiso   1.00
C26    C     0.16568   0.16659   0.02337   0.00000  Uiso   1.00
C27    C     0.19758   0.13937   0.45435   0.00000  Uiso   1.00
C28    C     0.13576   0.19397   0.04565   0.00000  Uiso   1.00
C29    C     0.11049   0.22177   0.47434   0.00000  Uiso   1.00
C30    C     0.22285   0.11156   0.02566   0.00000  Uiso   1.00
Cu31   Cu    0.16667   0.21355   0.25000   0.00000  Uiso   1.00
Cu32   Cu    0.16667   0.11978   0.25000   0.00000  Uiso   1.00
H33    H     0.11908   0.21473   0.38739   0.00000  Uiso   1.00
H34    H     0.21426   0.11861   0.11261   0.00000  Uiso   1.00
H35    H     0.08901   0.24329   0.45583   0.00000  Uiso   1.00
H36    H     0.24432   0.09005   0.04417   0.00000  Uiso   1.00
H37    H     0.08559   0.24355   0.03623   0.00000  Uiso   1.00
H38    H     0.24775   0.08979   0.46377   0.00000  Uiso   1.00
H39    H     0.03726   0.09088   0.25231   0.00000  Uiso   1.00
H40    H     0.29608   0.24246   0.24769   0.00000  Uiso   1.00
H41    H     0.29599   0.09089   0.25250   0.00000  Uiso   1.00
H42    H     0.03734   0.24244   0.24750   0.00000  Uiso   1.00
H43    H     0.11970   0.04342   0.20126   0.00000  Uiso   1.00
H44    H     0.21363   0.28991   0.29875   0.00000  Uiso   1.00
H45    H     0.21363   0.04358   0.29875   0.00000  Uiso   1.00
H46    H     0.11970   0.28975   0.20125   0.00000  Uiso   1.00
N47    N     0.16667   0.28402   0.25000   0.00000  Uiso   1.00
N48    N     0.16667   0.04931   0.25000   0.00000  Uiso   1.00
O49    O     0.10655   0.20625   0.25000   0.00000  Uiso   1.00
O50    O     0.22679   0.12709   0.25001   0.00000  Uiso   1.00
O51    O     0.22679   0.20625   0.25001   0.00000  Uiso   1.00
O52    O     0.10655   0.12709   0.25000   0.00000  Uiso   1.00
O53    O     0.16666   0.20627   0.18513   0.00000  Uiso   1.00
O54    O     0.16668   0.12707   0.31487   0.00000  Uiso   1.00
O55    O     0.16668   0.20627   0.31487   0.00000  Uiso   1.00
O56    O     0.16666   0.12707   0.18513   0.00000  Uiso   1.00
N57    N     0.23273   0.11578   0.38540   0.00000  Uiso   1.00
H58    H     0.23258   0.12087   0.35115   0.00000  Uiso   1.00
H59    H     0.26039   0.13081   0.39608   0.00000  Uiso   1.00
N60    N     0.10060   0.21755   0.11460   0.00000  Uiso   1.00
H61    H     0.10075   0.21245   0.14885   0.00000  Uiso   1.00
H62    H     0.07295   0.20252   0.10391   0.00000  Uiso   1.00
C63    C     0.42069   0.16666   0.24995   0.00000  Uiso   1.00
C64    C     0.57931   0.16667   0.25005   0.00000  Uiso   1.00
C65    C     0.44184   0.22163   0.02050   0.00000  Uiso   1.00
C66    C     0.55816   0.11170   0.47950   0.00000  Uiso   1.00
C67    C     0.35459   0.12413   0.25127   0.00000  Uiso   1.00
C68    C     0.64541   0.20920   0.24873   0.00000  Uiso   1.00
C69    C     0.64536   0.12414   0.25138   0.00000  Uiso   1.00
C70    C     0.35464   0.20919   0.24862   0.00000  Uiso   1.00
C71    C     0.62393   0.16668   0.25008   0.00000  Uiso   1.00
C72    C     0.37607   0.16666   0.24992   0.00000  Uiso   1.00
C73    C     0.47392   0.02476   0.22294   0.00000  Uiso   1.00
C74    C     0.52608   0.30857   0.27706   0.00000  Uiso   1.00
C75    C     0.52608   0.02485   0.27706   0.00000  Uiso   1.00
C76    C     0.47392   0.30848   0.22294   0.00000  Uiso   1.00
C77    C     0.49847   0.16664   0.16448   0.00000  Uiso   1.00
C78    C     0.50153   0.16669   0.33552   0.00000  Uiso   1.00
C79    C     0.53305   0.14032   0.40754   0.00000  Uiso   1.00
C80    C     0.46695   0.19301   0.09246   0.00000  Uiso   1.00
C81    C     0.50346   0.16686   0.38377   0.00000  Uiso   1.00
C82    C     0.49654   0.16647   0.11623   0.00000  Uiso   1.00
C83    C     0.47450   0.19418   0.40617   0.00000  Uiso   1.00
C84    C     0.52551   0.13916   0.09384   0.00000  Uiso   1.00
C85    C     0.47309   0.19446   0.45229   0.00000  Uiso   1.00
C86    C     0.52691   0.13887   0.04771   0.00000  Uiso   1.00
C87    C     0.50099   0.16675   0.47663   0.00000  Uiso   1.00
C88    C     0.49902   0.16659   0.02337   0.00000  Uiso   1.00
C89    C     0.53091   0.13937   0.45435   0.00000  Uiso   1.00
C90    C     0.46909   0.19397   0.04565   0.00000  Uiso   1.00
C91    C     0.44382   0.22177   0.47434   0.00000  Uiso   1.00
C92    C     0.55618   0.11156   0.02566   0.00000  Uiso   1.00
Cu93   Cu    0.50000   0.21355   0.25000   0.00000  Uiso   1.00
Cu94   Cu    0.50000   0.11978   0.25000   0.00000  Uiso   1.00
H95    H     0.45241   0.21473   0.38739   0.00000  Uiso   1.00
H96    H     0.54759   0.11861   0.11261   0.00000  Uiso   1.00
H97    H     0.42235   0.24329   0.45583   0.00000  Uiso   1.00
H98    H     0.57766   0.09005   0.04417   0.00000  Uiso   1.00
H99    H     0.41892   0.24355   0.03623   0.00000  Uiso   1.00
H100   H     0.58108   0.08979   0.46377   0.00000  Uiso   1.00
H101   H     0.37059   0.09088   0.25231   0.00000  Uiso   1.00
H102   H     0.62941   0.24246   0.24769   0.00000  Uiso   1.00
H103   H     0.62932   0.09089   0.25250   0.00000  Uiso   1.00
H104   H     0.37068   0.24244   0.24750   0.00000  Uiso   1.00
H105   H     0.45304   0.04342   0.20126   0.00000  Uiso   1.00
H106   H     0.54697   0.28991   0.29875   0.00000  Uiso   1.00
H107   H     0.54697   0.04358   0.29875   0.00000  Uiso   1.00
H108   H     0.45303   0.28975   0.20125   0.00000  Uiso   1.00
N109   N     0.50000   0.28402   0.25000   0.00000  Uiso   1.00
N110   N     0.50000   0.04931   0.25000   0.00000  Uiso   1.00
O111   O     0.43988   0.20625   0.25000   0.00000  Uiso   1.00
O112   O     0.56012   0.12709   0.25001   0.00000  Uiso   1.00
O113   O     0.56012   0.20625   0.25001   0.00000  Uiso   1.00
O114   O     0.43988   0.12709   0.25000   0.00000  Uiso   1.00
O115   O     0.49999   0.20627   0.18513   0.00000  Uiso   1.00
O116   O     0.50001   0.12707   0.31487   0.00000  Uiso   1.00
O117   O     0.50001   0.20627   0.31487   0.00000  Uiso   1.00
O118   O     0.49999   0.12707   0.18513   0.00000  Uiso   1.00
N119   N     0.56606   0.11578   0.38540   0.00000  Uiso   1.00
H120   H     0.56591   0.12087   0.35115   0.00000  Uiso   1.00
H121   H     0.59372   0.13081   0.39608   0.00000  Uiso   1.00
N122   N     0.43394   0.21755   0.11460   0.00000  Uiso   1.00
H123   H     0.43409   0.21245   0.14885   0.00000  Uiso   1.00
H124   H     0.40628   0.20252   0.10391   0.00000  Uiso   1.00
C125   C     0.75402   0.16666   0.24995   0.00000  Uiso   1.00
C126   C     0.91265   0.16667   0.25005   0.00000  Uiso   1.00
C127   C     0.77517   0.22163   0.02050   0.00000  Uiso   1.00
C128   C     0.89150   0.11170   0.47950   0.00000  Uiso   1.00
C129   C     0.68793   0.12413   0.25127   0.00000  Uiso   1.00
C130   C     0.97874   0.20920   0.24873   0.00000  Uiso   1.00
C131   C     0.97869   0.12414   0.25138   0.00000  Uiso   1.00
C132   C     0.68798   0.20919   0.24862   0.00000  Uiso   1.00
C133   C     0.95726   0.16668   0.25008   0.00000  Uiso   1.00
C134   C     0.70941   0.16666   0.24992   0.00000  Uiso   1.00
C135   C     0.80726   0.02476   0.22294   0.00000  Uiso   1.00
C136   C     0.85941   0.30857   0.27706   0.00000  Uiso   1.00
C137   C     0.85941   0.02485   0.27706   0.00000  Uiso   1.00
C138   C     0.80726   0.30848   0.22294   0.00000  Uiso   1.00
C139   C     0.83180   0.16664   0.16448   0.00000  Uiso   1.00
C140   C     0.83486   0.16669   0.33552   0.00000  Uiso   1.00
C141   C     0.86638   0.14032   0.40754   0.00000  Uiso   1.00
C142   C     0.80028   0.19301   0.09246   0.00000  Uiso   1.00
C143   C     0.83679   0.16686   0.38377   0.00000  Uiso   1.00
C144   C     0.82987   0.16647   0.11623   0.00000  Uiso   1.00
C145   C     0.80783   0.19418   0.40617   0.00000  Uiso   1.00
C146   C     0.85884   0.13916   0.09384   0.00000  Uiso   1.00
C147   C     0.80643   0.19446   0.45229   0.00000  Uiso   1.00
C148   C     0.86024   0.13887   0.04771   0.00000  Uiso   1.00
C149   C     0.83432   0.16675   0.47663   0.00000  Uiso   1.00
C150   C     0.83235   0.16659   0.02337   0.00000  Uiso   1.00
C151   C     0.86424   0.13937   0.45435   0.00000  Uiso   1.00
C152   C     0.80243   0.19397   0.04565   0.00000  Uiso   1.00
C153   C     0.77716   0.22177   0.47434   0.00000  Uiso   1.00
C154   C     0.88951   0.11156   0.02566   0.00000  Uiso   1.00
Cu155  Cu    0.83333   0.21355   0.25000   0.00000  Uiso   1.00
Cu156  Cu    0.83333   0.11978   0.25000   0.00000  Uiso   1.00
H157   H     0.78574   0.21473   0.38739   0.00000  Uiso   1.00
H158   H     0.88092   0.11861   0.11261   0.00000  Uiso   1.00
H159   H     0.75568   0.24329   0.45583   0.00000  Uiso   1.00
H160   H     0.91099   0.09005   0.04417   0.00000  Uiso   1.00
H161   H     0.75225   0.24355   0.03623   0.00000  Uiso   1.00
H162   H     0.91442   0.08979   0.46377   0.00000  Uiso   1.00
H163   H     0.70392   0.09088   0.25231   0.00000  Uiso   1.00
H164   H     0.96274   0.24246   0.24769   0.00000  Uiso   1.00
H165   H     0.96266   0.09089   0.25250   0.00000  Uiso   1.00
H166   H     0.70401   0.24244   0.24750   0.00000  Uiso   1.00
H167   H     0.78637   0.04342   0.20126   0.00000  Uiso   1.00
H168   H     0.88030   0.28991   0.29875   0.00000  Uiso   1.00
H169   H     0.88030   0.04358   0.29875   0.00000  Uiso   1.00
H170   H     0.78637   0.28975   0.20125   0.00000  Uiso   1.00
N171   N     0.83333   0.28402   0.25000   0.00000  Uiso   1.00
N172   N     0.83333   0.04931   0.25000   0.00000  Uiso   1.00
O173   O     0.77321   0.20625   0.25000   0.00000  Uiso   1.00
O174   O     0.89345   0.12709   0.25001   0.00000  Uiso   1.00
O175   O     0.89345   0.20625   0.25001   0.00000  Uiso   1.00
O176   O     0.77321   0.12709   0.25000   0.00000  Uiso   1.00
O177   O     0.83332   0.20627   0.18513   0.00000  Uiso   1.00
O178   O     0.83334   0.12707   0.31487   0.00000  Uiso   1.00
O179   O     0.83334   0.20627   0.31487   0.00000  Uiso   1.00
O180   O     0.83332   0.12707   0.18513   0.00000  Uiso   1.00
N181   N     0.89940   0.11578   0.38540   0.00000  Uiso   1.00
H182   H     0.89924   0.12087   0.35115   0.00000  Uiso   1.00
H183   H     0.92705   0.13081   0.39608   0.00000  Uiso   1.00
N184   N     0.76727   0.21755   0.11460   0.00000  Uiso   1.00
H185   H     0.76742   0.21245   0.14885   0.00000  Uiso   1.00
H186   H     0.73961   0.20252   0.10391   0.00000  Uiso   1.00
C187   C     0.08735   0.49999   0.24995   0.00000  Uiso   1.00
C188   C     0.24598   0.50001   0.25005   0.00000  Uiso   1.00
C189   C     0.10851   0.55497   0.02050   0.00000  Uiso   1.00
C190   C     0.22483   0.44504   0.47950   0.00000  Uiso   1.00
C191   C     0.02126   0.45746   0.25127   0.00000  Uiso   1.00
C192   C     0.31207   0.54254   0.24873   0.00000  Uiso   1.00
C193   C     0.31202   0.45747   0.25138   0.00000  Uiso   1.00
C194   C     0.02131   0.54253   0.24862   0.00000  Uiso   1.00
C195   C     0.29059   0.50001   0.25008   0.00000  Uiso   1.00
C196   C     0.04274   0.49999   0.24992   0.00000  Uiso   1.00
C197   C     0.14059   0.35809   0.22294   0.00000  Uiso   1.00
C198   C     0.19274   0.64191   0.27706   0.00000  Uiso   1.00
C199   C     0.19274   0.35818   0.27706   0.00000  Uiso   1.00
C200   C     0.14059   0.64182   0.22294   0.00000  Uiso   1.00
C201   C     0.16514   0.49998   0.16448   0.00000  Uiso   1.00
C202   C     0.16820   0.50002   0.33552   0.00000  Uiso   1.00
C203   C     0.19972   0.47365   0.40754   0.00000  Uiso   1.00
C204   C     0.13362   0.52635   0.09246   0.00000  Uiso   1.00
C205   C     0.17013   0.50019   0.38377   0.00000  Uiso   1.00
C206   C     0.16321   0.49981   0.11623   0.00000  Uiso   1.00
C207   C     0.14116   0.52751   0.40617   0.00000  Uiso   1.00
C208   C     0.19217   0.47249   0.09384   0.00000  Uiso   1.00
C209   C     0.13976   0.52779   0.45229   0.00000  Uiso   1.00
C210   C     0.19357   0.47221   0.04771   0.00000  Uiso   1.00
C211   C     0.16765   0.50008   0.47663   0.00000  Uiso   1.00
C212   C     0.16568   0.49992   0.02337   0.00000  Uiso   1.00
C213   C     0.19758   0.47270   0.45435   0.00000  Uiso   1.00
C214   C     0.13576   0.52730   0.04565   0.00000  Uiso   1.00
C215   C     0.11049   0.55511   0.47434   0.00000  Uiso   1.00
C216   C     0.22285   0.44490   0.02566   0.00000  Uiso   1.00
Cu217  Cu    0.16667   0.54689   0.25000   0.00000  Uiso   1.00
Cu218  Cu    0.16667   0.45311   0.25000   0.00000  Uiso   1.00
H219   H     0.11908   0.54806   0.38739   0.00000  Uiso   1.00
H220   H     0.21426   0.45194   0.11261   0.00000  Uiso   1.00
H221   H     0.08901   0.57663   0.45583   0.00000  Uiso   1.00
H222   H     0.24432   0.42338   0.04417   0.00000  Uiso   1.00
H223   H     0.08559   0.57688   0.03623   0.00000  Uiso   1.00
H224   H     0.24775   0.42312   0.46377   0.00000  Uiso   1.00
H225   H     0.03726   0.42421   0.25231   0.00000  Uiso   1.00
H226   H     0.29608   0.57579   0.24769   0.00000  Uiso   1.00
H227   H     0.29599   0.42423   0.25250   0.00000  Uiso   1.00
H228   H     0.03734   0.57577   0.24750   0.00000  Uiso   1.00
H229   H     0.11970   0.37675   0.20126   0.00000  Uiso   1.00
H230   H     0.21363   0.62324   0.29875   0.00000  Uiso   1.00
H231   H     0.21363   0.37692   0.29875   0.00000  Uiso   1.00
H232   H     0.11970   0.62308   0.20125   0.00000  Uiso   1.00
N233   N     0.16667   0.61736   0.25000   0.00000  Uiso   1.00
N234   N     0.16667   0.38264   0.25000   0.00000  Uiso   1.00
O235   O     0.10655   0.53958   0.25000   0.00000  Uiso   1.00
O236   O     0.22679   0.46042   0.25001   0.00000  Uiso   1.00
O237   O     0.22679   0.53958   0.25001   0.00000  Uiso   1.00
O238   O     0.10655   0.46042   0.25000   0.00000  Uiso   1.00
O239   O     0.16666   0.53960   0.18513   0.00000  Uiso   1.00
O240   O     0.16668   0.46040   0.31487   0.00000  Uiso   1.00
O241   O     0.16668   0.53960   0.31487   0.00000  Uiso   1.00
O242   O     0.16666   0.46040   0.18513   0.00000  Uiso   1.00
N243   N     0.23273   0.44911   0.38540   0.00000  Uiso   1.00
H244   H     0.23258   0.45420   0.35115   0.00000  Uiso   1.00
H245   H     0.26039   0.46415   0.39608   0.00000  Uiso   1.00
N246   N     0.10060   0.55089   0.11460   0.00000  Uiso   1.00
H247   H     0.10075   0.54579   0.14885   0.00000  Uiso   1.00
H248   H     0.07295   0.53585   0.10391   0.00000  Uiso   1.00
C249   C     0.42069   0.49999   0.24995   0.00000  Uiso   1.00
C250   C     0.57931   0.50001   0.25005   0.00000  Uiso   1.00
C251   C     0.44184   0.55497   0.02050   0.00000  Uiso   1.00
C252   C     0.55816   0.44504   0.47950   0.00000  Uiso   1.00
C253   C     0.35459   0.45746   0.25127   0.00000  Uiso   1.00
C254   C     0.64541   0.54254   0.24873   0.00000  Uiso   1.00
C255   C     0.64536   0.45747   0.25138   0.00000  Uiso   1.00
C256   C     0.35464   0.54253   0.24862   0.00000  Uiso   1.00
C257   C     0.62393   0.50001   0.25008   0.00000  Uiso   1.00
C258   C     0.37607   0.49999   0.24992   0.00000  Uiso   1.00
C259   C     0.47392   0.35809   0.22294   0.00000  Uiso   1.00
C260   C     0.52608   0.64191   0.27706   0.00000  Uiso   1.00
C261   C     0.52608   0.35818   0.27706   0.00000  Uiso   1.00
C262   C     0.47392   0.64182   0.22294   0.00000  Uiso   1.00
C263   C     0.49847   0.49998   0.16448   0.00000  Uiso   1.00
C264   C     0.50153   0.50002   0.33552   0.00000  Uiso   1.00
C265   C     0.53305   0.47365   0.40754   0.00000  Uiso   1.00
C266   C     0.46695   0.52635   0.09246   0.00000  Uiso   1.00
C267   C     0.50346   0.50019   0.38377   0.00000  Uiso   1.00
C268   C     0.49654   0.49981   0.11623   0.00000  Uiso   1.00
C269   C     0.47450   0.52751   0.40617   0.00000  Uiso   1.00
C270   C     0.52551   0.47249   0.09384   0.00000  Uiso   1.00
C271   C     0.47309   0.52779   0.45229   0.00000  Uiso   1.00
C272   C     0.52691   0.47221   0.04771   0.00000  Uiso   1.00
C273   C     0.50099   0.50008   0.47663   0.00000  Uiso   1.00
C274   C     0.49902   0.49992   0.02337   0.00000  Uiso   1.00
C275   C     0.53091   0.47270   0.45435   0.00000  Uiso   1.00
C276   C     0.46909   0.52730   0.04565   0.00000  Uiso   1.00
C277   C     0.44382   0.55511   0.47434   0.00000  Uiso   1.00
C278   C     0.55618   0.44490   0.02566   0.00000  Uiso   1.00
Cu279  Cu    0.50000   0.54689   0.25000   0.00000  Uiso   1.00
Cu280  Cu    0.50000   0.45311   0.25000   0.00000  Uiso   1.00
H281   H     0.45241   0.54806   0.38739   0.00000  Uiso   1.00
H282   H     0.54759   0.45194   0.11261   0.00000  Uiso   1.00
H283   H     0.42235   0.57663   0.45583   0.00000  Uiso   1.00
H284   H     0.57766   0.42338   0.04417   0.00000  Uiso   1.00
H285   H     0.41892   0.57688   0.03623   0.00000  Uiso   1.00
H286   H     0.58108   0.42312   0.46377   0.00000  Uiso   1.00
H287   H     0.37059   0.42421   0.25231   0.00000  Uiso   1.00
H288   H     0.62941   0.57579   0.24769   0.00000  Uiso   1.00
H289   H     0.62932   0.42423   0.25250   0.00000  Uiso   1.00
H290   H     0.37068   0.57577   0.24750   0.00000  Uiso   1.00
H291   H     0.45304   0.37675   0.20126   0.00000  Uiso   1.00
H292   H     0.54697   0.62324   0.29875   0.00000  Uiso   1.00
H293   H     0.54697   0.37692   0.29875   0.00000  Uiso   1.00
H294   H     0.45303   0.62308   0.20125   0.00000  Uiso   1.00
N295   N     0.50000   0.61736   0.25000   0.00000  Uiso   1.00
N296   N     0.50000   0.38264   0.25000   0.00000  Uiso   1.00
O297   O     0.43988   0.53958   0.25000   0.00000  Uiso   1.00
O298   O     0.56012   0.46042   0.25001   0.00000  Uiso   1.00
O299   O     0.56012   0.53958   0.25001   0.00000  Uiso   1.00
O300   O     0.43988   0.46042   0.25000   0.00000  Uiso   1.00
O301   O     0.49999   0.53960   0.18513   0.00000  Uiso   1.00
O302   O     0.50001   0.46040   0.31487   0.00000  Uiso   1.00
O303   O     0.50001   0.53960   0.31487   0.00000  Uiso   1.00
O304   O     0.49999   0.46040   0.18513   0.00000  Uiso   1.00
N305   N     0.56606   0.44911   0.38540   0.00000  Uiso   1.00
H306   H     0.56591   0.45420   0.35115   0.00000  Uiso   1.00
H307   H     0.59372   0.46415   0.39608   0.00000  Uiso   1.00
N308   N     0.43394   0.55089   0.11460   0.00000  Uiso   1.00
H309   H     0.43409   0.54579   0.14885   0.00000  Uiso   1.00
H310   H     0.40628   0.53585   0.10391   0.00000  Uiso   1.00
C311   C     0.75402   0.49999   0.24995   0.00000  Uiso   1.00
C312   C     0.91265   0.50001   0.25005   0.00000  Uiso   1.00
C313   C     0.77517   0.55497   0.02050   0.00000  Uiso   1.00
C314   C     0.89150   0.44504   0.47950   0.00000  Uiso   1.00
C315   C     0.68793   0.45746   0.25127   0.00000  Uiso   1.00
C316   C     0.97874   0.54254   0.24873   0.00000  Uiso   1.00
C317   C     0.97869   0.45747   0.25138   0.00000  Uiso   1.00
C318   C     0.68798   0.54253   0.24862   0.00000  Uiso   1.00
C319   C     0.95726   0.50001   0.25008   0.00000  Uiso   1.00
C320   C     0.70941   0.49999   0.24992   0.00000  Uiso   1.00
C321   C     0.80726   0.35809   0.22294   0.00000  Uiso   1.00
C322   C     0.85941   0.64191   0.27706   0.00000  Uiso   1.00
C323   C     0.85941   0.35818   0.27706   0.00000  Uiso   1.00
C324   C     0.80726   0.64182   0.22294   0.00000  Uiso   1.00
C325   C     0.83180   0.49998   0.16448   0.00000  Uiso   1.00
C326   C     0.83486   0.50002   0.33552   0.00000  Uiso   1.00
C327   C     0.86638   0.47365   0.40754   0.00000  Uiso   1.00
C328   C     0.80028   0.52635   0.09246   0.00000  Uiso   1.00
C329   C     0.83679   0.50019   0.38377   0.00000  Uiso   1.00
C330   C     0.82987   0.49981   0.11623   0.00000  Uiso   1.00
C331   C     0.80783   0.52751   0.40617   0.00000  Uiso   1.00
C332   C     0.85884   0.47249   0.09384   0.00000  Uiso   1.00
C333   C     0.80643   0.52779   0.45229   0.00000  Uiso   1.00
C334   C     0.86024   0.47221   0.04771   0.00000  Uiso   1.00
C335   C     0.83432   0.50008   0.47663   0.00000  Uiso   1.00
C336   C     0.83235   0.49992   0.02337   0.00000  Uiso   1.00
C337   C     0.86424   0.47270   0.45435   0.00000  Uiso   1.00
C338   C     0.80243   0.52730   0.04565   0.00000  Uiso   1.00
C339   C     0.77716   0.55511   0.47434   0.00000  Uiso   1.00
C340   C     0.88951   0.44490   0.02566   0.00000  Uiso   1.00
Cu341  Cu    0.83333   0.54689   0.25000   0.00000  Uiso   1.00
Cu342  Cu    0.83333   0.45311   0.25000   0.00000  Uiso   1.00
H343   H     0.78574   0.54806   0.38739   0.00000  Uiso   1.00
H344   H     0.88092   0.45194   0.11261   0.00000  Uiso   1.00
H345   H     0.75568   0.57663   0.45583   0.00000  Uiso   1.00
H346   H     0.91099   0.42338   0.04417   0.00000  Uiso   1.00
H347   H     0.75225   0.57688   0.03623   0.00000  Uiso   1.00
H348   H     0.91442   0.42312   0.46377   0.00000  Uiso   1.00
H349   H     0.70392   0.42421   0.25231   0.00000  Uiso   1.00
H350   H     0.96274   0.57579   0.24769   0.00000  Uiso   1.00
H351   H     0.96266   0.42423   0.25250   0.00000  Uiso   1.00
H352   H     0.70401   0.57577   0.24750   0.00000  Uiso   1.00
H353   H     0.78637   0.37675   0.20126   0.00000  Uiso   1.00
H354   H     0.88030   0.62324   0.29875   0.00000  Uiso   1.00
H355   H     0.88030   0.37692   0.29875   0.00000  Uiso   1.00
H356   H     0.78637   0.62308   0.20125   0.00000  Uiso   1.00
N357   N     0.83333   0.61736   0.25000   0.00000  Uiso   1.00
N358   N     0.83333   0.38264   0.25000   0.00000  Uiso   1.00
O359   O     0.77321   0.53958   0.25000   0.00000  Uiso   1.00
O360   O     0.89345   0.46042   0.25001   0.00000  Uiso   1.00
O361   O     0.89345   0.53958   0.25001   0.00000  Uiso   1.00
O362   O     0.77321   0.46042   0.25000   0.00000  Uiso   1.00
O363   O     0.83332   0.53960   0.18513   0.00000  Uiso   1.00
O364   O     0.83334   0.46040   0.31487   0.00000  Uiso   1.00
O365   O     0.83334   0.53960   0.31487   0.00000  Uiso   1.00
O366   O     0.83332   0.46040   0.18513   0.00000  Uiso   1.00
N367   N     0.89940   0.44911   0.38540   0.00000  Uiso   1.00
H368   H     0.89924   0.45420   0.35115   0.00000  Uiso   1.00
H369   H     0.92705   0.46415   0.39608   0.00000  Uiso   1.00
N370   N     0.76727   0.55089   0.11460   0.00000  Uiso   1.00
H371   H     0.76742   0.54579   0.14885   0.00000  Uiso   1.00
H372   H     0.73961   0.53585   0.10391   0.00000  Uiso   1.00
C373   C     0.08735   0.83333   0.24995   0.00000  Uiso   1.00
C374   C     0.24598   0.83334   0.25005   0.00000  Uiso   1.00
C375   C     0.10851   0.88830   0.02050   0.00000  Uiso   1.00
C376   C     0.22483   0.77837   0.47950   0.00000  Uiso   1.00
C377   C     0.02126   0.79080   0.25127   0.00000  Uiso   1.00
C378   C     0.31207   0.87587   0.24873   0.00000  Uiso   1.00
C379   C     0.31202   0.79081   0.25138   0.00000  Uiso   1.00
C380   C     0.02131   0.87586   0.24862   0.00000  Uiso   1.00
C381   C     0.29059   0.83334   0.25008   0.00000  Uiso   1.00
C382   C     0.04274   0.83332   0.24992   0.00000  Uiso   1.00
C383   C     0.14059   0.69143   0.22294   0.00000  Uiso   1.00
C384   C     0.19274   0.97524   0.27706   0.00000  Uiso   1.00
C385   C     0.19274   0.69152   0.27706   0.00000  Uiso   1.00
C386   C     0.14059   0.97515   0.22294   0.00000  Uiso   1.00
C387   C     0.16514   0.83331   0.16448   0.00000  Uiso   1.00
C388   C     0.16820   0.83336   0.33552   0.00000  Uiso   1.00
C389   C     0.19972   0.80699   0.40754   0.00000  Uiso   1.00
C390   C     0.13362   0.85968   0.09246   0.00000  Uiso   1.00
C391   C     0.17013   0.83353   0.38377   0.00000  Uiso   1.00
C392   C     0.16321   0.83314   0.11623   0.00000  Uiso   1.00
C393   C     0.14116   0.86084   0.40617   0.00000  Uiso   1.00
C394   C     0.19217   0.80582   0.09384   0.00000  Uiso   1.00
C395   C     0.13976   0.86113   0.45229   0.00000  Uiso   1.00
C396   C     0.19357   0.80554   0.04771   0.00000  Uiso   1.00
C397   C     0.16765   0.83342   0.47663   0.00000  Uiso   1.00
C398   C     0.16568   0.83325   0.02337   0.00000  Uiso   1.00
C399   C     0.19758   0.80603   0.45435   0.00000  Uiso   1.00
C400   C     0.13576   0.86063   0.04565   0.00000  Uiso   1.00
C401   C     0.11049   0.88844   0.47434   0.00000  Uiso   1.00
C402   C     0.22285   0.77823   0.02566   0.00000  Uiso   1.00
Cu403  Cu    0.16667   0.88022   0.25000   0.00000  Uiso   1.00
Cu404  Cu    0.16667   0.78645   0.25000   0.00000  Uiso   1.00
H405   H     0.11908   0.88139   0.38739   0.00000  Uiso   1.00
H406   H     0.21426   0.78528   0.11261   0.00000  Uiso   1.00
H407   H     0.08901   0.90996   0.45583   0.00000  Uiso   1.00
H408   H     0.24432   0.75671   0.04417   0.00000  Uiso   1.00
H409   H     0.08559   0.91021   0.03623   0.00000  Uiso   1.00
H410   H     0.24775   0.75646   0.46377   0.00000  Uiso   1.00
H411   H     0.03726   0.75754   0.25231   0.00000  Uiso   1.00
H412   H     0.29608   0.90912   0.24769   0.00000  Uiso   1.00
H413   H     0.29599   0.75756   0.25250   0.00000  Uiso   1.00
H414   H     0.03734   0.90911   0.24750   0.00000  Uiso   1.00
H415   H     0.11970   0.71009   0.20126   0.00000  Uiso   1.00
H416   H     0.21363   0.95658   0.29875   0.00000  Uiso   1.00
H417   H     0.21363   0.71025   0.29875   0.00000  Uiso   1.00
H418   H     0.11970   0.95642   0.20125   0.00000  Uiso   1.00
N419   N     0.16667   0.95069   0.25000   0.00000  Uiso   1.00
N420   N     0.16667   0.71598   0.25000   0.00000  Uiso   1.00
O421   O     0.10655   0.87291   0.25000   0.00000  Uiso   1.00
O422   O     0.22679   0.79375   0.25001   0.00000  Uiso   1.00
O423   O     0.22679   0.87291   0.25001   0.00000  Uiso   1.00
O424   O     0.10655   0.79375   0.25000   0.00000  Uiso   1.00
O425   O     0.16666   0.87293   0.18513   0.00000  Uiso   1.00
O426   O     0.16668   0.79373   0.31487   0.00000  Uiso   1.00
O427   O     0.16668   0.87293   0.31487   0.00000  Uiso   1.00
O428   O     0.16666   0.79373   0.18513   0.00000  Uiso   1.00
N429   N     0.23273   0.78245   0.38540   0.00000  Uiso   1.00
H430   H     0.23258   0.78754   0.35115   0.00000  Uiso   1.00
H431   H     0.26039   0.79748   0.39608   0.00000  Uiso   1.00
N432   N     0.10060   0.88422   0.11460   0.00000  Uiso   1.00
H433   H     0.10075   0.87912   0.14885   0.00000  Uiso   1.00
H434   H     0.07295   0.86919   0.10391   0.00000  Uiso   1.00
C435   C     0.42069   0.83333   0.24995   0.00000  Uiso   1.00
C436   C     0.57931   0.83334   0.25005   0.00000  Uiso   1.00
C437   C     0.44184   0.88830   0.02050   0.00000  Uiso   1.00
C438   C     0.55816   0.77837   0.47950   0.00000  Uiso   1.00
C439   C     0.35459   0.79080   0.25127   0.00000  Uiso   1.00
C440   C     0.64541   0.87587   0.24873   0.00000  Uiso   1.00
C441   C     0.64536   0.79081   0.25138   0.00000  Uiso   1.00
C442   C     0.35464   0.87586   0.24862   0.00000  Uiso   1.00
C443   C     0.62393   0.83334   0.25008   0.00000  Uiso   1.00
C444   C     0.37607   0.83332   0.24992   0.00000  Uiso   1.00
C445   C     0.47392   0.69143   0.22294   0.00000  Uiso   1.00
C446   C     0.52608   0.97524   0.27706   0.00000  Uiso   1.00
C447   C     0.52608   0.69152   0.27706   0.00000  Uiso   1.00
C448   C     0.47392   0.97515   0.22294   0.00000  Uiso   1.00
C449   C     0.49847   0.83331   0.16448   0.00000  Uiso   1.00
C450   C     0.50153   0.83336   0.33552   0.00000  Uiso   1.00
C451   C     0.53305   0.80699   0.40754   0.00000  Uiso   1.00
C452   C     0.46695   0.85968   0.09246   0.00000  Uiso   1.00
C453   C     0.50346   0.83353   0.38377   0.00000  Uiso   1.00
C454   C     0.49654   0.83314   0.11623   0.00000  Uiso   1.00
C455   C     0.47450   0.86084   0.40617   0.00000  Uiso   1.00
C456   C     0.52551   0.80582   0.09384   0.00000  Uiso   1.00
C457   C     0.47309   0.86113   0.45229   0.00000  Uiso   1.00
C458   C     0.52691   0.80554   0.04771   0.00000  Uiso   1.00
C459   C     0.50099   0.83342   0.47663   0.00000  Uiso   1.00
C460   C     0.49902   0.83325   0.02337   0.00000  Uiso   1.00
C461   C     0.53091   0.80603   0.45435   0.00000  Uiso   1.00
C462   C     0.46909   0.86063   0.04565   0.00000  Uiso   1.00
C463   C     0.44382   0.88844   0.47434   0.00000  Uiso   1.00
C464   C     0.55618   0.77823   0.02566   0.00000  Uiso   1.00
Cu465  Cu    0.50000   0.88022   0.25000   0.00000  Uiso   1.00
Cu466  Cu    0.50000   0.78645   0.25000   0.00000  Uiso   1.00
H467   H     0.45241   0.88139   0.38739   0.00000  Uiso   1.00
H468   H     0.54759   0.78528   0.11261   0.00000  Uiso   1.00
H469   H     0.42235   0.90996   0.45583   0.00000  Uiso   1.00
H470   H     0.57766   0.75671   0.04417   0.00000  Uiso   1.00
H471   H     0.41892   0.91021   0.03623   0.00000  Uiso   1.00
H472   H     0.58108   0.75646   0.46377   0.00000  Uiso   1.00
H473   H     0.37059   0.75754   0.25231   0.00000  Uiso   1.00
H474   H     0.62941   0.90912   0.24769   0.00000  Uiso   1.00
H475   H     0.62932   0.75756   0.25250   0.00000  Uiso   1.00
H476   H     0.37068   0.90911   0.24750   0.00000  Uiso   1.00
H477   H     0.45304   0.71009   0.20126   0.00000  Uiso   1.00
H478   H     0.54697   0.95658   0.29875   0.00000  Uiso   1.00
H479   H     0.54697   0.71025   0.29875   0.00000  Uiso   1.00
H480   H     0.45303   0.95642   0.20125   0.00000  Uiso   1.00
N481   N     0.50000   0.95069   0.25000   0.00000  Uiso   1.00
N482   N     0.50000   0.71598   0.25000   0.00000  Uiso   1.00
O483   O     0.43988   0.87291   0.25000   0.00000  Uiso   1.00
O484   O     0.56012   0.79375   0.25001   0.00000  Uiso   1.00
O485   O     0.56012   0.87291   0.25001   0.00000  Uiso   1.00
O486   O     0.43988   0.79375   0.25000   0.00000  Uiso   1.00
O487   O     0.49999   0.87293   0.18513   0.00000  Uiso   1.00
O488   O     0.50001   0.79373   0.31487   0.00000  Uiso   1.00
O489   O     0.50001   0.87293   0.31487   0.00000  Uiso   1.00
O490   O     0.49999   0.79373   0.18513   0.00000  Uiso   1.00
N491   N     0.56606   0.78245   0.38540   0.00000  Uiso   1.00
H492   H     0.56591   0.78754   0.35115   0.00000  Uiso   1.00
H493   H     0.59372   0.79748   0.39608   0.00000  Uiso   1.00
N494   N     0.43394   0.88422   0.11460   0.00000  Uiso   1.00
H495   H     0.43409   0.87912   0.14885   0.00000  Uiso   1.00
H496   H     0.40628   0.86919   0.10391   0.00000  Uiso   1.00
C497   C     0.75402   0.83333   0.24995   0.00000  Uiso   1.00
C498   C     0.91265   0.83334   0.25005   0.00000  Uiso   1.00
C499   C     0.77517   0.88830   0.02050   0.00000  Uiso   1.00
C500   C     0.89150   0.77837   0.47950   0.00000  Uiso   1.00
C501   C     0.68793   0.79080   0.25127   0.00000  Uiso   1.00
C502   C     0.97874   0.87587   0.24873   0.00000  Uiso   1.00
C503   C     0.97869   0.79081   0.25138   0.00000  Uiso   1.00
C504   C     0.68798   0.87586   0.24862   0.00000  Uiso   1.00
C505   C     0.95726   0.83334   0.25008   0.00000  Uiso   1.00
C506   C     0.70941   0.83332   0.24992   0.00000  Uiso   1.00
C507   C     0.80726   0.69143   0.22294   0.00000  Uiso   1.00
C508   C     0.85941   0.97524   0.27706   0.00000  Uiso   1.00
C509   C     0.85941   0.69152   0.27706   0.00000  Uiso   1.00
C510   C     0.80726   0.97515   0.22294   0.00000  Uiso   1.00
C511   C     0.83180   0.83331   0.16448   0.00000  Uiso   1.00
C512   C     0.83486   0.83336   0.33552   0.00000  Uiso   1.00
C513   C     0.86638   0.80699   0.40754   0.00000  Uiso   1.00
C514   C     0.80028   0.85968   0.09246   0.00000  Uiso   1.00
C515   C     0.83679   0.83353   0.38377   0.00000  Uiso   1.00
C516   C     0.82987   0.83314   0.11623   0.00000  Uiso   1.00
C517   C     0.80783   0.86084   0.40617   0.00000  Uiso   1.00
C518   C     0.85884   0.80582   0.09384   0.00000  Uiso   1.00
C519   C     0.80643   0.86113   0.45229   0.00000  Uiso   1.00
C520   C     0.86024   0.80554   0.04771   0.00000  Uiso   1.00
C521   C     0.83432   0.83342   0.47663   0.00000  Uiso   1.00
C522   C     0.83235   0.83325   0.02337   0.00000  Uiso   1.00
C523   C     0.86424   0.80603   0.45435   0.00000  Uiso   1.00
C524   C     0.80243   0.86063   0.04565   0.00000  Uiso   1.00
C525   C     0.77716   0.88844   0.47434   0.00000  Uiso   1.00
C526   C     0.88951   0.77823   0.02566   0.00000  Uiso   1.00
Cu527  Cu    0.83333   0.88022   0.25000   0.00000  Uiso   1.00
Cu528  Cu    0.83333   0.78645   0.25000   0.00000  Uiso   1.00
H529   H     0.78574   0.88139   0.38739   0.00000  Uiso   1.00
H530   H     0.88092   0.78528   0.11261   0.00000  Uiso   1.00
H531   H     0.75568   0.90996   0.45583   0.00000  Uiso   1.00
H532   H     0.91099   0.75671   0.04417   0.00000  Uiso   1.00
H533   H     0.75225   0.91021   0.03623   0.00000  Uiso   1.00
H534   H     0.91442   0.75646   0.46377   0.00000  Uiso   1.00
H535   H     0.70392   0.75754   0.25231   0.00000  Uiso   1.00
H536   H     0.96274   0.90912   0.24769   0.00000  Uiso   1.00
H537   H     0.96266   0.75756   0.25250   0.00000  Uiso   1.00
H538   H     0.70401   0.90911   0.24750   0.00000  Uiso   1.00
H539   H     0.78637   0.71009   0.20126   0.00000  Uiso   1.00
H540   H     0.88030   0.95658   0.29875   0.00000  Uiso   1.00
H541   H     0.88030   0.71025   0.29875   0.00000  Uiso   1.00
H542   H     0.78637   0.95642   0.20125   0.00000  Uiso   1.00
N543   N     0.83333   0.95069   0.25000   0.00000  Uiso   1.00
N544   N     0.83333   0.71598   0.25000   0.00000  Uiso   1.00
O545   O     0.77321   0.87291   0.25000   0.00000  Uiso   1.00
O546   O     0.89345   0.79375   0.25001   0.00000  Uiso   1.00
O547   O     0.89345   0.87291   0.25001   0.00000  Uiso   1.00
O548   O     0.77321   0.79375   0.25000   0.00000  Uiso   1.00
O549   O     0.83332   0.87293   0.18513   0.00000  Uiso   1.00
O550   O     0.83334   0.79373   0.31487   0.00000  Uiso   1.00
O551   O     0.83334   0.87293   0.31487   0.00000  Uiso   1.00
O552   O     0.83332   0.79373   0.18513   0.00000  Uiso   1.00
N553   N     0.89940   0.78245   0.38540   0.00000  Uiso   1.00
H554   H     0.89924   0.78754   0.35115   0.00000  Uiso   1.00
H555   H     0.92705   0.79748   0.39608   0.00000  Uiso   1.00
N556   N     0.76727   0.88422   0.11460   0.00000  Uiso   1.00
H557   H     0.76742   0.87912   0.14885   0.00000  Uiso   1.00
H558   H     0.73961   0.86919   0.10391   0.00000  Uiso   1.00
C559   C     0.08735   0.16666   0.74995   0.00000  Uiso   1.00
C560   C     0.24598   0.16667   0.75005   0.00000  Uiso   1.00
C561   C     0.10851   0.22163   0.52050   0.00000  Uiso   1.00
C562   C     0.22483   0.11170   0.97950   0.00000  Uiso   1.00
C563   C     0.02126   0.12413   0.75127   0.00000  Uiso   1.00
C564   C     0.31207   0.20920   0.74873   0.00000  Uiso   1.00
C565   C     0.31202   0.12414   0.75138   0.00000  Uiso   1.00
C566   C     0.02131   0.20919   0.74862   0.00000  Uiso   1.00
C567   C     0.29059   0.16668   0.75008   0.00000  Uiso   1.00
C568   C     0.04274   0.16666   0.74992   0.00000  Uiso   1.00
C569   C     0.14059   0.02476   0.72294   0.00000  Uiso   1.00
C570   C     0.19274   0.30857   0.77706   0.00000  Uiso   1.00
C571   C     0.19274   0.02485   0.77706   0.00000  Uiso   1.00
C572   C     0.14059   0.30848   0.72294   0.00000  Uiso   1.00
C573   C     0.16514   0.16664   0.66448   0.00000  Uiso   1.00
C574   C     0.16820   0.16669   0.83552   0.00000  Uiso   1.00
C575   C     0.19972   0.14032   0.90754   0.00000  Uiso   1.00
C576   C     0.13362   0.19301   0.59246   0.00000  Uiso   1.00
C577   C     0.17013   0.16686   0.88377   0.00000  Uiso   1.00
C578   C     0.16321   0.16647   0.61623   0.00000  Uiso   1.00
C579   C     0.14116   0.19418   0.90617   0.00000  Uiso   1.00
C580   C     0.19217   0.13916   0.59384   0.00000  Uiso   1.00
C581   C     0.13976   0.19446   0.95229   0.00000  Uiso   1.00
C582   C     0.19357   0.13887   0.54771   0.00000  Uiso   1.00
C583   C     0.16765   0.16675   0.97663   0.00000  Uiso   1.00
C584   C     0.16568   0.16659   0.52337   0.00000  Uiso   1.00
C585   C     0.19758   0.13937   0.95435   0.00000  Uiso   1.00
C586   C     0.13576   0.19397   0.54565   0.00000  Uiso   1.00
C587   C     0.11049   0.22177   0.97434   0.00000  Uiso   1.00
C588   C     0.22285   0.11156   0.52566   0.00000  Uiso   1.00
Cu589  Cu    0.16667   0.21355   0.75000   0.00000  Uiso   1.00
Cu590  Cu    0.16667   0.11978   0.75000   0.00000  Uiso   1.00
H591   H     0.11908   0.21473   0.88739   0.00000  Uiso   1.00
H592   H     0.21426   0.11861   0.61261   0.00000  Uiso   1.00
H593   H     0.08901   0.24329   0.95583   0.00000  Uiso   1.00
H594   H     0.24432   0.09005   0.54417   0.00000  Uiso   1.00
H595   H     0.08559   0.24355   0.53623   0.00000  Uiso   1.00
H596   H     0.24775   0.08979   0.96377   0.00000  Uiso   1.00
H597   H     0.03726   0.09088   0.75231   0.00000  Uiso   1.00
H598   H     0.29608   0.24246   0.74769   0.00000  Uiso   1.00
H599   H     0.29599   0.09089   0.75250   0.00000  Uiso   1.00
H600   H     0.03734   0.24244   0.74750   0.00000  Uiso   1.00
H601   H     0.11970   0.04342   0.70126   0.00000  Uiso   1.00
H602   H     0.21363   0.28991   0.79875   0.00000  Uiso   1.00
H603   H     0.21363   0.04358   0.79875   0.00000  Uiso   1.00
H604   H     0.11970   0.28975   0.70125   0.00000  Uiso   1.00
N605   N     0.16667   0.28402   0.75000   0.00000  Uiso   1.00
N606   N     0.16667   0.04931   0.75000   0.00000  Uiso   1.00
O607   O     0.10655   0.20625   0.75000   0.00000  Uiso   1.00
O608   O     0.22679   0.12709   0.75001   0.00000  Uiso   1.00
O609   O     0.22679   0.20625   0.75001   0.00000  Uiso   1.00
O610   O     0.10655   0.12709   0.75000   0.00000  Uiso   1.00
O611   O     0.16666   0.20627   0.68513   0.00000  Uiso   1.00
O612   O     0.16668   0.12707   0.81487   0.00000  Uiso   1.00
O613   O     0.16668   0.20627   0.81487   0.00000  Uiso   1.00
O614   O     0.16666   0.12707   0.68513   0.00000  Uiso   1.00
N615   N     0.23273   0.11578   0.88540   0.00000  Uiso   1.00
H616   H     0.23258   0.12087   0.85115   0.00000  Uiso   1.00
H617   H     0.26039   0.13081   0.89608   0.00000  Uiso   1.00
N618   N     0.10060   0.21755   0.61460   0.00000  Uiso   1.00
H619   H     0.10075   0.21245   0.64885   0.00000  Uiso   1.00
H620   H     0.07295   0.20252   0.60391   0.00000  Uiso   1.00
C621   C     0.42069   0.16666   0.74995   0.00000  Uiso   1.00
C622   C     0.57931   0.16667   0.75005   0.00000  Uiso   1.00
C623   C     0.44184   0.22163   0.52050   0.00000  Uiso   1.00
C624   C     0.55816   0.11170   0.97950   0.00000  Uiso   1.00
C625   C     0.35459   0.12413   0.75127   0.00000  Uiso   1.00
C626   C     0.64541   0.20920   0.74873   0.00000  Uiso   1.00
C627   C     0.64536   0.12414   0.75138   0.00000  Uiso   1.00
C628   C     0.35464   0.20919   0.74862   0.00000  Uiso   1.00
C629   C     0.62393   0.16668   0.75008   0.00000  Uiso   1.00
C630   C     0.37607   0.16666   0.74992   0.00000  Uiso   1.00
C631   C     0.47392   0.02476   0.72294   0.00000  Uiso   1.00
C632   C     0.52608   0.30857   0.77706   0.00000  Uiso   1.00
C633   C     0.52608   0.02485   0.77706   0.00000  Uiso   1.00
C634   C     0.47392   0.30848   0.72294   0.00000  Uiso   1.00
C635   C     0.49847   0.16664   0.66448   0.00000  Uiso   1.00
C636   C     0.50153   0.16669   0.83552   0.00000  Uiso   1.00
C637   C     0.53305   0.14032   0.90754   0.00000  Uiso   1.00
C638   C     0.46695   0.19301   0.59246   0.00000  Uiso   1.00
C639   C     0.50346   0.16686   0.88377   0.00000  Uiso   1.00
C640   C     0.49654   0.16647   0.61623   0.00000  Uiso   1.00
C641   C     0.47450   0.19418   0.90617   0.00000  Uiso   1.00
C642   C     0.52551   0.13916   0.59384   0.00000  Uiso   1.00
C643   C     0.47309   0.19446   0.95229   0.00000  Uiso   1.00
C644   C     0.52691   0.13887   0.54771   0.00000  Uiso   1.00
C645   C     0.50099   0.16675   0.97663   0.00000  Uiso   1.00
C646   C     0.49902   0.16659   0.52337   0.00000  Uiso   1.00
C647   C     0.53091   0.13937   0.95435   0.00000  Uiso   1.00
C648   C     0.46909   0.19397   0.54565   0.00000  Uiso   1.00
C649   C     0.44382   0.22177   0.97434   0.00000  Uiso   1.00
C650   C     0.55618   0.11156   0.52566   0.00000  Uiso   1.00
Cu651  Cu    0.50000   0.21355   0.75000   0.00000  Uiso   1.00
Cu652  Cu    0.50000   0.11978   0.75000   0.00000  Uiso   1.00
H653   H     0.45241   0.21473   0.88739   0.00000  Uiso   1.00
H654   H     0.54759   0.11861   0.61261   0.00000  Uiso   1.00
H655   H     0.42235   0.24329   0.95583   0.00000  Uiso   1.00
H656   H     0.57766   0.09005   0.54417   0.00000  Uiso   1.00
H657   H     0.41892   0.24355   0.53623   0.00000  Uiso   1.00
H658   H     0.58108   0.08979   0.96377   0.00000  Uiso   1.00
H659   H     0.37059   0.09088   0.75231   0.00000  Uiso   1.00
H660   H     0.62941   0.24246   0.74769   0.00000  Uiso   1.00
H661   H     0.62932   0.09089   0.75250   0.00000  Uiso   1.00
H662   H     0.37068   0.24244   0.74750   0.00000  Uiso   1.00
H663   H     0.45304   0.04342   0.70126   0.00000  Uiso   1.00
H664   H     0.54697   0.28991   0.79875   0.00000  Uiso   1.00
H665   H     0.54697   0.04358   0.79875   0.00000  Uiso   1.00
H666   H     0.45303   0.28975   0.70125   0.00000  Uiso   1.00
N667   N     0.50000   0.28402   0.75000   0.00000  Uiso   1.00
N668   N     0.50000   0.04931   0.75000   0.00000  Uiso   1.00
O669   O     0.43988   0.20625   0.75000   0.00000  Uiso   1.00
O670   O     0.56012   0.12709   0.75001   0.00000  Uiso   1.00
O671   O     0.56012   0.20625   0.75001   0.00000  Uiso   1.00
O672   O     0.43988   0.12709   0.75000   0.00000  Uiso   1.00
O673   O     0.49999   0.20627   0.68513   0.00000  Uiso   1.00
O674   O     0.50001   0.12707   0.81487   0.00000  Uiso   1.00
O675   O     0.50001   0.20627   0.81487   0.00000  Uiso   1.00
O676   O     0.49999   0.12707   0.68513   0.00000  Uiso   1.00
N677   N     0.56606   0.11578   0.88540   0.00000  Uiso   1.00
H678   H     0.56591   0.12087   0.85115   0.00000  Uiso   1.00
H679   H     0.59372   0.13081   0.89608   0.00000  Uiso   1.00
N680   N     0.43394   0.21755   0.61460   0.00000  Uiso   1.00
H681   H     0.43409   0.21245   0.64885   0.00000  Uiso   1.00
H682   H     0.40628   0.20252   0.60391   0.00000  Uiso   1.00
C683   C     0.75402   0.16666   0.74995   0.00000  Uiso   1.00
C684   C     0.91265   0.16667   0.75005   0.00000  Uiso   1.00
C685   C     0.77517   0.22163   0.52050   0.00000  Uiso   1.00
C686   C     0.89150   0.11170   0.97950   0.00000  Uiso   1.00
C687   C     0.68793   0.12413   0.75127   0.00000  Uiso   1.00
C688   C     0.97874   0.20920   0.74873   0.00000  Uiso   1.00
C689   C     0.97869   0.12414   0.75138   0.00000  Uiso   1.00
C690   C     0.68798   0.20919   0.74862   0.00000  Uiso   1.00
C691   C     0.95726   0.16668   0.75008   0.00000  Uiso   1.00
C692   C     0.70941   0.16666   0.74992   0.00000  Uiso   1.00
C693   C     0.80726   0.02476   0.72294   0.00000  Uiso   1.00
C694   C     0.85941   0.30857   0.77706   0.00000  Uiso   1.00
C695   C     0.85941   0.02485   0.77706   0.00000  Uiso   1.00
C696   C     0.80726   0.30848   0.72294   0.00000  Uiso   1.00
C697   C     0.83180   0.16664   0.66448   0.00000  Uiso   1.00
C698   C     0.83486   0.16669   0.83552   0.00000  Uiso   1.00
C699   C     0.86638   0.14032   0.90754   0.00000  Uiso   1.00
C700   C     0.80028   0.19301   0.59246   0.00000  Uiso   1.00
C701   C     0.83679   0.16686   0.88377   0.00000  Uiso   1.00
C702   C     0.82987   0.16647   0.61623   0.00000  Uiso   1.00
C703   C     0.80783   0.19418   0.90617   0.00000  Uiso   1.00
C704   C     0.85884   0.13916   0.59384   0.00000  Uiso   1.00
C705   C     0.80643   0.19446   0.95229   0.00000  Uiso   1.00
C706   C     0.86024   0.13887   0.54771   0.00000  Uiso   1.00
C707   C     0.83432   0.16675   0.97663   0.00000  Uiso   1.00
C708   C     0.83235   0.16659   0.52337   0.00000  Uiso   1.00
C709   C     0.86424   0.13937   0.95435   0.00000  Uiso   1.00
C710   C     0.80243   0.19397   0.54565   0.00000  Uiso   1.00
C711   C     0.77716   0.22177   0.97434   0.00000  Uiso   1.00
C712   C     0.88951   0.11156   0.52566   0.00000  Uiso   1.00
Cu713  Cu    0.83333   0.21355   0.75000   0.00000  Uiso   1.00
Cu714  Cu    0.83333   0.11978   0.75000   0.00000  Uiso   1.00
H715   H     0.78574   0.21473   0.88739   0.00000  Uiso   1.00
H716   H     0.88092   0.11861   0.61261   0.00000  Uiso   1.00
H717   H     0.75568   0.24329   0.95583   0.00000  Uiso   1.00
H718   H     0.91099   0.09005   0.54417   0.00000  Uiso   1.00
H719   H     0.75225   0.24355   0.53623   0.00000  Uiso   1.00
H720   H     0.91442   0.08979   0.96377   0.00000  Uiso   1.00
H721   H     0.70392   0.09088   0.75231   0.00000  Uiso   1.00
H722   H     0.96274   0.24246   0.74769   0.00000  Uiso   1.00
H723   H     0.96266   0.09089   0.75250   0.00000  Uiso   1.00
H724   H     0.70401   0.24244   0.74750   0.00000  Uiso   1.00
H725   H     0.78637   0.04342   0.70126   0.00000  Uiso   1.00
H726   H     0.88030   0.28991   0.79875   0.00000  Uiso   1.00
H727   H     0.88030   0.04358   0.79875   0.00000  Uiso   1.00
H728   H     0.78637   0.28975   0.70125   0.00000  Uiso   1.00
N729   N     0.83333   0.28402   0.75000   0.00000  Uiso   1.00
N730   N     0.83333   0.04931   0.75000   0.00000  Uiso   1.00
O731   O     0.77321   0.20625   0.75000   0.00000  Uiso   1.00
O732   O     0.89345   0.12709   0.75001   0.00000  Uiso   1.00
O733   O     0.89345   0.20625   0.75001   0.00000  Uiso   1.00
O734   O     0.77321   0.12709   0.75000   0.00000  Uiso   1.00
O735   O     0.83332   0.20627   0.68513   0.00000  Uiso   1.00
O736   O     0.83334   0.12707   0.81487   0.00000  Uiso   1.00
O737   O     0.83334   0.20627   0.81487   0.00000  Uiso   1.00
O738   O     0.83332   0.12707   0.68513   0.00000  Uiso   1.00
N739   N     0.89940   0.11578   0.88540   0.00000  Uiso   1.00
H740   H     0.89924   0.12087   0.85115   0.00000  Uiso   1.00
H741   H     0.92705   0.13081   0.89608   0.00000  Uiso   1.00
N742   N     0.76727   0.21755   0.61460   0.00000  Uiso   1.00
H743   H     0.76742   0.21245   0.64885   0.00000  Uiso   1.00
H744   H     0.73961   0.20252   0.60391   0.00000  Uiso   1.00
C745   C     0.08735   0.49999   0.74995   0.00000  Uiso   1.00
C746   C     0.24598   0.50001   0.75005   0.00000  Uiso   1.00
C747   C     0.10851   0.55497   0.52050   0.00000  Uiso   1.00
C748   C     0.22483   0.44504   0.97950   0.00000  Uiso   1.00
C749   C     0.02126   0.45746   0.75127   0.00000  Uiso   1.00
C750   C     0.31207   0.54254   0.74873   0.00000  Uiso   1.00
C751   C     0.31202   0.45747   0.75138   0.00000  Uiso   1.00
C752   C     0.02131   0.54253   0.74862   0.00000  Uiso   1.00
C753   C     0.29059   0.50001   0.75008   0.00000  Uiso   1.00
C754   C     0.04274   0.49999   0.74992   0.00000  Uiso   1.00
C755   C     0.14059   0.35809   0.72294   0.00000  Uiso   1.00
C756   C     0.19274   0.64191   0.77706   0.00000  Uiso   1.00
C757   C     0.19274   0.35818   0.77706   0.00000  Uiso   1.00
C758   C     0.14059   0.64182   0.72294   0.00000  Uiso   1.00
C759   C     0.16514   0.49998   0.66448   0.00000  Uiso   1.00
C760   C     0.16820   0.50002   0.83552   0.00000  Uiso   1.00
C761   C     0.19972   0.47365   0.90754   0.00000  Uiso   1.00
C762   C     0.13362   0.52635   0.59246   0.00000  Uiso   1.00
C763   C     0.17013   0.50019   0.88377   0.00000  Uiso   1.00
C764   C     0.16321   0.49981   0.61623   0.00000  Uiso   1.00
C765   C     0.14116   0.52751   0.90617   0.00000  Uiso   1.00
C766   C     0.19217   0.47249   0.59384   0.00000  Uiso   1.00
C767   C     0.13976   0.52779   0.95229   0.00000  Uiso   1.00
C768   C     0.19357   0.47221   0.54771   0.00000  Uiso   1.00
C769   C     0.16765   0.50008   0.97663   0.00000  Uiso   1.00
C770   C     0.16568   0.49992   0.52337   0.00000  Uiso   1.00
C771   C     0.19758   0.47270   0.95435   0.00000  Uiso   1.00
C772   C     0.13576   0.52730   0.54565   0.00000  Uiso   1.00
C773   C     0.11049   0.55511   0.97434   0.00000  Uiso   1.00
C774   C     0.22285   0.44490   0.52566   0.00000  Uiso   1.00
Cu775  Cu    0.16667   0.54689   0.75000   0.00000  Uiso   1.00
Cu776  Cu    0.16667   0.45311   0.75000   0.00000  Uiso   1.00
H777   H     0.11908   0.54806   0.88739   0.00000  Uiso   1.00
H778   H     0.21426   0.45194   0.61261   0.00000  Uiso   1.00
H779   H     0.08901   0.57663   0.95583   0.00000  Uiso   1.00
H780   H     0.24432   0.42338   0.54417   0.00000  Uiso   1.00
H781   H     0.08559   0.57688   0.53623   0.00000  Uiso   1.00
H782   H     0.24775   0.42312   0.96377   0.00000  Uiso   1.00
H783   H     0.03726   0.42421   0.75231   0.00000  Uiso   1.00
H784   H     0.29608   0.57579   0.74769   0.00000  Uiso   1.00
H785   H     0.29599   0.42423   0.75250   0.00000  Uiso   1.00
H786   H     0.03734   0.57577   0.74750   0.00000  Uiso   1.00
H787   H     0.11970   0.37675   0.70126   0.00000  Uiso   1.00
H788   H     0.21363   0.62324   0.79875   0.00000  Uiso   1.00
H789   H     0.21363   0.37692   0.79875   0.00000  Uiso   1.00
H790   H     0.11970   0.62308   0.70125   0.00000  Uiso   1.00
N791   N     0.16667   0.61736   0.75000   0.00000  Uiso   1.00
N792   N     0.16667   0.38264   0.75000   0.00000  Uiso   1.00
O793   O     0.10655   0.53958   0.75000   0.00000  Uiso   1.00
O794   O     0.22679   0.46042   0.75001   0.00000  Uiso   1.00
O795   O     0.22679   0.53958   0.75001   0.00000  Uiso   1.00
O796   O     0.10655   0.46042   0.75000   0.00000  Uiso   1.00
O797   O     0.16666   0.53960   0.68513   0.00000  Uiso   1.00
O798   O     0.16668   0.46040   0.81487   0.00000  Uiso   1.00
O799   O     0.16668   0.53960   0.81487   0.00000  Uiso   1.00
O800   O     0.16666   0.46040   0.68513   0.00000  Uiso   1.00
N801   N     0.23273   0.44911   0.88540   0.00000  Uiso   1.00
H802   H     0.23258   0.45420   0.85115   0.00000  Uiso   1.00
H803   H     0.26039   0.46415   0.89608   0.00000  Uiso   1.00
N804   N     0.10060   0.55089   0.61460   0.00000  Uiso   1.00
H805   H     0.10075   0.54579   0.64885   0.00000  Uiso   1.00
H806   H     0.07295   0.53585   0.60391   0.00000  Uiso   1.00
C807   C     0.42069   0.49999   0.74995   0.00000  Uiso   1.00
C808   C     0.57931   0.50001   0.75005   0.00000  Uiso   1.00
C809   C     0.44184   0.55497   0.52050   0.00000  Uiso   1.00
C810   C     0.55816   0.44504   0.97950   0.00000  Uiso   1.00
C811   C     0.35459   0.45746   0.75127   0.00000  Uiso   1.00
C812   C     0.64541   0.54254   0.74873   0.00000  Uiso   1.00
C813   C     0.64536   0.45747   0.75138   0.00000  Uiso   1.00
C814   C     0.35464   0.54253   0.74862   0.00000  Uiso   1.00
C815   C     0.62393   0.50001   0.75008   0.00000  Uiso   1.00
C816   C     0.37607   0.49999   0.74992   0.00000  Uiso   1.00
C817   C     0.47392   0.35809   0.72294   0.00000  Uiso   1.00
C818   C     0.52608   0.64191   0.77706   0.00000  Uiso   1.00
C819   C     0.52608   0.35818   0.77706   0.00000  Uiso   1.00
C820   C     0.47392   0.64182   0.72294   0.00000  Uiso   1.00
C821   C     0.49847   0.49998   0.66448   0.00000  Uiso   1.00
C822   C     0.50153   0.50002   0.83552   0.00000  Uiso   1.00
C823   C     0.53305   0.47365   0.90754   0.00000  Uiso   1.00
C824   C     0.46695   0.52635   0.59246   0.00000  Uiso   1.00
C825   C     0.50346   0.50019   0.88377   0.00000  Uiso   1.00
C826   C     0.49654   0.49981   0.61623   0.00000  Uiso   1.00
C827   C     0.47450   0.52751   0.90617   0.00000  Uiso   1.00
C828   C     0.52551   0.47249   0.59384   0.00000  Uiso   1.00
C829   C     0.47309   0.52779   0.95229   0.00000  Uiso   1.00
C830   C     0.52691   0.47221   0.54771   0.00000  Uiso   1.00
C831   C     0.50099   0.50008   0.97663   0.00000  Uiso   1.00
C832   C     0.49902   0.49992   0.52337   0.00000  Uiso   1.00
C833   C     0.53091   0.47270   0.95435   0.00000  Uiso   1.00
C834   C     0.46909   0.52730   0.54565   0.00000  Uiso   1.00
C835   C     0.44382   0.55511   0.97434   0.00000  Uiso   1.00
C836   C     0.55618   0.44490   0.52566   0.00000  Uiso   1.00
Cu837  Cu    0.50000   0.54689   0.75000   0.00000  Uiso   1.00
Cu838  Cu    0.50000   0.45311   0.75000   0.00000  Uiso   1.00
H839   H     0.45241   0.54806   0.88739   0.00000  Uiso   1.00
H840   H     0.54759   0.45194   0.61261   0.00000  Uiso   1.00
H841   H     0.42235   0.57663   0.95583   0.00000  Uiso   1.00
H842   H     0.57766   0.42338   0.54417   0.00000  Uiso   1.00
H843   H     0.41892   0.57688   0.53623   0.00000  Uiso   1.00
H844   H     0.58108   0.42312   0.96377   0.00000  Uiso   1.00
H845   H     0.37059   0.42421   0.75231   0.00000  Uiso   1.00
H846   H     0.62941   0.57579   0.74769   0.00000  Uiso   1.00
H847   H     0.62932   0.42423   0.75250   0.00000  Uiso   1.00
H848   H     0.37068   0.57577   0.74750   0.00000  Uiso   1.00
H849   H     0.45304   0.37675   0.70126   0.00000  Uiso   1.00
H850   H     0.54697   0.62324   0.79875   0.00000  Uiso   1.00
H851   H     0.54697   0.37692   0.79875   0.00000  Uiso   1.00
H852   H     0.45303   0.62308   0.70125   0.00000  Uiso   1.00
N853   N     0.50000   0.61736   0.75000   0.00000  Uiso   1.00
N854   N     0.50000   0.38264   0.75000   0.00000  Uiso   1.00
O855   O     0.43988   0.53958   0.75000   0.00000  Uiso   1.00
O856   O     0.56012   0.46042   0.75001   0.00000  Uiso   1.00
O857   O     0.56012   0.53958   0.75001   0.00000  Uiso   1.00
O858   O     0.43988   0.46042   0.75000   0.00000  Uiso   1.00
O859   O     0.49999   0.53960   0.68513   0.00000  Uiso   1.00
O860   O     0.50001   0.46040   0.81487   0.00000  Uiso   1.00
O861   O     0.50001   0.53960   0.81487   0.00000  Uiso   1.00
O862   O     0.49999   0.46040   0.68513   0.00000  Uiso   1.00
N863   N     0.56606   0.44911   0.88540   0.00000  Uiso   1.00
H864   H     0.56591   0.45420   0.85115   0.00000  Uiso   1.00
H865   H     0.59372   0.46415   0.89608   0.00000  Uiso   1.00
N866   N     0.43394   0.55089   0.61460   0.00000  Uiso   1.00
H867   H     0.43409   0.54579   0.64885   0.00000  Uiso   1.00
H868   H     0.40628   0.53585   0.60391   0.00000  Uiso   1.00
C869   C     0.75402   0.49999   0.74995   0.00000  Uiso   1.00
C870   C     0.91265   0.50001   0.75005   0.00000  Uiso   1.00
C871   C     0.77517   0.55497   0.52050   0.00000  Uiso   1.00
C872   C     0.89150   0.44504   0.97950   0.00000  Uiso   1.00
C873   C     0.68793   0.45746   0.75127   0.00000  Uiso   1.00
C874   C     0.97874   0.54254   0.74873   0.00000  Uiso   1.00
C875   C     0.97869   0.45747   0.75138   0.00000  Uiso   1.00
C876   C     0.68798   0.54253   0.74862   0.00000  Uiso   1.00
C877   C     0.95726   0.50001   0.75008   0.00000  Uiso   1.00
C878   C     0.70941   0.49999   0.74992   0.00000  Uiso   1.00
C879   C     0.80726   0.35809   0.72294   0.00000  Uiso   1.00
C880   C     0.85941   0.64191   0.77706   0.00000  Uiso   1.00
C881   C     0.85941   0.35818   0.77706   0.00000  Uiso   1.00
C882   C     0.80726   0.64182   0.72294   0.00000  Uiso   1.00
C883   C     0.83180   0.49998   0.66448   0.00000  Uiso   1.00
C884   C     0.83486   0.50002   0.83552   0.00000  Uiso   1.00
C885   C     0.86638   0.47365   0.90754   0.00000  Uiso   1.00
C886   C     0.80028   0.52635   0.59246   0.00000  Uiso   1.00
C887   C     0.83679   0.50019   0.88377   0.00000  Uiso   1.00
C888   C     0.82987   0.49981   0.61623   0.00000  Uiso   1.00
C889   C     0.80783   0.52751   0.90617   0.00000  Uiso   1.00
C890   C     0.85884   0.47249   0.59384   0.00000  Uiso   1.00
C891   C     0.80643   0.52779   0.95229   0.00000  Uiso   1.00
C892   C     0.86024   0.47221   0.54771   0.00000  Uiso   1.00
C893   C     0.83432   0.50008   0.97663   0.00000  Uiso   1.00
C894   C     0.83235   0.49992   0.52337   0.00000  Uiso   1.00
C895   C     0.86424   0.47270   0.95435   0.00000  Uiso   1.00
C896   C     0.80243   0.52730   0.54565   0.00000  Uiso   1.00
C897   C     0.77716   0.55511   0.97434   0.00000  Uiso   1.00
C898   C     0.88951   0.44490   0.52566   0.00000  Uiso   1.00
Cu899  Cu    0.83333   0.54689   0.75000   0.00000  Uiso   1.00
Cu900  Cu    0.83333   0.45311   0.75000   0.00000  Uiso   1.00
H901   H     0.78574   0.54806   0.88739   0.00000  Uiso   1.00
H902   H     0.88092   0.45194   0.61261   0.00000  Uiso   1.00
H903   H     0.75568   0.57663   0.95583   0.00000  Uiso   1.00
H904   H     0.91099   0.42338   0.54417   0.00000  Uiso   1.00
H905   H     0.75225   0.57688   0.53623   0.00000  Uiso   1.00
H906   H     0.91442   0.42312   0.96377   0.00000  Uiso   1.00
H907   H     0.70392   0.42421   0.75231   0.00000  Uiso   1.00
H908   H     0.96274   0.57579   0.74769   0.00000  Uiso   1.00
H909   H     0.96266   0.42423   0.75250   0.00000  Uiso   1.00
H910   H     0.70401   0.57577   0.74750   0.00000  Uiso   1.00
H911   H     0.78637   0.37675   0.70126   0.00000  Uiso   1.00
H912   H     0.88030   0.62324   0.79875   0.00000  Uiso   1.00
H913   H     0.88030   0.37692   0.79875   0.00000  Uiso   1.00
H914   H     0.78637   0.62308   0.70125   0.00000  Uiso   1.00
N915   N     0.83333   0.61736   0.75000   0.00000  Uiso   1.00
N916   N     0.83333   0.38264   0.75000   0.00000  Uiso   1.00
O917   O     0.77321   0.53958   0.75000   0.00000  Uiso   1.00
O918   O     0.89345   0.46042   0.75001   0.00000  Uiso   1.00
O919   O     0.89345   0.53958   0.75001   0.00000  Uiso   1.00
O920   O     0.77321   0.46042   0.75000   0.00000  Uiso   1.00
O921   O     0.83332   0.53960   0.68513   0.00000  Uiso   1.00
O922   O     0.83334   0.46040   0.81487   0.00000  Uiso   1.00
O923   O     0.83334   0.53960   0.81487   0.00000  Uiso   1.00
O924   O     0.83332   0.46040   0.68513   0.00000  Uiso   1.00
N925   N     0.89940   0.44911   0.88540   0.00000  Uiso   1.00
H926   H     0.89924   0.45420   0.85115   0.00000  Uiso   1.00
H927   H     0.92705   0.46415   0.89608   0.00000  Uiso   1.00
N928   N     0.76727   0.55089   0.61460   0.00000  Uiso   1.00
H929   H     0.76742   0.54579   0.64885   0.00000  Uiso   1.00
H930   H     0.73961   0.53585   0.60391   0.00000  Uiso   1.00
C931   C     0.08735   0.83333   0.74995   0.00000  Uiso   1.00
C932   C     0.24598   0.83334   0.75005   0.00000  Uiso   1.00
C933   C     0.10851   0.88830   0.52050   0.00000  Uiso   1.00
C934   C     0.22483   0.77837   0.97950   0.00000  Uiso   1.00
C935   C     0.02126   0.79080   0.75127   0.00000  Uiso   1.00
C936   C     0.31207   0.87587   0.74873   0.00000  Uiso   1.00
C937   C     0.31202   0.79081   0.75138   0.00000  Uiso   1.00
C938   C     0.02131   0.87586   0.74862   0.00000  Uiso   1.00
C939   C     0.29059   0.83334   0.75008   0.00000  Uiso   1.00
C940   C     0.04274   0.83332   0.74992   0.00000  Uiso   1.00
C941   C     0.14059   0.69143   0.72294   0.00000  Uiso   1.00
C942   C     0.19274   0.97524   0.77706   0.00000  Uiso   1.00
C943   C     0.19274   0.69152   0.77706   0.00000  Uiso   1.00
C944   C     0.14059   0.97515   0.72294   0.00000  Uiso   1.00
C945   C     0.16514   0.83331   0.66448   0.00000  Uiso   1.00
C946   C     0.16820   0.83336   0.83552   0.00000  Uiso   1.00
C947   C     0.19972   0.80699   0.90754   0.00000  Uiso   1.00
C948   C     0.13362   0.85968   0.59246   0.00000  Uiso   1.00
C949   C     0.17013   0.83353   0.88377   0.00000  Uiso   1.00
C950   C     0.16321   0.83314   0.61623   0.00000  Uiso   1.00
C951   C     0.14116   0.86084   0.90617   0.00000  Uiso   1.00
C952   C     0.19217   0.80582   0.59384   0.00000  Uiso   1.00
C953   C     0.13976   0.86113   0.95229   0.00000  Uiso   1.00
C954   C     0.19357   0.80554   0.54771   0.00000  Uiso   1.00
C955   C     0.16765   0.83342   0.97663   0.00000  Uiso   1.00
C956   C     0.16568   0.83325   0.52337   0.00000  Uiso   1.00
C957   C     0.19758   0.80603   0.95435   0.00000  Uiso   1.00
C958   C     0.13576   0.86063   0.54565   0.00000  Uiso   1.00
C959   C     0.11049   0.88844   0.97434   0.00000  Uiso   1.00
C960   C     0.22285   0.77823   0.52566   0.00000  Uiso   1.00
Cu961  Cu    0.16667   0.88022   0.75000   0.00000  Uiso   1.00
Cu962  Cu    0.16667   0.78645   0.75000   0.00000  Uiso   1.00
H963   H     0.11908   0.88139   0.88739   0.00000  Uiso   1.00
H964   H     0.21426   0.78528   0.61261   0.00000  Uiso   1.00
H965   H     0.08901   0.90996   0.95583   0.00000  Uiso   1.00
H966   H     0.24432   0.75671   0.54417   0.00000  Uiso   1.00
H967   H     0.08559   0.91021   0.53623   0.00000  Uiso   1.00
H968   H     0.24775   0.75646   0.96377   0.00000  Uiso   1.00
H969   H     0.03726   0.75754   0.75231   0.00000  Uiso   1.00
H970   H     0.29608   0.90912   0.74769   0.00000  Uiso   1.00
H971   H     0.29599   0.75756   0.75250   0.00000  Uiso   1.00
H972   H     0.03734   0.90911   0.74750   0.00000  Uiso   1.00
H973   H     0.11970   0.71009   0.70126   0.00000  Uiso   1.00
H974   H     0.21363   0.95658   0.79875   0.00000  Uiso   1.00
H975   H     0.21363   0.71025   0.79875   0.00000  Uiso   1.00
H976   H     0.11970   0.95642   0.70125   0.00000  Uiso   1.00
N977   N     0.16667   0.95069   0.75000   0.00000  Uiso   1.00
N978   N     0.16667   0.71598   0.75000   0.00000  Uiso   1.00
O979   O     0.10655   0.87291   0.75000   0.00000  Uiso   1.00
O980   O     0.22679   0.79375   0.75001   0.00000  Uiso   1.00
O981   O     0.22679   0.87291   0.75001   0.00000  Uiso   1.00
O982   O     0.10655   0.79375   0.75000   0.00000  Uiso   1.00
O983   O     0.16666   0.87293   0.68513   0.00000  Uiso   1.00
O984   O     0.16668   0.79373   0.81487   0.00000  Uiso   1.00
O985   O     0.16668   0.87293   0.81487   0.00000  Uiso   1.00
O986   O     0.16666   0.79373   0.68513   0.00000  Uiso   1.00
N987   N     0.23273   0.78245   0.88540   0.00000  Uiso   1.00
H988   H     0.23258   0.78754   0.85115   0.00000  Uiso   1.00
H989   H     0.26039   0.79748   0.89608   0.00000  Uiso   1.00
N990   N     0.10060   0.88422   0.61460   0.00000  Uiso   1.00
H991   H     0.10075   0.87912   0.64885   0.00000  Uiso   1.00
H992   H     0.07295   0.86919   0.60391   0.00000  Uiso   1.00
C993   C     0.42069   0.83333   0.74995   0.00000  Uiso   1.00
C994   C     0.57931   0.83334   0.75005   0.00000  Uiso   1.00
C995   C     0.44184   0.88830   0.52050   0.00000  Uiso   1.00
C996   C     0.55816   0.77837   0.97950   0.00000  Uiso   1.00
C997   C     0.35459   0.79080   0.75127   0.00000  Uiso   1.00
C998   C     0.64541   0.87587   0.74873   0.00000  Uiso   1.00
C999   C     0.64536   0.79081   0.75138   0.00000  Uiso   1.00
C1000  C     0.35464   0.87586   0.74862   0.00000  Uiso   1.00
C1001  C     0.62393   0.83334   0.75008   0.00000  Uiso   1.00
C1002  C     0.37607   0.83332   0.74992   0.00000  Uiso   1.00
C1003  C     0.47392   0.69143   0.72294   0.00000  Uiso   1.00
C1004  C     0.52608   0.97524   0.77706   0.00000  Uiso   1.00
C1005  C     0.52608   0.69152   0.77706   0.00000  Uiso   1.00
C1006  C     0.47392   0.97515   0.72294   0.00000  Uiso   1.00
C1007  C     0.49847   0.83331   0.66448   0.00000  Uiso   1.00
C1008  C     0.50153   0.83336   0.83552   0.00000  Uiso   1.00
C1009  C     0.53305   0.80699   0.90754   0.00000  Uiso   1.00
C1010  C     0.46695   0.85968   0.59246   0.00000  Uiso   1.00
C1011  C     0.50346   0.83353   0.88377   0.00000  Uiso   1.00
C1012  C     0.49654   0.83314   0.61623   0.00000  Uiso   1.00
C1013  C     0.47450   0.86084   0.90617   0.00000  Uiso   1.00
C1014  C     0.52551   0.80582   0.59384   0.00000  Uiso   1.00
C1015  C     0.47309   0.86113   0.95229   0.00000  Uiso   1.00
C1016  C     0.52691   0.80554   0.54771   0.00000  Uiso   1.00
C1017  C     0.50099   0.83342   0.97663   0.00000  Uiso   1.00
C1018  C     0.49902   0.83325   0.52337   0.00000  Uiso   1.00
C1019  C     0.53091   0.80603   0.95435   0.00000  Uiso   1.00
C1020  C     0.46909   0.86063   0.54565   0.00000  Uiso   1.00
C1021  C     0.44382   0.88844   0.97434   0.00000  Uiso   1.00
C1022  C     0.55618   0.77823   0.52566   0.00000  Uiso   1.00
Cu1023 Cu    0.50000   0.88022   0.75000   0.00000  Uiso   1.00
Cu1024 Cu    0.50000   0.78645   0.75000   0.00000  Uiso   1.00
H1025  H     0.45241   0.88139   0.88739   0.00000  Uiso   1.00
H1026  H     0.54759   0.78528   0.61261   0.00000  Uiso   1.00
H1027  H     0.42235   0.90996   0.95583   0.00000  Uiso   1.00
H1028  H     0.57766   0.75671   0.54417   0.00000  Uiso   1.00
H1029  H     0.41892   0.91021   0.53623   0.00000  Uiso   1.00
H1030  H     0.58108   0.75646   0.96377   0.00000  Uiso   1.00
H1031  H     0.37059   0.75754   0.75231   0.00000  Uiso   1.00
H1032  H     0.62941   0.90912   0.74769   0.00000  Uiso   1.00
H1033  H     0.62932   0.75756   0.75250   0.00000  Uiso   1.00
H1034  H     0.37068   0.90911   0.74750   0.00000  Uiso   1.00
H1035  H     0.45304   0.71009   0.70126   0.00000  Uiso   1.00
H1036  H     0.54697   0.95658   0.79875   0.00000  Uiso   1.00
H1037  H     0.54697   0.71025   0.79875   0.00000  Uiso   1.00
H1038  H     0.45303   0.95642   0.70125   0.00000  Uiso   1.00
N1039  N     0.50000   0.95069   0.75000   0.00000  Uiso   1.00
N1040  N     0.50000   0.71598   0.75000   0.00000  Uiso   1.00
O1041  O     0.43988   0.87291   0.75000   0.00000  Uiso   1.00
O1042  O     0.56012   0.79375   0.75001   0.00000  Uiso   1.00
O1043  O     0.56012   0.87291   0.75001   0.00000  Uiso   1.00
O1044  O     0.43988   0.79375   0.75000   0.00000  Uiso   1.00
O1045  O     0.49999   0.87293   0.68513   0.00000  Uiso   1.00
O1046  O     0.50001   0.79373   0.81487   0.00000  Uiso   1.00
O1047  O     0.50001   0.87293   0.81487   0.00000  Uiso   1.00
O1048  O     0.49999   0.79373   0.68513   0.00000  Uiso   1.00
N1049  N     0.56606   0.78245   0.88540   0.00000  Uiso   1.00
H1050  H     0.56591   0.78754   0.85115   0.00000  Uiso   1.00
H1051  H     0.59372   0.79748   0.89608   0.00000  Uiso   1.00
N1052  N     0.43394   0.88422   0.61460   0.00000  Uiso   1.00
H1053  H     0.43409   0.87912   0.64885   0.00000  Uiso   1.00
H1054  H     0.40628   0.86919   0.60391   0.00000  Uiso   1.00
C1055  C     0.75402   0.83333   0.74995   0.00000  Uiso   1.00
C1056  C     0.91265   0.83334   0.75005   0.00000  Uiso   1.00
C1057  C     0.77517   0.88830   0.52050   0.00000  Uiso   1.00
C1058  C     0.89150   0.77837   0.97950   0.00000  Uiso   1.00
C1059  C     0.68793   0.79080   0.75127   0.00000  Uiso   1.00
C1060  C     0.97874   0.87587   0.74873   0.00000  Uiso   1.00
C1061  C     0.97869   0.79081   0.75138   0.00000  Uiso   1.00
C1062  C     0.68798   0.87586   0.74862   0.00000  Uiso   1.00
C1063  C     0.95726   0.83334   0.75008   0.00000  Uiso   1.00
C1064  C     0.70941   0.83332   0.74992   0.00000  Uiso   1.00
C1065  C     0.80726   0.69143   0.72294   0.00000  Uiso   1.00
C1066  C     0.85941   0.97524   0.77706   0.00000  Uiso   1.00
C1067  C     0.85941   0.69152   0.77706   0.00000  Uiso   1.00
C1068  C     0.80726   0.97515   0.72294   0.00000  Uiso   1.00
C1069  C     0.83180   0.83331   0.66448   0.00000  Uiso   1.00
C1070  C     0.83486   0.83336   0.83552   0.00000  Uiso   1.00
C1071  C     0.86638   0.80699   0.90754   0.00000  Uiso   1.00
C1072  C     0.80028   0.85968   0.59246   0.00000  Uiso   1.00
C1073  C     0.83679   0.83353   0.88377   0.00000  Uiso   1.00
C1074  C     0.82987   0.83314   0.61623   0.00000  Uiso   1.00
C1075  C     0.80783   0.86084   0.90617   0.00000  Uiso   1.00
C1076  C     0.85884   0.80582   0.59384   0.00000  Uiso   1.00
C1077  C     0.80643   0.86113   0.95229   0.00000  Uiso   1.00
C1078  C     0.86024   0.80554   0.54771   0.00000  Uiso   1.00
C1079  C     0.83432   0.83342   0.97663   0.00000  Uiso   1.00
C1080  C     0.83235   0.83325   0.52337   0.00000  Uiso   1.00
C1081  C     0.86424   0.80603   0.95435   0.00000  Uiso   1.00
C1082  C     0.80243   0.86063   0.54565   0.00000  Uiso   1.00
C1083  C     0.77716   0.88844   0.97434   0.00000  Uiso   1.00
C1084  C     0.88951   0.77823   0.52566   0.00000  Uiso   1.00
Cu1085 Cu    0.83333   0.88022   0.75000   0.00000  Uiso   1.00
Cu1086 Cu    0.83333   0.78645   0.75000   0.00000  Uiso   1.00
H1087  H     0.78574   0.88139   0.88739   0.00000  Uiso   1.00
H1088  H     0.88092   0.78528   0.61261   0.00000  Uiso   1.00
H1089  H     0.75568   0.90996   0.95583   0.00000  Uiso   1.00
H1090  H     0.91099   0.75671   0.54417   0.00000  Uiso   1.00
H1091  H     0.75225   0.91021   0.53623   0.00000  Uiso   1.00
H1092  H     0.91442   0.75646   0.96377   0.00000  Uiso   1.00
H1093  H     0.70392   0.75754   0.75231   0.00000  Uiso   1.00
H1094  H     0.96274   0.90912   0.74769   0.00000  Uiso   1.00
H1095  H     0.96266   0.75756   0.75250   0.00000  Uiso   1.00
H1096  H     0.70401   0.90911   0.74750   0.00000  Uiso   1.00
H1097  H     0.78637   0.71009   0.70126   0.00000  Uiso   1.00
H1098  H     0.88030   0.95658   0.79875   0.00000  Uiso   1.00
H1099  H     0.88030   0.71025   0.79875   0.00000  Uiso   1.00
H1100  H     0.78637   0.95642   0.70125   0.00000  Uiso   1.00
N1101  N     0.83333   0.95069   0.75000   0.00000  Uiso   1.00
N1102  N     0.83333   0.71598   0.75000   0.00000  Uiso   1.00
O1103  O     0.77321   0.87291   0.75000   0.00000  Uiso   1.00
O1104  O     0.89345   0.79375   0.75001   0.00000  Uiso   1.00
O1105  O     0.89345   0.87291   0.75001   0.00000  Uiso   1.00
O1106  O     0.77321   0.79375   0.75000   0.00000  Uiso   1.00
O1107  O     0.83332   0.87293   0.68513   0.00000  Uiso   1.00
O1108  O     0.83334   0.79373   0.81487   0.00000  Uiso   1.00
O1109  O     0.83334   0.87293   0.81487   0.00000  Uiso   1.00
O1110  O     0.83332   0.79373   0.68513   0.00000  Uiso   1.00
N1111  N     0.89940   0.78245   0.88540   0.00000  Uiso   1.00
H1112  H     0.89924   0.78754   0.85115   0.00000  Uiso   1.00
H1113  H     0.92705   0.79748   0.89608   0.00000  Uiso   1.00
N1114  N     0.76727   0.88422   0.61460   0.00000  Uiso   1.00
H1115  H     0.76742   0.87912   0.64885   0.00000  Uiso   1.00
H1116  H     0.73961   0.86919   0.60391   0.00000  Uiso   1.00
loop_
_geom_bond_atom_site_label_1
_geom_bond_atom_site_label_2
_geom_bond_distance
_geom_bond_site_symmetry_2
_ccdc_geom_bond_type
C1     O52     1.291   .     A
C1     O49     1.291   .     A
C1     C10     1.450   .     S
C2     O51     1.291   .     A
C2     O50     1.291   .     A
C2     C9      1.450   .     S
C3     C28     1.407   .     A
C3     H37     1.082   .     S
C3     C587    1.391   1_554 S
C4     C27     1.407   .     A
C4     H38     1.082   .     S
C4     C588    1.391   .     S
C5     H39     1.083   .     S
C5     C10     1.401   .     A
C5     C131    1.383   1_455 S
C6     C9      1.401   .     A
C6     H40     1.083   .     S
C6     C70     1.383   .     S
C7     C9      1.401   .     A
C7     H41     1.083   .     S
C7     C67     1.383   .     S
C8     H42     1.083   .     S
C8     C10     1.401   .     A
C8     C130    1.383   1_455 S
C11    H43     1.082   .     S
C11    N48     1.367   .     A
C11    C386    1.417   1_545 S
C12    N47     1.367   .     A
C12    H44     1.082   .     S
C12    C199    1.417   .     S
C13    N48     1.367   .     A
C13    H45     1.082   .     S
C13    C384    1.417   1_545 S
C14    N47     1.367   .     A
C14    H46     1.082   .     S
C14    C197    1.417   .     S
C15    O56     1.291   .     A
C15    C20     1.453   .     S
C15    O53     1.291   .     A
C16    O55     1.291   .     A
C16    C19     1.453   .     S
C16    O54     1.291   .     A
C17    C19     1.418   .     A
C17    C27     1.411   .     A
C17    N57     1.445   .     S
C18    N60     1.445   .     S
C18    C28     1.411   .     A
C18    C20     1.418   .     A
C19    C21     1.397   .     A
C20    C22     1.397   .     A
C21    C23     1.389   .     A
C21    H33     1.086   .     S
C22    C24     1.389   .     A
C22    H34     1.086   .     S
C23    C29     1.398   .     A
C23    C25     1.409   .     A
C24    C30     1.398   .     A
C24    C26     1.409   .     A
C25    C27     1.417   .     A
C25    C584    1.408   .     S
C26    C28     1.417   .     A
C26    C583    1.408   1_554 S
C29    H35     1.084   .     S
C29    C561    1.391   .     S
C30    H36     1.084   .     S
C30    C562    1.391   1_554 S
Cu31   Cu32    2.678   .     S
Cu31   N47     2.012   .     S
Cu31   O53     1.963   .     S
Cu31   O49     1.965   .     S
Cu31   O55     1.963   .     S
Cu31   O51     1.965   .     S
Cu32   N48     2.012   .     S
Cu32   O50     1.965   .     S
Cu32   O54     1.963   .     S
Cu32   O56     1.963   .     S
Cu32   O52     1.965   .     S
N57    H58     1.041   .     S
N57    H59     1.046   .     S
N60    H62     1.046   .     S
N60    H61     1.041   .     S
C63    O114    1.291   .     A
C63    O111    1.291   .     A
C63    C72     1.450   .     S
C64    O113    1.291   .     A
C64    O112    1.291   .     A
C64    C71     1.450   .     S
C65    C90     1.407   .     A
C65    H99     1.082   .     S
C65    C649    1.391   1_554 S
C66    C89     1.407   .     A
C66    H100    1.082   .     S
C66    C650    1.391   .     S
C67    H101    1.083   .     S
C67    C72     1.401   .     A
C68    C71     1.401   .     A
C68    H102    1.083   .     S
C68    C132    1.383   .     S
C69    C71     1.401   .     A
C69    H103    1.083   .     S
C69    C129    1.383   .     S
C70    H104    1.083   .     S
C70    C72     1.401   .     A
C73    H105    1.082   .     S
C73    N110    1.367   .     A
C73    C448    1.417   1_545 S
C74    N109    1.367   .     A
C74    H106    1.082   .     S
C74    C261    1.417   .     S
C75    N110    1.367   .     A
C75    H107    1.082   .     S
C75    C446    1.417   1_545 S
C76    N109    1.367   .     A
C76    H108    1.082   .     S
C76    C259    1.417   .     S
C77    O118    1.291   .     A
C77    C82     1.453   .     S
C77    O115    1.291   .     A
C78    O117    1.291   .     A
C78    C81     1.453   .     S
C78    O116    1.291   .     A
C79    C81     1.418   .     A
C79    C89     1.411   .     A
C79    N119    1.445   .     S
C80    N122    1.445   .     S
C80    C90     1.411   .     A
C80    C82     1.418   .     A
C81    C83     1.397   .     A
C82    C84     1.397   .     A
C83    C85     1.389   .     A
C83    H95     1.086   .     S
C84    C86     1.389   .     A
C84    H96     1.086   .     S
C85    C91     1.398   .     A
C85    C87     1.409   .     A
C86    C92     1.398   .     A
C86    C88     1.409   .     A
C87    C89     1.417   .     A
C87    C646    1.408   .     S
C88    C90     1.417   .     A
C88    C645    1.408   1_554 S
C91    H97     1.084   .     S
C91    C623    1.391   .     S
C92    H98     1.084   .     S
C92    C624    1.391   1_554 S
Cu93   Cu94    2.678   .     S
Cu93   N109    2.012   .     S
Cu93   O115    1.963   .     S
Cu93   O111    1.965   .     S
Cu93   O117    1.963   .     S
Cu93   O113    1.965   .     S
Cu94   N110    2.012   .     S
Cu94   O112    1.965   .     S
Cu94   O116    1.963   .     S
Cu94   O118    1.963   .     S
Cu94   O114    1.965   .     S
N119   H120    1.041   .     S
N119   H121    1.046   .     S
N122   H124    1.046   .     S
N122   H123    1.041   .     S
C125   O176    1.291   .     A
C125   O173    1.291   .     A
C125   C134    1.450   .     S
C126   O175    1.291   .     A
C126   O174    1.291   .     A
C126   C133    1.450   .     S
C127   C152    1.407   .     A
C127   H161    1.082   .     S
C127   C711    1.391   1_554 S
C128   C151    1.407   .     A
C128   H162    1.082   .     S
C128   C712    1.391   .     S
C129   H163    1.083   .     S
C129   C134    1.401   .     A
C130   C133    1.401   .     A
C130   H164    1.083   .     S
C130   C8      1.383   1_655 S
C131   C133    1.401   .     A
C131   H165    1.083   .     S
C131   C5      1.383   1_655 S
C132   H166    1.083   .     S
C132   C134    1.401   .     A
C135   H167    1.082   .     S
C135   N172    1.367   .     A
C135   C510    1.417   1_545 S
C136   N171    1.367   .     A
C136   H168    1.082   .     S
C136   C323    1.417   .     S
C137   N172    1.367   .     A
C137   H169    1.082   .     S
C137   C508    1.417   1_545 S
C138   N171    1.367   .     A
C138   H170    1.082   .     S
C138   C321    1.417   .     S
C139   O180    1.291   .     A
C139   C144    1.453   .     S
C139   O177    1.291   .     A
C140   O179    1.291   .     A
C140   C143    1.453   .     S
C140   O178    1.291   .     A
C141   C143    1.418   .     A
C141   C151    1.411   .     A
C141   N181    1.445   .     S
C142   N184    1.445   .     S
C142   C152    1.411   .     A
C142   C144    1.418   .     A
C143   C145    1.397   .     A
C144   C146    1.397   .     A
C145   C147    1.389   .     A
C145   H157    1.086   .     S
C146   C148    1.389   .     A
C146   H158    1.086   .     S
C147   C153    1.398   .     A
C147   C149    1.409   .     A
C148   C154    1.398   .     A
C148   C150    1.409   .     A
C149   C151    1.417   .     A
C149   C708    1.408   .     S
C150   C152    1.417   .     A
C150   C707    1.408   1_554 S
C153   H159    1.084   .     S
C153   C685    1.391   .     S
C154   H160    1.084   .     S
C154   C686    1.391   1_554 S
Cu155  Cu156   2.678   .     S
Cu155  N171    2.012   .     S
Cu155  O177    1.963   .     S
Cu155  O173    1.965   .     S
Cu155  O179    1.963   .     S
Cu155  O175    1.965   .     S
Cu156  N172    2.012   .     S
Cu156  O174    1.965   .     S
Cu156  O178    1.963   .     S
Cu156  O180    1.963   .     S
Cu156  O176    1.965   .     S
N181   H182    1.041   .     S
N181   H183    1.046   .     S
N184   H186    1.046   .     S
N184   H185    1.041   .     S
C187   O238    1.291   .     A
C187   O235    1.291   .     A
C187   C196    1.450   .     S
C188   O237    1.291   .     A
C188   O236    1.291   .     A
C188   C195    1.450   .     S
C189   C214    1.407   .     A
C189   H223    1.082   .     S
C189   C773    1.391   1_554 S
C190   C213    1.407   .     A
C190   H224    1.082   .     S
C190   C774    1.391   .     S
C191   H225    1.083   .     S
C191   C196    1.401   .     A
C191   C317    1.383   1_455 S
C192   C195    1.401   .     A
C192   H226    1.083   .     S
C192   C256    1.383   .     S
C193   C195    1.401   .     A
C193   H227    1.083   .     S
C193   C253    1.383   .     S
C194   H228    1.083   .     S
C194   C196    1.401   .     A
C194   C316    1.383   1_455 S
C197   H229    1.082   .     S
C197   N234    1.367   .     A
C198   N233    1.367   .     A
C198   H230    1.082   .     S
C198   C385    1.417   .     S
C199   N234    1.367   .     A
C199   H231    1.082   .     S
C200   N233    1.367   .     A
C200   H232    1.082   .     S
C200   C383    1.417   .     S
C201   O242    1.291   .     A
C201   C206    1.453   .     S
C201   O239    1.291   .     A
C202   O241    1.291   .     A
C202   C205    1.453   .     S
C202   O240    1.291   .     A
C203   C205    1.418   .     A
C203   C213    1.411   .     A
C203   N243    1.445   .     S
C204   N246    1.445   .     S
C204   C214    1.411   .     A
C204   C206    1.418   .     A
C205   C207    1.397   .     A
C206   C208    1.397   .     A
C207   C209    1.389   .     A
C207   H219    1.086   .     S
C208   C210    1.389   .     A
C208   H220    1.086   .     S
C209   C215    1.398   .     A
C209   C211    1.409   .     A
C210   C216    1.398   .     A
C210   C212    1.409   .     A
C211   C213    1.417   .     A
C211   C770    1.408   .     S
C212   C214    1.417   .     A
C212   C769    1.408   1_554 S
C215   H221    1.084   .     S
C215   C747    1.391   .     S
C216   H222    1.084   .     S
C216   C748    1.391   1_554 S
Cu217  Cu218   2.678   .     S
Cu217  N233    2.012   .     S
Cu217  O239    1.963   .     S
Cu217  O235    1.965   .     S
Cu217  O241    1.963   .     S
Cu217  O237    1.965   .     S
Cu218  N234    2.012   .     S
Cu218  O236    1.965   .     S
Cu218  O240    1.963   .     S
Cu218  O242    1.963   .     S
Cu218  O238    1.965   .     S
N243   H244    1.041   .     S
N243   H245    1.046   .     S
N246   H248    1.046   .     S
N246   H247    1.041   .     S
C249   O300    1.291   .     A
C249   O297    1.291   .     A
C249   C258    1.450   .     S
C250   O299    1.291   .     A
C250   O298    1.291   .     A
C250   C257    1.450   .     S
C251   C276    1.407   .     A
C251   H285    1.082   .     S
C251   C835    1.391   1_554 S
C252   C275    1.407   .     A
C252   H286    1.082   .     S
C252   C836    1.391   .     S
C253   H287    1.083   .     S
C253   C258    1.401   .     A
C254   C257    1.401   .     A
C254   H288    1.083   .     S
C254   C318    1.383   .     S
C255   C257    1.401   .     A
C255   H289    1.083   .     S
C255   C315    1.383   .     S
C256   H290    1.083   .     S
C256   C258    1.401   .     A
C259   H291    1.082   .     S
C259   N296    1.367   .     A
C260   N295    1.367   .     A
C260   H292    1.082   .     S
C260   C447    1.417   .     S
C261   N296    1.367   .     A
C261   H293    1.082   .     S
C262   N295    1.367   .     A
C262   H294    1.082   .     S
C262   C445    1.417   .     S
C263   O304    1.291   .     A
C263   C268    1.453   .     S
C263   O301    1.291   .     A
C264   O303    1.291   .     A
C264   C267    1.453   .     S
C264   O302    1.291   .     A
C265   C267    1.418   .     A
C265   C275    1.411   .     A
C265   N305    1.445   .     S
C266   N308    1.445   .     S
C266   C276    1.411   .     A
C266   C268    1.418   .     A
C267   C269    1.397   .     A
C268   C270    1.397   .     A
C269   C271    1.389   .     A
C269   H281    1.086   .     S
C270   C272    1.389   .     A
C270   H282    1.086   .     S
C271   C277    1.398   .     A
C271   C273    1.409   .     A
C272   C278    1.398   .     A
C272   C274    1.409   .     A
C273   C275    1.417   .     A
C273   C832    1.408   .     S
C274   C276    1.417   .     A
C274   C831    1.408   1_554 S
C277   H283    1.084   .     S
C277   C809    1.391   .     S
C278   H284    1.084   .     S
C278   C810    1.391   1_554 S
Cu279  Cu280   2.678   .     S
Cu279  N295    2.012   .     S
Cu279  O301    1.963   .     S
Cu279  O297    1.965   .     S
Cu279  O303    1.963   .     S
Cu279  O299    1.965   .     S
Cu280  N296    2.012   .     S
Cu280  O298    1.965   .     S
Cu280  O302    1.963   .     S
Cu280  O304    1.963   .     S
Cu280  O300    1.965   .     S
N305   H306    1.041   .     S
N305   H307    1.046   .     S
N308   H310    1.046   .     S
N308   H309    1.041   .     S
C311   O362    1.291   .     A
C311   O359    1.291   .     A
C311   C320    1.450   .     S
C312   O361    1.291   .     A
C312   O360    1.291   .     A
C312   C319    1.450   .     S
C313   C338    1.407   .     A
C313   H347    1.082   .     S
C313   C897    1.391   1_554 S
C314   C337    1.407   .     A
C314   H348    1.082   .     S
C314   C898    1.391   .     S
C315   H349    1.083   .     S
C315   C320    1.401   .     A
C316   C319    1.401   .     A
C316   H350    1.083   .     S
C316   C194    1.383   1_655 S
C317   C319    1.401   .     A
C317   H351    1.083   .     S
C317   C191    1.383   1_655 S
C318   H352    1.083   .     S
C318   C320    1.401   .     A
C321   H353    1.082   .     S
C321   N358    1.367   .     A
C322   N357    1.367   .     A
C322   H354    1.082   .     S
C322   C509    1.417   .     S
C323   N358    1.367   .     A
C323   H355    1.082   .     S
C324   N357    1.367   .     A
C324   H356    1.082   .     S
C324   C507    1.417   .     S
C325   O366    1.291   .     A
C325   C330    1.453   .     S
C325   O363    1.291   .     A
C326   O365    1.291   .     A
C326   C329    1.453   .     S
C326   O364    1.291   .     A
C327   C329    1.418   .     A
C327   C337    1.411   .     A
C327   N367    1.445   .     S
C328   N370    1.445   .     S
C328   C338    1.411   .     A
C328   C330    1.418   .     A
C329   C331    1.397   .     A
C330   C332    1.397   .     A
C331   C333    1.389   .     A
C331   H343    1.086   .     S
C332   C334    1.389   .     A
C332   H344    1.086   .     S
C333   C339    1.398   .     A
C333   C335    1.409   .     A
C334   C340    1.398   .     A
C334   C336    1.409   .     A
C335   C337    1.417   .     A
C335   C894    1.408   .     S
C336   C338    1.417   .     A
C336   C893    1.408   1_554 S
C339   H345    1.084   .     S
C339   C871    1.391   .     S
C340   H346    1.084   .     S
C340   C872    1.391   1_554 S
Cu341  Cu342   2.678   .     S
Cu341  N357    2.012   .     S
Cu341  O363    1.963   .     S
Cu341  O359    1.965   .     S
Cu341  O365    1.963   .     S
Cu341  O361    1.965   .     S
Cu342  N358    2.012   .     S
Cu342  O360    1.965   .     S
Cu342  O364    1.963   .     S
Cu342  O366    1.963   .     S
Cu342  O362    1.965   .     S
N367   H368    1.041   .     S
N367   H369    1.046   .     S
N370   H372    1.046   .     S
N370   H371    1.041   .     S
C373   O424    1.291   .     A
C373   O421    1.291   .     A
C373   C382    1.450   .     S
C374   O423    1.291   .     A
C374   O422    1.291   .     A
C374   C381    1.450   .     S
C375   C400    1.407   .     A
C375   H409    1.082   .     S
C375   C959    1.391   1_554 S
C376   C399    1.407   .     A
C376   H410    1.082   .     S
C376   C960    1.391   .     S
C377   H411    1.083   .     S
C377   C382    1.401   .     A
C377   C503    1.383   1_455 S
C378   C381    1.401   .     A
C378   H412    1.083   .     S
C378   C442    1.383   .     S
C379   C381    1.401   .     A
C379   H413    1.083   .     S
C379   C439    1.383   .     S
C380   H414    1.083   .     S
C380   C382    1.401   .     A
C380   C502    1.383   1_455 S
C383   H415    1.082   .     S
C383   N420    1.367   .     A
C384   N419    1.367   .     A
C384   H416    1.082   .     S
C384   C13     1.417   1_565 S
C385   N420    1.367   .     A
C385   H417    1.082   .     S
C386   N419    1.367   .     A
C386   H418    1.082   .     S
C386   C11     1.417   1_565 S
C387   O428    1.291   .     A
C387   C392    1.453   .     S
C387   O425    1.291   .     A
C388   O427    1.291   .     A
C388   C391    1.453   .     S
C388   O426    1.291   .     A
C389   C391    1.418   .     A
C389   C399    1.411   .     A
C389   N429    1.445   .     S
C390   N432    1.445   .     S
C390   C400    1.411   .     A
C390   C392    1.418   .     A
C391   C393    1.397   .     A
C392   C394    1.397   .     A
C393   C395    1.389   .     A
C393   H405    1.086   .     S
C394   C396    1.389   .     A
C394   H406    1.086   .     S
C395   C401    1.398   .     A
C395   C397    1.409   .     A
C396   C402    1.398   .     A
C396   C398    1.409   .     A
C397   C399    1.417   .     A
C397   C956    1.408   .     S
C398   C400    1.417   .     A
C398   C955    1.408   1_554 S
C401   H407    1.084   .     S
C401   C933    1.391   .     S
C402   H408    1.084   .     S
C402   C934    1.391   1_554 S
Cu403  Cu404   2.678   .     S
Cu403  N419    2.012   .     S
Cu403  O425    1.963   .     S
Cu403  O421    1.965   .     S
Cu403  O427    1.963   .     S
Cu403  O423    1.965   .     S
Cu404  N420    2.012   .     S
Cu404  O422    1.965   .     S
Cu404  O426    1.963   .     S
Cu404  O428    1.963   .     S
Cu404  O424    1.965   .     S
N429   H430    1.041   .     S
N429   H431    1.046   .     S
N432   H434    1.046   .     S
N432   H433    1.041   .     S
C435   O486    1.291   .     A
C435   O483    1.291   .     A
C435   C444    1.450   .     S
C436   O485    1.291   .     A
C436   O484    1.291   .     A
C436   C443    1.450   .     S
C437   C462    1.407   .     A
C437   H471    1.082   .     S
C437   C1021   1.391   1_554 S
C438   C461    1.407   .     A
C438   H472    1.082   .     S
C438   C1022   1.391   .     S
C439   H473    1.083   .     S
C439   C444    1.401   .     A
C440   C443    1.401   .     A
C440   H474    1.083   .     S
C440   C504    1.383   .     S
C441   C443    1.401   .     A
C441   H475    1.083   .     S
C441   C501    1.383   .     S
C442   H476    1.083   .     S
C442   C444    1.401   .     A
C445   H477    1.082   .     S
C445   N482    1.367   .     A
C446   N481    1.367   .     A
C446   H478    1.082   .     S
C446   C75     1.417   1_565 S
C447   N482    1.367   .     A
C447   H479    1.082   .     S
C448   N481    1.367   .     A
C448   H480    1.082   .     S
C448   C73     1.417   1_565 S
C449   O490    1.291   .     A
C449   C454    1.453   .     S
C449   O487    1.291   .     A
C450   O489    1.291   .     A
C450   C453    1.453   .     S
C450   O488    1.291   .     A
C451   C453    1.418   .     A
C451   C461    1.411   .     A
C451   N491    1.445   .     S
C452   N494    1.445   .     S
C452   C462    1.411   .     A
C452   C454    1.418   .     A
C453   C455    1.397   .     A
C454   C456    1.397   .     A
C455   C457    1.389   .     A
C455   H467    1.086   .     S
C456   C458    1.389   .     A
C456   H468    1.086   .     S
C457   C463    1.398   .     A
C457   C459    1.409   .     A
C458   C464    1.398   .     A
C458   C460    1.409   .     A
C459   C461    1.417   .     A
C459   C1018   1.408   .     S
C460   C462    1.417   .     A
C460   C1017   1.408   1_554 S
C463   H469    1.084   .     S
C463   C995    1.391   .     S
C464   H470    1.084   .     S
C464   C996    1.391   1_554 S
Cu465  Cu466   2.678   .     S
Cu465  N481    2.012   .     S
Cu465  O487    1.963   .     S
Cu465  O483    1.965   .     S
Cu465  O489    1.963   .     S
Cu465  O485    1.965   .     S
Cu466  N482    2.012   .     S
Cu466  O484    1.965   .     S
Cu466  O488    1.963   .     S
Cu466  O490    1.963   .     S
Cu466  O486    1.965   .     S
N491   H492    1.041   .     S
N491   H493    1.046   .     S
N494   H496    1.046   .     S
N494   H495    1.041   .     S
C497   O548    1.291   .     A
C497   O545    1.291   .     A
C497   C506    1.450   .     S
C498   O547    1.291   .     A
C498   O546    1.291   .     A
C498   C505    1.450   .     S
C499   C524    1.407   .     A
C499   H533    1.082   .     S
C499   C1083   1.391   1_554 S
C500   C523    1.407   .     A
C500   H534    1.082   .     S
C500   C1084   1.391   .     S
C501   H535    1.083   .     S
C501   C506    1.401   .     A
C502   C505    1.401   .     A
C502   H536    1.083   .     S
C502   C380    1.383   1_655 S
C503   C505    1.401   .     A
C503   H537    1.083   .     S
C503   C377    1.383   1_655 S
C504   H538    1.083   .     S
C504   C506    1.401   .     A
C507   H539    1.082   .     S
C507   N544    1.367   .     A
C508   N543    1.367   .     A
C508   H540    1.082   .     S
C508   C137    1.417   1_565 S
C509   N544    1.367   .     A
C509   H541    1.082   .     S
C510   N543    1.367   .     A
C510   H542    1.082   .     S
C510   C135    1.417   1_565 S
C511   O552    1.291   .     A
C511   C516    1.453   .     S
C511   O549    1.291   .     A
C512   O551    1.291   .     A
C512   C515    1.453   .     S
C512   O550    1.291   .     A
C513   C515    1.418   .     A
C513   C523    1.411   .     A
C513   N553    1.445   .     S
C514   N556    1.445   .     S
C514   C524    1.411   .     A
C514   C516    1.418   .     A
C515   C517    1.397   .     A
C516   C518    1.397   .     A
C517   C519    1.389   .     A
C517   H529    1.086   .     S
C518   C520    1.389   .     A
C518   H530    1.086   .     S
C519   C525    1.398   .     A
C519   C521    1.409   .     A
C520   C526    1.398   .     A
C520   C522    1.409   .     A
C521   C523    1.417   .     A
C521   C1080   1.408   .     S
C522   C524    1.417   .     A
C522   C1079   1.408   1_554 S
C525   H531    1.084   .     S
C525   C1057   1.391   .     S
C526   H532    1.084   .     S
C526   C1058   1.391   1_554 S
Cu527  Cu528   2.678   .     S
Cu527  N543    2.012   .     S
Cu527  O549    1.963   .     S
Cu527  O545    1.965   .     S
Cu527  O551    1.963   .     S
Cu527  O547    1.965   .     S
Cu528  N544    2.012   .     S
Cu528  O546    1.965   .     S
Cu528  O550    1.963   .     S
Cu528  O552    1.963   .     S
Cu528  O548    1.965   .     S
N553   H554    1.041   .     S
N553   H555    1.046   .     S
N556   H558    1.046   .     S
N556   H557    1.041   .     S
C559   O610    1.291   .     A
C559   O607    1.291   .     A
C559   C568    1.450   .     S
C560   O609    1.291   .     A
C560   O608    1.291   .     A
C560   C567    1.450   .     S
C561   C586    1.407   .     A
C561   H595    1.082   .     S
C562   C585    1.407   .     A
C562   H596    1.082   .     S
C562   C30     1.391   1_556 S
C563   H597    1.083   .     S
C563   C568    1.401   .     A
C563   C689    1.383   1_455 S
C564   C567    1.401   .     A
C564   H598    1.083   .     S
C564   C628    1.383   .     S
C565   C567    1.401   .     A
C565   H599    1.083   .     S
C565   C625    1.383   .     S
C566   H600    1.083   .     S
C566   C568    1.401   .     A
C566   C688    1.383   1_455 S
C569   H601    1.082   .     S
C569   N606    1.367   .     A
C569   C944    1.417   1_545 S
C570   N605    1.367   .     A
C570   H602    1.082   .     S
C570   C757    1.417   .     S
C571   N606    1.367   .     A
C571   H603    1.082   .     S
C571   C942    1.417   1_545 S
C572   N605    1.367   .     A
C572   H604    1.082   .     S
C572   C755    1.417   .     S
C573   O614    1.291   .     A
C573   C578    1.453   .     S
C573   O611    1.291   .     A
C574   O613    1.291   .     A
C574   C577    1.453   .     S
C574   O612    1.291   .     A
C575   C577    1.418   .     A
C575   C585    1.411   .     A
C575   N615    1.445   .     S
C576   N618    1.445   .     S
C576   C586    1.411   .     A
C576   C578    1.418   .     A
C577   C579    1.397   .     A
C578   C580    1.397   .     A
C579   C581    1.389   .     A
C579   H591    1.086   .     S
C580   C582    1.389   .     A
C580   H592    1.086   .     S
C581   C587    1.398   .     A
C581   C583    1.409   .     A
C582   C588    1.398   .     A
C582   C584    1.409   .     A
C583   C585    1.417   .     A
C583   C26     1.408   1_556 S
C584   C586    1.417   .     A
C587   H593    1.084   .     S
C587   C3      1.391   1_556 S
C588   H594    1.084   .     S
Cu589  Cu590   2.678   .     S
Cu589  N605    2.012   .     S
Cu589  O611    1.963   .     S
Cu589  O607    1.965   .     S
Cu589  O613    1.963   .     S
Cu589  O609    1.965   .     S
Cu590  N606    2.012   .     S
Cu590  O608    1.965   .     S
Cu590  O612    1.963   .     S
Cu590  O614    1.963   .     S
Cu590  O610    1.965   .     S
N615   H616    1.041   .     S
N615   H617    1.046   .     S
N618   H620    1.046   .     S
N618   H619    1.041   .     S
C621   O672    1.291   .     A
C621   O669    1.291   .     A
C621   C630    1.450   .     S
C622   O671    1.291   .     A
C622   O670    1.291   .     A
C622   C629    1.450   .     S
C623   C648    1.407   .     A
C623   H657    1.082   .     S
C624   C647    1.407   .     A
C624   H658    1.082   .     S
C624   C92     1.391   1_556 S
C625   H659    1.083   .     S
C625   C630    1.401   .     A
C626   C629    1.401   .     A
C626   H660    1.083   .     S
C626   C690    1.383   .     S
C627   C629    1.401   .     A
C627   H661    1.083   .     S
C627   C687    1.383   .     S
C628   H662    1.083   .     S
C628   C630    1.401   .     A
C631   H663    1.082   .     S
C631   N668    1.367   .     A
C631   C1006   1.417   1_545 S
C632   N667    1.367   .     A
C632   H664    1.082   .     S
C632   C819    1.417   .     S
C633   N668    1.367   .     A
C633   H665    1.082   .     S
C633   C1004   1.417   1_545 S
C634   N667    1.367   .     A
C634   H666    1.082   .     S
C634   C817    1.417   .     S
C635   O676    1.291   .     A
C635   C640    1.453   .     S
C635   O673    1.291   .     A
C636   O675    1.291   .     A
C636   C639    1.453   .     S
C636   O674    1.291   .     A
C637   C639    1.418   .     A
C637   C647    1.411   .     A
C637   N677    1.445   .     S
C638   N680    1.445   .     S
C638   C648    1.411   .     A
C638   C640    1.418   .     A
C639   C641    1.397   .     A
C640   C642    1.397   .     A
C641   C643    1.389   .     A
C641   H653    1.086   .     S
C642   C644    1.389   .     A
C642   H654    1.086   .     S
C643   C649    1.398   .     A
C643   C645    1.409   .     A
C644   C650    1.398   .     A
C644   C646    1.409   .     A
C645   C647    1.417   .     A
C645   C88     1.408   1_556 S
C646   C648    1.417   .     A
C649   H655    1.084   .     S
C649   C65     1.391   1_556 S
C650   H656    1.084   .     S
Cu651  Cu652   2.678   .     S
Cu651  N667    2.012   .     S
Cu651  O673    1.963   .     S
Cu651  O669    1.965   .     S
Cu651  O675    1.963   .     S
Cu651  O671    1.965   .     S
Cu652  N668    2.012   .     S
Cu652  O670    1.965   .     S
Cu652  O674    1.963   .     S
Cu652  O676    1.963   .     S
Cu652  O672    1.965   .     S
N677   H678    1.041   .     S
N677   H679    1.046   .     S
N680   H682    1.046   .     S
N680   H681    1.041   .     S
C683   O734    1.291   .     A
C683   O731    1.291   .     A
C683   C692    1.450   .     S
C684   O733    1.291   .     A
C684   O732    1.291   .     A
C684   C691    1.450   .     S
C685   C710    1.407   .     A
C685   H719    1.082   .     S
C686   C709    1.407   .     A
C686   H720    1.082   .     S
C686   C154    1.391   1_556 S
C687   H721    1.083   .     S
C687   C692    1.401   .     A
C688   C691    1.401   .     A
C688   H722    1.083   .     S
C688   C566    1.383   1_655 S
C689   C691    1.401   .     A
C689   H723    1.083   .     S
C689   C563    1.383   1_655 S
C690   H724    1.083   .     S
C690   C692    1.401   .     A
C693   H725    1.082   .     S
C693   N730    1.367   .     A
C693   C1068   1.417   1_545 S
C694   N729    1.367   .     A
C694   H726    1.082   .     S
C694   C881    1.417   .     S
C695   N730    1.367   .     A
C695   H727    1.082   .     S
C695   C1066   1.417   1_545 S
C696   N729    1.367   .     A
C696   H728    1.082   .     S
C696   C879    1.417   .     S
C697   O738    1.291   .     A
C697   C702    1.453   .     S
C697   O735    1.291   .     A
C698   O737    1.291   .     A
C698   C701    1.453   .     S
C698   O736    1.291   .     A
C699   C701    1.418   .     A
C699   C709    1.411   .     A
C699   N739    1.445   .     S
C700   N742    1.445   .     S
C700   C710    1.411   .     A
C700   C702    1.418   .     A
C701   C703    1.397   .     A
C702   C704    1.397   .     A
C703   C705    1.389   .     A
C703   H715    1.086   .     S
C704   C706    1.389   .     A
C704   H716    1.086   .     S
C705   C711    1.398   .     A
C705   C707    1.409   .     A
C706   C712    1.398   .     A
C706   C708    1.409   .     A
C707   C709    1.417   .     A
C707   C150    1.408   1_556 S
C708   C710    1.417   .     A
C711   H717    1.084   .     S
C711   C127    1.391   1_556 S
C712   H718    1.084   .     S
Cu713  Cu714   2.678   .     S
Cu713  N729    2.012   .     S
Cu713  O735    1.963   .     S
Cu713  O731    1.965   .     S
Cu713  O737    1.963   .     S
Cu713  O733    1.965   .     S
Cu714  N730    2.012   .     S
Cu714  O732    1.965   .     S
Cu714  O736    1.963   .     S
Cu714  O738    1.963   .     S
Cu714  O734    1.965   .     S
N739   H740    1.041   .     S
N739   H741    1.046   .     S
N742   H744    1.046   .     S
N742   H743    1.041   .     S
C745   O796    1.291   .     A
C745   O793    1.291   .     A
C745   C754    1.450   .     S
C746   O795    1.291   .     A
C746   O794    1.291   .     A
C746   C753    1.450   .     S
C747   C772    1.407   .     A
C747   H781    1.082   .     S
C748   C771    1.407   .     A
C748   H782    1.082   .     S
C748   C216    1.391   1_556 S
C749   H783    1.083   .     S
C749   C754    1.401   .     A
C749   C875    1.383   1_455 S
C750   C753    1.401   .     A
C750   H784    1.083   .     S
C750   C814    1.383   .     S
C751   C753    1.401   .     A
C751   H785    1.083   .     S
C751   C811    1.383   .     S
C752   H786    1.083   .     S
C752   C754    1.401   .     A
C752   C874    1.383   1_455 S
C755   H787    1.082   .     S
C755   N792    1.367   .     A
C756   N791    1.367   .     A
C756   H788    1.082   .     S
C756   C943    1.417   .     S
C757   N792    1.367   .     A
C757   H789    1.082   .     S
C758   N791    1.367   .     A
C758   H790    1.082   .     S
C758   C941    1.417   .     S
C759   O800    1.291   .     A
C759   C764    1.453   .     S
C759   O797    1.291   .     A
C760   O799    1.291   .     A
C760   C763    1.453   .     S
C760   O798    1.291   .     A
C761   C763    1.418   .     A
C761   C771    1.411   .     A
C761   N801    1.445   .     S
C762   N804    1.445   .     S
C762   C772    1.411   .     A
C762   C764    1.418   .     A
C763   C765    1.397   .     A
C764   C766    1.397   .     A
C765   C767    1.389   .     A
C765   H777    1.086   .     S
C766   C768    1.389   .     A
C766   H778    1.086   .     S
C767   C773    1.398   .     A
C767   C769    1.409   .     A
C768   C774    1.398   .     A
C768   C770    1.409   .     A
C769   C771    1.417   .     A
C769   C212    1.408   1_556 S
C770   C772    1.417   .     A
C773   H779    1.084   .     S
C773   C189    1.391   1_556 S
C774   H780    1.084   .     S
Cu775  Cu776   2.678   .     S
Cu775  N791    2.012   .     S
Cu775  O797    1.963   .     S
Cu775  O793    1.965   .     S
Cu775  O799    1.963   .     S
Cu775  O795    1.965   .     S
Cu776  N792    2.012   .     S
Cu776  O794    1.965   .     S
Cu776  O798    1.963   .     S
Cu776  O800    1.963   .     S
Cu776  O796    1.965   .     S
N801   H802    1.041   .     S
N801   H803    1.046   .     S
N804   H806    1.046   .     S
N804   H805    1.041   .     S
C807   O858    1.291   .     A
C807   O855    1.291   .     A
C807   C816    1.450   .     S
C808   O857    1.291   .     A
C808   O856    1.291   .     A
C808   C815    1.450   .     S
C809   C834    1.407   .     A
C809   H843    1.082   .     S
C810   C833    1.407   .     A
C810   H844    1.082   .     S
C810   C278    1.391   1_556 S
C811   H845    1.083   .     S
C811   C816    1.401   .     A
C812   C815    1.401   .     A
C812   H846    1.083   .     S
C812   C876    1.383   .     S
C813   C815    1.401   .     A
C813   H847    1.083   .     S
C813   C873    1.383   .     S
C814   H848    1.083   .     S
C814   C816    1.401   .     A
C817   H849    1.082   .     S
C817   N854    1.367   .     A
C818   N853    1.367   .     A
C818   H850    1.082   .     S
C818   C1005   1.417   .     S
C819   N854    1.367   .     A
C819   H851    1.082   .     S
C820   N853    1.367   .     A
C820   H852    1.082   .     S
C820   C1003   1.417   .     S
C821   O862    1.291   .     A
C821   C826    1.453   .     S
C821   O859    1.291   .     A
C822   O861    1.291   .     A
C822   C825    1.453   .     S
C822   O860    1.291   .     A
C823   C825    1.418   .     A
C823   C833    1.411   .     A
C823   N863    1.445   .     S
C824   N866    1.445   .     S
C824   C834    1.411   .     A
C824   C826    1.418   .     A
C825   C827    1.397   .     A
C826   C828    1.397   .     A
C827   C829    1.389   .     A
C827   H839    1.086   .     S
C828   C830    1.389   .     A
C828   H840    1.086   .     S
C829   C835    1.398   .     A
C829   C831    1.409   .     A
C830   C836    1.398   .     A
C830   C832    1.409   .     A
C831   C833    1.417   .     A
C831   C274    1.408   1_556 S
C832   C834    1.417   .     A
C835   H841    1.084   .     S
C835   C251    1.391   1_556 S
C836   H842    1.084   .     S
Cu837  Cu838   2.678   .     S
Cu837  N853    2.012   .     S
Cu837  O859    1.963   .     S
Cu837  O855    1.965   .     S
Cu837  O861    1.963   .     S
Cu837  O857    1.965   .     S
Cu838  N854    2.012   .     S
Cu838  O856    1.965   .     S
Cu838  O860    1.963   .     S
Cu838  O862    1.963   .     S
Cu838  O858    1.965   .     S
N863   H864    1.041   .     S
N863   H865    1.046   .     S
N866   H868    1.046   .     S
N866   H867    1.041   .     S
C869   O920    1.291   .     A
C869   O917    1.291   .     A
C869   C878    1.450   .     S
C870   O919    1.291   .     A
C870   O918    1.291   .     A
C870   C877    1.450   .     S
C871   C896    1.407   .     A
C871   H905    1.082   .     S
C872   C895    1.407   .     A
C872   H906    1.082   .     S
C872   C340    1.391   1_556 S
C873   H907    1.083   .     S
C873   C878    1.401   .     A
C874   C877    1.401   .     A
C874   H908    1.083   .     S
C874   C752    1.383   1_655 S
C875   C877    1.401   .     A
C875   H909    1.083   .     S
C875   C749    1.383   1_655 S
C876   H910    1.083   .     S
C876   C878    1.401   .     A
C879   H911    1.082   .     S
C879   N916    1.367   .     A
C880   N915    1.367   .     A
C880   H912    1.082   .     S
C880   C1067   1.417   .     S
C881   N916    1.367   .     A
C881   H913    1.082   .     S
C882   N915    1.367   .     A
C882   H914    1.082   .     S
C882   C1065   1.417   .     S
C883   O924    1.291   .     A
C883   C888    1.453   .     S
C883   O921    1.291   .     A
C884   O923    1.291   .     A
C884   C887    1.453   .     S
C884   O922    1.291   .     A
C885   C887    1.418   .     A
C885   C895    1.411   .     A
C885   N925    1.445   .     S
C886   N928    1.445   .     S
C886   C896    1.411   .     A
C886   C888    1.418   .     A
C887   C889    1.397   .     A
C888   C890    1.397   .     A
C889   C891    1.389   .     A
C889   H901    1.086   .     S
C890   C892    1.389   .     A
C890   H902    1.086   .     S
C891   C897    1.398   .     A
C891   C893    1.409   .     A
C892   C898    1.398   .     A
C892   C894    1.409   .     A
C893   C895    1.417   .     A
C893   C336    1.408   1_556 S
C894   C896    1.417   .     A
C897   H903    1.084   .     S
C897   C313    1.391   1_556 S
C898   H904    1.084   .     S
Cu899  Cu900   2.678   .     S
Cu899  N915    2.012   .     S
Cu899  O921    1.963   .     S
Cu899  O917    1.965   .     S
Cu899  O923    1.963   .     S
Cu899  O919    1.965   .     S
Cu900  N916    2.012   .     S
Cu900  O918    1.965   .     S
Cu900  O922    1.963   .     S
Cu900  O924    1.963   .     S
Cu900  O920    1.965   .     S
N925   H926    1.041   .     S
N925   H927    1.046   .     S
N928   H930    1.046   .     S
N928   H929    1.041   .     S
C931   O982    1.291   .     A
C931   O979    1.291   .     A
C931   C940    1.450   .     S
C932   O981    1.291   .     A
C932   O980    1.291   .     A
C932   C939    1.450   .     S
C933   C958    1.407   .     A
C933   H967    1.082   .     S
C934   C957    1.407   .     A
C934   H968    1.082   .     S
C934   C402    1.391   1_556 S
C935   H969    1.083   .     S
C935   C940    1.401   .     A
C935   C1061   1.383   1_455 S
C936   C939    1.401   .     A
C936   H970    1.083   .     S
C936   C1000   1.383   .     S
C937   C939    1.401   .     A
C937   H971    1.083   .     S
C937   C997    1.383   .     S
C938   H972    1.083   .     S
C938   C940    1.401   .     A
C938   C1060   1.383   1_455 S
C941   H973    1.082   .     S
C941   N978    1.367   .     A
C942   N977    1.367   .     A
C942   H974    1.082   .     S
C942   C571    1.417   1_565 S
C943   N978    1.367   .     A
C943   H975    1.082   .     S
C944   N977    1.367   .     A
C944   H976    1.082   .     S
C944   C569    1.417   1_565 S
C945   O986    1.291   .     A
C945   C950    1.453   .     S
C945   O983    1.291   .     A
C946   O985    1.291   .     A
C946   C949    1.453   .     S
C946   O984    1.291   .     A
C947   C949    1.418   .     A
C947   C957    1.411   .     A
C947   N987    1.445   .     S
C948   N990    1.445   .     S
C948   C958    1.411   .     A
C948   C950    1.418   .     A
C949   C951    1.397   .     A
C950   C952    1.397   .     A
C951   C953    1.389   .     A
C951   H963    1.086   .     S
C952   C954    1.389   .     A
C952   H964    1.086   .     S
C953   C959    1.398   .     A
C953   C955    1.409   .     A
C954   C960    1.398   .     A
C954   C956    1.409   .     A
C955   C957    1.417   .     A
C955   C398    1.408   1_556 S
C956   C958    1.417   .     A
C959   H965    1.084   .     S
C959   C375    1.391   1_556 S
C960   H966    1.084   .     S
Cu961  Cu962   2.678   .     S
Cu961  N977    2.012   .     S
Cu961  O983    1.963   .     S
Cu961  O979    1.965   .     S
Cu961  O985    1.963   .     S
Cu961  O981    1.965   .     S
Cu962  N978    2.012   .     S
Cu962  O980    1.965   .     S
Cu962  O984    1.963   .     S
Cu962  O986    1.963   .     S
Cu962  O982    1.965   .     S
N987   H988    1.041   .     S
N987   H989    1.046   .     S
N990   H992    1.046   .     S
N990   H991    1.041   .     S
C993   O1044   1.291   .     A
C993   O1041   1.291   .     A
C993   C1002   1.450   .     S
C994   O1043   1.291   .     A
C994   O1042   1.291   .     A
C994   C1001   1.450   .     S
C995   C1020   1.407   .     A
C995   H1029   1.082   .     S
C996   C1019   1.407   .     A
C996   H1030   1.082   .     S
C996   C464    1.391   1_556 S
C997   H1031   1.083   .     S
C997   C1002   1.401   .     A
C998   C1001   1.401   .     A
C998   H1032   1.083   .     S
C998   C1062   1.383   .     S
C999   C1001   1.401   .     A
C999   H1033   1.083   .     S
C999   C1059   1.383   .     S
C1000  H1034   1.083   .     S
C1000  C1002   1.401   .     A
C1003  H1035   1.082   .     S
C1003  N1040   1.367   .     A
C1004  N1039   1.367   .     A
C1004  H1036   1.082   .     S
C1004  C633    1.417   1_565 S
C1005  N1040   1.367   .     A
C1005  H1037   1.082   .     S
C1006  N1039   1.367   .     A
C1006  H1038   1.082   .     S
C1006  C631    1.417   1_565 S
C1007  O1048   1.291   .     A
C1007  C1012   1.453   .     S
C1007  O1045   1.291   .     A
C1008  O1047   1.291   .     A
C1008  C1011   1.453   .     S
C1008  O1046   1.291   .     A
C1009  C1011   1.418   .     A
C1009  C1019   1.411   .     A
C1009  N1049   1.445   .     S
C1010  N1052   1.445   .     S
C1010  C1020   1.411   .     A
C1010  C1012   1.418   .     A
C1011  C1013   1.397   .     A
C1012  C1014   1.397   .     A
C1013  C1015   1.389   .     A
C1013  H1025   1.086   .     S
C1014  C1016   1.389   .     A
C1014  H1026   1.086   .     S
C1015  C1021   1.398   .     A
C1015  C1017   1.409   .     A
C1016  C1022   1.398   .     A
C1016  C1018   1.409   .     A
C1017  C1019   1.417   .     A
C1017  C460    1.408   1_556 S
C1018  C1020   1.417   .     A
C1021  H1027   1.084   .     S
C1021  C437    1.391   1_556 S
C1022  H1028   1.084   .     S
Cu1023 Cu1024  2.678   .     S
Cu1023 N1039   2.012   .     S
Cu1023 O1045   1.963   .     S
Cu1023 O1041   1.965   .     S
Cu1023 O1047   1.963   .     S
Cu1023 O1043   1.965   .     S
Cu1024 N1040   2.012   .     S
Cu1024 O1042   1.965   .     S
Cu1024 O1046   1.963   .     S
Cu1024 O1048   1.963   .     S
Cu1024 O1044   1.965   .     S
N1049  H1050   1.041   .     S
N1049  H1051   1.046   .     S
N1052  H1054   1.046   .     S
N1052  H1053   1.041   .     S
C1055  O1106   1.291   .     A
C1055  O1103   1.291   .     A
C1055  C1064   1.450   .     S
C1056  O1105   1.291   .     A
C1056  O1104   1.291   .     A
C1056  C1063   1.450   .     S
C1057  C1082   1.407   .     A
C1057  H1091   1.082   .     S
C1058  C1081   1.407   .     A
C1058  H1092   1.082   .     S
C1058  C526    1.391   1_556 S
C1059  H1093   1.083   .     S
C1059  C1064   1.401   .     A
C1060  C1063   1.401   .     A
C1060  H1094   1.083   .     S
C1060  C938    1.383   1_655 S
C1061  C1063   1.401   .     A
C1061  H1095   1.083   .     S
C1061  C935    1.383   1_655 S
C1062  H1096   1.083   .     S
C1062  C1064   1.401   .     A
C1065  H1097   1.082   .     S
C1065  N1102   1.367   .     A
C1066  N1101   1.367   .     A
C1066  H1098   1.082   .     S
C1066  C695    1.417   1_565 S
C1067  N1102   1.367   .     A
C1067  H1099   1.082   .     S
C1068  N1101   1.367   .     A
C1068  H1100   1.082   .     S
C1068  C693    1.417   1_565 S
C1069  O1110   1.291   .     A
C1069  C1074   1.453   .     S
C1069  O1107   1.291   .     A
C1070  O1109   1.291   .     A
C1070  C1073   1.453   .     S
C1070  O1108   1.291   .     A
C1071  C1073   1.418   .     A
C1071  C1081   1.411   .     A
C1071  N1111   1.445   .     S
C1072  N1114   1.445   .     S
C1072  C1082   1.411   .     A
C1072  C1074   1.418   .     A
C1073  C1075   1.397   .     A
C1074  C1076   1.397   .     A
C1075  C1077   1.389   .     A
C1075  H1087   1.086   .     S
C1076  C1078   1.389   .     A
C1076  H1088   1.086   .     S
C1077  C1083   1.398   .     A
C1077  C1079   1.409   .     A
C1078  C1084   1.398   .     A
C1078  C1080   1.409   .     A
C1079  C1081   1.417   .     A
C1079  C522    1.408   1_556 S
C1080  C1082   1.417   .     A
C1083  H1089   1.084   .     S
C1083  C499    1.391   1_556 S
C1084  H1090   1.084   .     S
Cu1085 Cu1086  2.678   .     S
Cu1085 N1101   2.012   .     S
Cu1085 O1107   1.963   .     S
Cu1085 O1103   1.965   .     S
Cu1085 O1109   1.963   .     S
Cu1085 O1105   1.965   .     S
Cu1086 N1102   2.012   .     S
Cu1086 O1104   1.965   .     S
Cu1086 O1108   1.963   .     S
Cu1086 O1110   1.963   .     S
Cu1086 O1106   1.965   .     S
N1111  H1112   1.041   .     S
N1111  H1113   1.046   .     S
N1114  H1116   1.046   .     S
N1114  H1115   1.041   .     S
