data_str_m2_o2_o5_pcu_sym.22
_audit_creation_date              2020-01-03
_audit_creation_method            'Materials Studio'
_symmetry_space_group_name_H-M    'P1'
_symmetry_Int_Tables_number       1
_symmetry_cell_setting            triclinic
loop_
_symmetry_equiv_pos_as_xyz
  x,y,z
_cell_length_a                    30.1567
_cell_length_b                    27.8874
_cell_length_c                    27.4013
_cell_angle_alpha                 90.1152
_cell_angle_beta                  92.7397
_cell_angle_gamma                 91.3438
loop_
_atom_site_label
_atom_site_type_symbol
_atom_site_fract_x
_atom_site_fract_y
_atom_site_fract_z
_atom_site_U_iso_or_equiv
_atom_site_adp_type
_atom_site_occupancy
C1     C     0.16578   0.24941   0.17436   0.00000  Uiso   1.00
C2     C     0.29029   0.44544   0.17970   0.00000  Uiso   1.00
C3     C     0.24950   0.24997   0.07351   0.00000  Uiso   1.00
C4     C     0.25015   0.25004   0.25981   0.00000  Uiso   1.00
C5     C     0.25312   0.02767   0.16568   0.00000  Uiso   1.00
C6     C     0.25209   0.47271   0.16679   0.00000  Uiso   1.00
C7     C     0.24958   0.24999   0.02178   0.00000  Uiso   1.00
C8     C     0.24982   0.25006   0.31151   0.00000  Uiso   1.00
C9     C     0.04967   0.28899   0.17112   0.00000  Uiso   1.00
C10    C     0.45302   0.21418   0.13507   0.00000  Uiso   1.00
C11    C     0.45207   0.28212   0.19079   0.00000  Uiso   1.00
C12    C     0.33476   0.25060   0.16107   0.00000  Uiso   1.00
C13    C     0.04698   0.20450   0.19384   0.00000  Uiso   1.00
C14    C     0.09449   0.29093   0.18524   0.00000  Uiso   1.00
C15    C     0.40592   0.21460   0.13066   0.00000  Uiso   1.00
C16    C     0.40900   0.29095   0.17353   0.00000  Uiso   1.00
C17    C     0.09412   0.20511   0.19801   0.00000  Uiso   1.00
C18    C     0.11811   0.24819   0.18703   0.00000  Uiso   1.00
C19    C     0.38336   0.25237   0.15350   0.00000  Uiso   1.00
C20    C     0.02490   0.24604   0.17681   0.00000  Uiso   1.00
C21    C     0.47595   0.24667   0.16779   0.00000  Uiso   1.00
C22    C     0.34102   0.13260   0.24221   0.00000  Uiso   1.00
C23    C     0.27528   0.10629   0.20181   0.00000  Uiso   1.00
C24    C     0.35900   0.17554   0.27194   0.00000  Uiso   1.00
C25    C     0.18556   0.37762   0.07113   0.00000  Uiso   1.00
C26    C     0.15548   0.34168   0.04298   0.00000  Uiso   1.00
C27    C     0.16348   0.12478   0.08555   0.00000  Uiso   1.00
C28    C     0.14872   0.12927   0.03208   0.00000  Uiso   1.00
C29    C     0.30746   0.38217   0.26695   0.00000  Uiso   1.00
C30    C     0.33751   0.35225   0.30028   0.00000  Uiso   1.00
C31    C     0.03256   0.33361   0.10347   0.00000  Uiso   1.00
C32    C     0.03716   0.38603   0.08839   0.00000  Uiso   1.00
C33    C     0.49837   0.19969   0.07238   0.00000  Uiso   1.00
C34    C     0.21510   0.39545   0.14668   0.00000  Uiso   1.00
C35    C     0.02939   0.16294   0.05275   0.00000  Uiso   1.00
C36    C     0.45748   0.30126   0.27119   0.00000  Uiso   1.00
C37    C     0.47480   0.33872   0.30802   0.00000  Uiso   1.00
C38    C     0.49904   0.16535   0.24398   0.00000  Uiso   1.00
C39    C     0.47977   0.11611   0.25609   0.00000  Uiso   1.00
C40    C     0.28640   0.02346   0.27855   0.00000  Uiso   1.00
C41    C     0.32284   0.01378   0.31766   0.00000  Uiso   1.00
C42    C     0.15740   0.48368   0.19341   0.00000  Uiso   1.00
C43    C     0.11021   0.00150   0.18651   0.00000  Uiso   1.00
C44    C     0.22922   0.01487   0.05468   0.00000  Uiso   1.00
C45    C     0.22750   0.10397   0.13011   0.00000  Uiso   1.00
C46    C     0.19832   0.49860   0.01161   0.00000  Uiso   1.00
C47    C     0.34803   0.48026   0.14075   0.00000  Uiso   1.00
C48    C     0.39412   0.00309   0.14856   0.00000  Uiso   1.00
C49    C     0.28488   0.39567   0.18840   0.00000  Uiso   1.00
C50    C     0.27709   0.05551   0.20211   0.00000  Uiso   1.00
C51    C     0.21239   0.44551   0.15484   0.00000  Uiso   1.00
C52    C     0.22902   0.05326   0.12863   0.00000  Uiso   1.00
Cu53   Cu    0.25000   0.29821   0.16667   0.00000  Uiso   1.00
Cu54   Cu    0.25000   0.20178   0.16667   0.00000  Uiso   1.00
H55    H     0.35459   0.13474   0.20548   0.00000  Uiso   1.00
H56    H     0.16182   0.30469   0.05605   0.00000  Uiso   1.00
H57    H     0.14915   0.15503   0.10517   0.00000  Uiso   1.00
H58    H     0.14921   0.09072   0.09971   0.00000  Uiso   1.00
H59    H     0.16580   0.10276   0.00986   0.00000  Uiso   1.00
H60    H     0.11240   0.12248   0.02758   0.00000  Uiso   1.00
H61    H     0.15676   0.16595   0.01892   0.00000  Uiso   1.00
H62    H     0.27232   0.37386   0.27549   0.00000  Uiso   1.00
H63    H     0.31505   0.42052   0.27519   0.00000  Uiso   1.00
H64    H     0.37265   0.36384   0.29668   0.00000  Uiso   1.00
H65    H     0.32875   0.35732   0.00547   0.00000  Uiso   1.00
H66    H     0.35371   0.10011   0.26081   0.00000  Uiso   1.00
H67    H     0.33353   0.31364   0.29063   0.00000  Uiso   1.00
H68    H     0.00160   0.31794   0.08592   0.00000  Uiso   1.00
H69    H     0.06118   0.31423   0.08903   0.00000  Uiso   1.00
H70    H     0.07002   0.40109   0.10118   0.00000  Uiso   1.00
H71    H     0.03448   0.38897   0.04802   0.00000  Uiso   1.00
H72    H     0.01094   0.40772   0.10405   0.00000  Uiso   1.00
H73    H     0.01904   0.23163   0.08352   0.00000  Uiso   1.00
H74    H     0.47438   0.21051   0.04254   0.00000  Uiso   1.00
H75    H     0.00999   0.13173   0.03718   0.00000  Uiso   1.00
H76    H     0.04931   0.17949   0.02394   0.00000  Uiso   1.00
H77    H     0.34597   0.17389   0.30898   0.00000  Uiso   1.00
H78    H     0.05238   0.15047   0.08273   0.00000  Uiso   1.00
H79    H     0.46986   0.26566   0.28316   0.00000  Uiso   1.00
H80    H     0.42052   0.30057   0.27129   0.00000  Uiso   1.00
H81    H     0.46517   0.37507   0.29561   0.00000  Uiso   1.00
H82    H     0.46037   0.33157   0.01054   0.00000  Uiso   1.00
H83    H     0.01153   0.33725   0.31221   0.00000  Uiso   1.00
H84    H     0.47066   0.18953   0.23863   0.00000  Uiso   1.00
H85    H     0.02029   0.17856   0.27570   0.00000  Uiso   1.00
H86    H     0.00669   0.08998   0.26191   0.00000  Uiso   1.00
H87    H     0.46098   0.11828   0.28987   0.00000  Uiso   1.00
H88    H     0.39581   0.17520   0.27495   0.00000  Uiso   1.00
H89    H     0.45682   0.10328   0.22564   0.00000  Uiso   1.00
H90    H     0.17576   0.37176   0.24964   0.00000  Uiso   1.00
H91    H     0.39303   0.12228   0.03482   0.00000  Uiso   1.00
H92    H     0.35823   0.33890   0.09015   0.00000  Uiso   1.00
H93    H     0.10249   0.09492   0.26992   0.00000  Uiso   1.00
H94    H     0.26609   0.05350   0.29124   0.00000  Uiso   1.00
H95    H     0.26519   0.49066   0.27300   0.00000  Uiso   1.00
H96    H     0.33676   0.04819   0.33285   0.00000  Uiso   1.00
H97    H     0.30954   0.49208   0.01436   0.00000  Uiso   1.00
H98    H     0.35015   0.49364   0.30196   0.00000  Uiso   1.00
H99    H     0.34857   0.20963   0.25475   0.00000  Uiso   1.00
H100   H     0.17862   0.01426   0.20731   0.00000  Uiso   1.00
H101   H     0.15793   0.45501   0.22164   0.00000  Uiso   1.00
H102   H     0.08723   0.47187   0.17395   0.00000  Uiso   1.00
H103   H     0.09905   0.01570   0.22165   0.00000  Uiso   1.00
H104   H     0.10894   0.03049   0.15881   0.00000  Uiso   1.00
H105   H     0.25129   0.04468   0.04257   0.00000  Uiso   1.00
H106   H     0.24967   0.48409   0.06688   0.00000  Uiso   1.00
H107   H     0.19375   0.02810   0.31822   0.00000  Uiso   1.00
H108   H     0.21226   0.46736   0.32635   0.00000  Uiso   1.00
H109   H     0.16504   0.48778   0.02403   0.00000  Uiso   1.00
H110   H     0.22032   0.37225   0.06031   0.00000  Uiso   1.00
H111   H     0.32636   0.00728   0.12262   0.00000  Uiso   1.00
H112   H     0.35020   0.44898   0.11583   0.00000  Uiso   1.00
H113   H     0.41729   0.47687   0.16553   0.00000  Uiso   1.00
H114   H     0.40674   0.01466   0.11293   0.00000  Uiso   1.00
H115   H     0.39272   0.03493   0.17284   0.00000  Uiso   1.00
H116   H     0.17528   0.41418   0.06062   0.00000  Uiso   1.00
H117   H     0.12024   0.35010   0.04778   0.00000  Uiso   1.00
H118   H     0.16192   0.34368   0.00358   0.00000  Uiso   1.00
N119   N     0.25000   0.12934   0.16667   0.00000  Uiso   1.00
N120   N     0.25000   0.37065   0.16667   0.00000  Uiso   1.00
O121   O     0.18573   0.29071   0.16667   0.00000  Uiso   1.00
O122   O     0.18097   0.37091   0.12163   0.00000  Uiso   1.00
O123   O     0.21033   0.12833   0.08976   0.00000  Uiso   1.00
O124   O     0.31532   0.37171   0.21770   0.00000  Uiso   1.00
O125   O     0.02982   0.33065   0.15481   0.00000  Uiso   1.00
O126   O     0.47586   0.17909   0.11165   0.00000  Uiso   1.00
O127   O     0.47288   0.31293   0.22473   0.00000  Uiso   1.00
O128   O     0.02352   0.16192   0.20133   0.00000  Uiso   1.00
O129   O     0.11444   0.38402   0.17925   0.00000  Uiso   1.00
O130   O     0.08239   0.35606   0.25407   0.00000  Uiso   1.00
O131   O     0.16496   0.33851   0.24278   0.00000  Uiso   1.00
O132   O     0.31427   0.20928   0.16666   0.00000  Uiso   1.00
O133   O     0.35769   0.13236   0.11873   0.00000  Uiso   1.00
O134   O     0.33925   0.19880   0.06404   0.00000  Uiso   1.00
O135   O     0.40949   0.15075   0.04857   0.00000  Uiso   1.00
O136   O     0.39886   0.38230   0.20029   0.00000  Uiso   1.00
O137   O     0.43785   0.36820   0.12665   0.00000  Uiso   1.00
O138   O     0.35313   0.35734   0.12022   0.00000  Uiso   1.00
O139   O     0.13378   0.12064   0.18715   0.00000  Uiso   1.00
O140   O     0.16282   0.17231   0.25409   0.00000  Uiso   1.00
O141   O     0.08873   0.12647   0.26442   0.00000  Uiso   1.00
O142   O     0.30671   0.03440   0.23481   0.00000  Uiso   1.00
O143   O     0.31427   0.29071   0.16666   0.00000  Uiso   1.00
O144   O     0.17134   0.46643   0.14814   0.00000  Uiso   1.00
O145   O     0.20312   0.02965   0.09276   0.00000  Uiso   1.00
O146   O     0.33242   0.46581   0.18642   0.00000  Uiso   1.00
O147   O     0.18573   0.20928   0.16667   0.00000  Uiso   1.00
O148   O     0.25000   0.29071   0.09613   0.00000  Uiso   1.00
O149   O     0.25000   0.20929   0.23720   0.00000  Uiso   1.00
O150   O     0.25000   0.29071   0.23720   0.00000  Uiso   1.00
O151   O     0.25000   0.20929   0.09613   0.00000  Uiso   1.00
O152   O     0.29406   0.13276   0.24081   0.00000  Uiso   1.00
S153   S     0.11420   0.34401   0.21554   0.00000  Uiso   1.00
S154   S     0.37658   0.17335   0.09034   0.00000  Uiso   1.00
S155   S     0.39966   0.35111   0.15566   0.00000  Uiso   1.00
S156   S     0.12152   0.15541   0.22575   0.00000  Uiso   1.00
C157   C     0.66578   0.24941   0.17436   0.00000  Uiso   1.00
C158   C     0.79029   0.44544   0.17970   0.00000  Uiso   1.00
C159   C     0.74950   0.24997   0.07351   0.00000  Uiso   1.00
C160   C     0.75015   0.25004   0.25981   0.00000  Uiso   1.00
C161   C     0.75312   0.02767   0.16568   0.00000  Uiso   1.00
C162   C     0.75209   0.47271   0.16679   0.00000  Uiso   1.00
C163   C     0.74958   0.24999   0.02178   0.00000  Uiso   1.00
C164   C     0.74982   0.25006   0.31151   0.00000  Uiso   1.00
C165   C     0.54967   0.28899   0.17112   0.00000  Uiso   1.00
C166   C     0.95302   0.21418   0.13507   0.00000  Uiso   1.00
C167   C     0.95207   0.28212   0.19079   0.00000  Uiso   1.00
C168   C     0.83476   0.25060   0.16107   0.00000  Uiso   1.00
C169   C     0.54698   0.20450   0.19384   0.00000  Uiso   1.00
C170   C     0.59449   0.29093   0.18524   0.00000  Uiso   1.00
C171   C     0.90592   0.21460   0.13066   0.00000  Uiso   1.00
C172   C     0.90900   0.29095   0.17353   0.00000  Uiso   1.00
C173   C     0.59412   0.20511   0.19801   0.00000  Uiso   1.00
C174   C     0.61811   0.24819   0.18703   0.00000  Uiso   1.00
C175   C     0.88336   0.25237   0.15350   0.00000  Uiso   1.00
C176   C     0.52490   0.24604   0.17681   0.00000  Uiso   1.00
C177   C     0.97595   0.24667   0.16779   0.00000  Uiso   1.00
C178   C     0.84102   0.13260   0.24221   0.00000  Uiso   1.00
C179   C     0.77528   0.10629   0.20181   0.00000  Uiso   1.00
C180   C     0.85900   0.17554   0.27194   0.00000  Uiso   1.00
C181   C     0.68556   0.37762   0.07113   0.00000  Uiso   1.00
C182   C     0.65548   0.34168   0.04298   0.00000  Uiso   1.00
C183   C     0.66348   0.12478   0.08555   0.00000  Uiso   1.00
C184   C     0.64872   0.12927   0.03208   0.00000  Uiso   1.00
C185   C     0.80746   0.38217   0.26695   0.00000  Uiso   1.00
C186   C     0.83751   0.35225   0.30028   0.00000  Uiso   1.00
C187   C     0.53256   0.33361   0.10347   0.00000  Uiso   1.00
C188   C     0.53716   0.38603   0.08839   0.00000  Uiso   1.00
C189   C     0.99837   0.19969   0.07238   0.00000  Uiso   1.00
C190   C     0.71510   0.39545   0.14668   0.00000  Uiso   1.00
C191   C     0.52939   0.16294   0.05275   0.00000  Uiso   1.00
C192   C     0.95748   0.30126   0.27119   0.00000  Uiso   1.00
C193   C     0.97480   0.33872   0.30802   0.00000  Uiso   1.00
C194   C     0.99904   0.16535   0.24398   0.00000  Uiso   1.00
C195   C     0.97977   0.11611   0.25609   0.00000  Uiso   1.00
C196   C     0.78640   0.02346   0.27855   0.00000  Uiso   1.00
C197   C     0.82284   0.01378   0.31766   0.00000  Uiso   1.00
C198   C     0.65740   0.48368   0.19341   0.00000  Uiso   1.00
C199   C     0.61021   0.00150   0.18651   0.00000  Uiso   1.00
C200   C     0.72922   0.01487   0.05468   0.00000  Uiso   1.00
C201   C     0.72750   0.10397   0.13011   0.00000  Uiso   1.00
C202   C     0.69832   0.49860   0.01161   0.00000  Uiso   1.00
C203   C     0.84803   0.48026   0.14075   0.00000  Uiso   1.00
C204   C     0.89412   0.00309   0.14856   0.00000  Uiso   1.00
C205   C     0.78488   0.39567   0.18840   0.00000  Uiso   1.00
C206   C     0.77709   0.05551   0.20211   0.00000  Uiso   1.00
C207   C     0.71239   0.44551   0.15484   0.00000  Uiso   1.00
C208   C     0.72902   0.05326   0.12863   0.00000  Uiso   1.00
Cu209  Cu    0.75000   0.29821   0.16667   0.00000  Uiso   1.00
Cu210  Cu    0.75000   0.20178   0.16667   0.00000  Uiso   1.00
H211   H     0.85459   0.13474   0.20548   0.00000  Uiso   1.00
H212   H     0.66182   0.30469   0.05605   0.00000  Uiso   1.00
H213   H     0.64915   0.15503   0.10517   0.00000  Uiso   1.00
H214   H     0.64921   0.09072   0.09971   0.00000  Uiso   1.00
H215   H     0.66580   0.10276   0.00986   0.00000  Uiso   1.00
H216   H     0.61240   0.12248   0.02758   0.00000  Uiso   1.00
H217   H     0.65676   0.16595   0.01892   0.00000  Uiso   1.00
H218   H     0.77232   0.37386   0.27549   0.00000  Uiso   1.00
H219   H     0.81505   0.42052   0.27519   0.00000  Uiso   1.00
H220   H     0.87265   0.36384   0.29668   0.00000  Uiso   1.00
H221   H     0.82875   0.35732   0.00547   0.00000  Uiso   1.00
H222   H     0.85371   0.10011   0.26081   0.00000  Uiso   1.00
H223   H     0.83353   0.31364   0.29063   0.00000  Uiso   1.00
H224   H     0.50160   0.31794   0.08592   0.00000  Uiso   1.00
H225   H     0.56118   0.31423   0.08903   0.00000  Uiso   1.00
H226   H     0.57002   0.40109   0.10118   0.00000  Uiso   1.00
H227   H     0.53448   0.38897   0.04802   0.00000  Uiso   1.00
H228   H     0.51094   0.40772   0.10405   0.00000  Uiso   1.00
H229   H     0.51904   0.23163   0.08352   0.00000  Uiso   1.00
H230   H     0.97438   0.21051   0.04254   0.00000  Uiso   1.00
H231   H     0.50999   0.13173   0.03718   0.00000  Uiso   1.00
H232   H     0.54931   0.17949   0.02394   0.00000  Uiso   1.00
H233   H     0.84597   0.17389   0.30898   0.00000  Uiso   1.00
H234   H     0.55238   0.15047   0.08273   0.00000  Uiso   1.00
H235   H     0.96986   0.26566   0.28316   0.00000  Uiso   1.00
H236   H     0.92052   0.30057   0.27129   0.00000  Uiso   1.00
H237   H     0.96517   0.37507   0.29561   0.00000  Uiso   1.00
H238   H     0.96037   0.33157   0.01054   0.00000  Uiso   1.00
H239   H     0.51153   0.33725   0.31221   0.00000  Uiso   1.00
H240   H     0.97066   0.18953   0.23863   0.00000  Uiso   1.00
H241   H     0.52029   0.17856   0.27570   0.00000  Uiso   1.00
H242   H     0.50669   0.08998   0.26191   0.00000  Uiso   1.00
H243   H     0.96098   0.11828   0.28987   0.00000  Uiso   1.00
H244   H     0.89581   0.17520   0.27495   0.00000  Uiso   1.00
H245   H     0.95682   0.10328   0.22564   0.00000  Uiso   1.00
H246   H     0.67576   0.37176   0.24964   0.00000  Uiso   1.00
H247   H     0.89303   0.12228   0.03482   0.00000  Uiso   1.00
H248   H     0.85823   0.33890   0.09015   0.00000  Uiso   1.00
H249   H     0.60249   0.09492   0.26992   0.00000  Uiso   1.00
H250   H     0.76609   0.05350   0.29124   0.00000  Uiso   1.00
H251   H     0.76519   0.49066   0.27300   0.00000  Uiso   1.00
H252   H     0.83676   0.04819   0.33285   0.00000  Uiso   1.00
H253   H     0.80954   0.49208   0.01436   0.00000  Uiso   1.00
H254   H     0.85015   0.49364   0.30196   0.00000  Uiso   1.00
H255   H     0.84857   0.20963   0.25475   0.00000  Uiso   1.00
H256   H     0.67862   0.01426   0.20731   0.00000  Uiso   1.00
H257   H     0.65793   0.45501   0.22164   0.00000  Uiso   1.00
H258   H     0.58723   0.47187   0.17395   0.00000  Uiso   1.00
H259   H     0.59905   0.01570   0.22165   0.00000  Uiso   1.00
H260   H     0.60894   0.03049   0.15881   0.00000  Uiso   1.00
H261   H     0.75129   0.04468   0.04257   0.00000  Uiso   1.00
H262   H     0.74967   0.48409   0.06688   0.00000  Uiso   1.00
H263   H     0.69375   0.02810   0.31822   0.00000  Uiso   1.00
H264   H     0.71226   0.46736   0.32635   0.00000  Uiso   1.00
H265   H     0.66504   0.48778   0.02403   0.00000  Uiso   1.00
H266   H     0.72032   0.37225   0.06031   0.00000  Uiso   1.00
H267   H     0.82636   0.00728   0.12262   0.00000  Uiso   1.00
H268   H     0.85020   0.44898   0.11583   0.00000  Uiso   1.00
H269   H     0.91729   0.47687   0.16553   0.00000  Uiso   1.00
H270   H     0.90674   0.01466   0.11293   0.00000  Uiso   1.00
H271   H     0.89272   0.03493   0.17284   0.00000  Uiso   1.00
H272   H     0.67528   0.41418   0.06062   0.00000  Uiso   1.00
H273   H     0.62024   0.35010   0.04778   0.00000  Uiso   1.00
H274   H     0.66192   0.34368   0.00358   0.00000  Uiso   1.00
N275   N     0.75000   0.12934   0.16667   0.00000  Uiso   1.00
N276   N     0.75000   0.37065   0.16667   0.00000  Uiso   1.00
O277   O     0.68573   0.29071   0.16667   0.00000  Uiso   1.00
O278   O     0.68097   0.37091   0.12163   0.00000  Uiso   1.00
O279   O     0.71033   0.12833   0.08976   0.00000  Uiso   1.00
O280   O     0.81532   0.37171   0.21770   0.00000  Uiso   1.00
O281   O     0.52982   0.33065   0.15481   0.00000  Uiso   1.00
O282   O     0.97586   0.17909   0.11165   0.00000  Uiso   1.00
O283   O     0.97288   0.31293   0.22473   0.00000  Uiso   1.00
O284   O     0.52352   0.16192   0.20133   0.00000  Uiso   1.00
O285   O     0.61444   0.38402   0.17925   0.00000  Uiso   1.00
O286   O     0.58239   0.35606   0.25407   0.00000  Uiso   1.00
O287   O     0.66496   0.33851   0.24278   0.00000  Uiso   1.00
O288   O     0.81427   0.20928   0.16666   0.00000  Uiso   1.00
O289   O     0.85769   0.13236   0.11873   0.00000  Uiso   1.00
O290   O     0.83925   0.19880   0.06404   0.00000  Uiso   1.00
O291   O     0.90949   0.15075   0.04857   0.00000  Uiso   1.00
O292   O     0.89886   0.38230   0.20029   0.00000  Uiso   1.00
O293   O     0.93785   0.36820   0.12665   0.00000  Uiso   1.00
O294   O     0.85313   0.35734   0.12022   0.00000  Uiso   1.00
O295   O     0.63378   0.12064   0.18715   0.00000  Uiso   1.00
O296   O     0.66282   0.17231   0.25409   0.00000  Uiso   1.00
O297   O     0.58873   0.12647   0.26442   0.00000  Uiso   1.00
O298   O     0.80671   0.03440   0.23481   0.00000  Uiso   1.00
O299   O     0.81427   0.29071   0.16666   0.00000  Uiso   1.00
O300   O     0.67134   0.46643   0.14814   0.00000  Uiso   1.00
O301   O     0.70312   0.02965   0.09276   0.00000  Uiso   1.00
O302   O     0.83242   0.46581   0.18642   0.00000  Uiso   1.00
O303   O     0.68573   0.20928   0.16667   0.00000  Uiso   1.00
O304   O     0.75000   0.29071   0.09613   0.00000  Uiso   1.00
O305   O     0.75000   0.20929   0.23720   0.00000  Uiso   1.00
O306   O     0.75000   0.29071   0.23720   0.00000  Uiso   1.00
O307   O     0.75000   0.20929   0.09613   0.00000  Uiso   1.00
O308   O     0.79406   0.13276   0.24081   0.00000  Uiso   1.00
S309   S     0.61420   0.34401   0.21554   0.00000  Uiso   1.00
S310   S     0.87658   0.17335   0.09034   0.00000  Uiso   1.00
S311   S     0.89966   0.35111   0.15566   0.00000  Uiso   1.00
S312   S     0.62152   0.15541   0.22575   0.00000  Uiso   1.00
C313   C     0.16578   0.74941   0.17436   0.00000  Uiso   1.00
C314   C     0.29029   0.94544   0.17970   0.00000  Uiso   1.00
C315   C     0.24950   0.74997   0.07351   0.00000  Uiso   1.00
C316   C     0.25015   0.75004   0.25981   0.00000  Uiso   1.00
C317   C     0.25312   0.52767   0.16568   0.00000  Uiso   1.00
C318   C     0.25209   0.97271   0.16679   0.00000  Uiso   1.00
C319   C     0.24958   0.74999   0.02178   0.00000  Uiso   1.00
C320   C     0.24982   0.75006   0.31151   0.00000  Uiso   1.00
C321   C     0.04967   0.78899   0.17112   0.00000  Uiso   1.00
C322   C     0.45302   0.71418   0.13507   0.00000  Uiso   1.00
C323   C     0.45207   0.78212   0.19079   0.00000  Uiso   1.00
C324   C     0.33476   0.75060   0.16107   0.00000  Uiso   1.00
C325   C     0.04698   0.70450   0.19384   0.00000  Uiso   1.00
C326   C     0.09449   0.79093   0.18524   0.00000  Uiso   1.00
C327   C     0.40592   0.71460   0.13066   0.00000  Uiso   1.00
C328   C     0.40900   0.79095   0.17353   0.00000  Uiso   1.00
C329   C     0.09412   0.70511   0.19801   0.00000  Uiso   1.00
C330   C     0.11811   0.74819   0.18703   0.00000  Uiso   1.00
C331   C     0.38336   0.75237   0.15350   0.00000  Uiso   1.00
C332   C     0.02490   0.74604   0.17681   0.00000  Uiso   1.00
C333   C     0.47595   0.74667   0.16779   0.00000  Uiso   1.00
C334   C     0.34102   0.63260   0.24221   0.00000  Uiso   1.00
C335   C     0.27528   0.60629   0.20181   0.00000  Uiso   1.00
C336   C     0.35900   0.67554   0.27194   0.00000  Uiso   1.00
C337   C     0.18556   0.87762   0.07113   0.00000  Uiso   1.00
C338   C     0.15548   0.84168   0.04298   0.00000  Uiso   1.00
C339   C     0.16348   0.62478   0.08555   0.00000  Uiso   1.00
C340   C     0.14872   0.62927   0.03208   0.00000  Uiso   1.00
C341   C     0.30746   0.88217   0.26695   0.00000  Uiso   1.00
C342   C     0.33751   0.85225   0.30028   0.00000  Uiso   1.00
C343   C     0.03256   0.83361   0.10347   0.00000  Uiso   1.00
C344   C     0.03716   0.88603   0.08839   0.00000  Uiso   1.00
C345   C     0.49837   0.69969   0.07238   0.00000  Uiso   1.00
C346   C     0.21510   0.89545   0.14668   0.00000  Uiso   1.00
C347   C     0.02939   0.66294   0.05275   0.00000  Uiso   1.00
C348   C     0.45748   0.80126   0.27119   0.00000  Uiso   1.00
C349   C     0.47480   0.83872   0.30802   0.00000  Uiso   1.00
C350   C     0.49904   0.66535   0.24398   0.00000  Uiso   1.00
C351   C     0.47977   0.61611   0.25609   0.00000  Uiso   1.00
C352   C     0.28640   0.52346   0.27855   0.00000  Uiso   1.00
C353   C     0.32284   0.51378   0.31766   0.00000  Uiso   1.00
C354   C     0.15740   0.98368   0.19341   0.00000  Uiso   1.00
C355   C     0.11021   0.50150   0.18651   0.00000  Uiso   1.00
C356   C     0.22922   0.51487   0.05468   0.00000  Uiso   1.00
C357   C     0.22750   0.60397   0.13011   0.00000  Uiso   1.00
C358   C     0.19832   0.99860   0.01161   0.00000  Uiso   1.00
C359   C     0.34803   0.98026   0.14075   0.00000  Uiso   1.00
C360   C     0.39412   0.50309   0.14856   0.00000  Uiso   1.00
C361   C     0.28488   0.89567   0.18840   0.00000  Uiso   1.00
C362   C     0.27709   0.55551   0.20211   0.00000  Uiso   1.00
C363   C     0.21239   0.94551   0.15484   0.00000  Uiso   1.00
C364   C     0.22902   0.55326   0.12863   0.00000  Uiso   1.00
Cu365  Cu    0.25000   0.79821   0.16667   0.00000  Uiso   1.00
Cu366  Cu    0.25000   0.70178   0.16667   0.00000  Uiso   1.00
H367   H     0.35459   0.63474   0.20548   0.00000  Uiso   1.00
H368   H     0.16182   0.80469   0.05605   0.00000  Uiso   1.00
H369   H     0.14915   0.65503   0.10517   0.00000  Uiso   1.00
H370   H     0.14921   0.59072   0.09971   0.00000  Uiso   1.00
H371   H     0.16580   0.60276   0.00986   0.00000  Uiso   1.00
H372   H     0.11240   0.62248   0.02758   0.00000  Uiso   1.00
H373   H     0.15676   0.66595   0.01892   0.00000  Uiso   1.00
H374   H     0.27232   0.87386   0.27549   0.00000  Uiso   1.00
H375   H     0.31505   0.92052   0.27519   0.00000  Uiso   1.00
H376   H     0.37265   0.86384   0.29668   0.00000  Uiso   1.00
H377   H     0.32875   0.85732   0.00547   0.00000  Uiso   1.00
H378   H     0.35371   0.60011   0.26081   0.00000  Uiso   1.00
H379   H     0.33353   0.81364   0.29063   0.00000  Uiso   1.00
H380   H     0.00160   0.81794   0.08592   0.00000  Uiso   1.00
H381   H     0.06118   0.81423   0.08903   0.00000  Uiso   1.00
H382   H     0.07002   0.90109   0.10118   0.00000  Uiso   1.00
H383   H     0.03448   0.88897   0.04802   0.00000  Uiso   1.00
H384   H     0.01094   0.90772   0.10405   0.00000  Uiso   1.00
H385   H     0.01904   0.73163   0.08352   0.00000  Uiso   1.00
H386   H     0.47438   0.71051   0.04254   0.00000  Uiso   1.00
H387   H     0.00999   0.63173   0.03718   0.00000  Uiso   1.00
H388   H     0.04931   0.67949   0.02394   0.00000  Uiso   1.00
H389   H     0.34597   0.67389   0.30898   0.00000  Uiso   1.00
H390   H     0.05238   0.65047   0.08273   0.00000  Uiso   1.00
H391   H     0.46986   0.76566   0.28316   0.00000  Uiso   1.00
H392   H     0.42052   0.80057   0.27129   0.00000  Uiso   1.00
H393   H     0.46517   0.87507   0.29561   0.00000  Uiso   1.00
H394   H     0.46037   0.83157   0.01054   0.00000  Uiso   1.00
H395   H     0.01153   0.83725   0.31221   0.00000  Uiso   1.00
H396   H     0.47066   0.68953   0.23863   0.00000  Uiso   1.00
H397   H     0.02029   0.67856   0.27570   0.00000  Uiso   1.00
H398   H     0.00669   0.58998   0.26191   0.00000  Uiso   1.00
H399   H     0.46098   0.61828   0.28987   0.00000  Uiso   1.00
H400   H     0.39581   0.67520   0.27495   0.00000  Uiso   1.00
H401   H     0.45682   0.60328   0.22564   0.00000  Uiso   1.00
H402   H     0.17576   0.87176   0.24964   0.00000  Uiso   1.00
H403   H     0.39303   0.62228   0.03482   0.00000  Uiso   1.00
H404   H     0.35823   0.83890   0.09015   0.00000  Uiso   1.00
H405   H     0.10249   0.59492   0.26992   0.00000  Uiso   1.00
H406   H     0.26609   0.55350   0.29124   0.00000  Uiso   1.00
H407   H     0.26519   0.99066   0.27300   0.00000  Uiso   1.00
H408   H     0.33676   0.54819   0.33285   0.00000  Uiso   1.00
H409   H     0.30954   0.99208   0.01436   0.00000  Uiso   1.00
H410   H     0.35015   0.99364   0.30196   0.00000  Uiso   1.00
H411   H     0.34857   0.70963   0.25475   0.00000  Uiso   1.00
H412   H     0.17862   0.51426   0.20731   0.00000  Uiso   1.00
H413   H     0.15793   0.95501   0.22164   0.00000  Uiso   1.00
H414   H     0.08723   0.97187   0.17395   0.00000  Uiso   1.00
H415   H     0.09905   0.51570   0.22165   0.00000  Uiso   1.00
H416   H     0.10894   0.53049   0.15881   0.00000  Uiso   1.00
H417   H     0.25129   0.54468   0.04257   0.00000  Uiso   1.00
H418   H     0.24967   0.98409   0.06688   0.00000  Uiso   1.00
H419   H     0.19375   0.52810   0.31822   0.00000  Uiso   1.00
H420   H     0.21226   0.96736   0.32635   0.00000  Uiso   1.00
H421   H     0.16504   0.98778   0.02403   0.00000  Uiso   1.00
H422   H     0.22032   0.87225   0.06031   0.00000  Uiso   1.00
H423   H     0.32636   0.50728   0.12262   0.00000  Uiso   1.00
H424   H     0.35020   0.94898   0.11583   0.00000  Uiso   1.00
H425   H     0.41729   0.97687   0.16553   0.00000  Uiso   1.00
H426   H     0.40674   0.51466   0.11293   0.00000  Uiso   1.00
H427   H     0.39272   0.53493   0.17284   0.00000  Uiso   1.00
H428   H     0.17528   0.91418   0.06062   0.00000  Uiso   1.00
H429   H     0.12024   0.85010   0.04778   0.00000  Uiso   1.00
H430   H     0.16192   0.84368   0.00358   0.00000  Uiso   1.00
N431   N     0.25000   0.62934   0.16667   0.00000  Uiso   1.00
N432   N     0.25000   0.87065   0.16667   0.00000  Uiso   1.00
O433   O     0.18573   0.79071   0.16667   0.00000  Uiso   1.00
O434   O     0.18097   0.87091   0.12163   0.00000  Uiso   1.00
O435   O     0.21033   0.62833   0.08976   0.00000  Uiso   1.00
O436   O     0.31532   0.87171   0.21770   0.00000  Uiso   1.00
O437   O     0.02982   0.83065   0.15481   0.00000  Uiso   1.00
O438   O     0.47586   0.67909   0.11165   0.00000  Uiso   1.00
O439   O     0.47288   0.81293   0.22473   0.00000  Uiso   1.00
O440   O     0.02352   0.66192   0.20133   0.00000  Uiso   1.00
O441   O     0.11444   0.88402   0.17925   0.00000  Uiso   1.00
O442   O     0.08239   0.85606   0.25407   0.00000  Uiso   1.00
O443   O     0.16496   0.83851   0.24278   0.00000  Uiso   1.00
O444   O     0.31427   0.70928   0.16666   0.00000  Uiso   1.00
O445   O     0.35769   0.63236   0.11873   0.00000  Uiso   1.00
O446   O     0.33925   0.69880   0.06404   0.00000  Uiso   1.00
O447   O     0.40949   0.65075   0.04857   0.00000  Uiso   1.00
O448   O     0.39886   0.88230   0.20029   0.00000  Uiso   1.00
O449   O     0.43785   0.86820   0.12665   0.00000  Uiso   1.00
O450   O     0.35313   0.85734   0.12022   0.00000  Uiso   1.00
O451   O     0.13378   0.62064   0.18715   0.00000  Uiso   1.00
O452   O     0.16282   0.67231   0.25409   0.00000  Uiso   1.00
O453   O     0.08873   0.62647   0.26442   0.00000  Uiso   1.00
O454   O     0.30671   0.53440   0.23481   0.00000  Uiso   1.00
O455   O     0.31427   0.79071   0.16666   0.00000  Uiso   1.00
O456   O     0.17134   0.96643   0.14814   0.00000  Uiso   1.00
O457   O     0.20312   0.52965   0.09276   0.00000  Uiso   1.00
O458   O     0.33242   0.96581   0.18642   0.00000  Uiso   1.00
O459   O     0.18573   0.70928   0.16667   0.00000  Uiso   1.00
O460   O     0.25000   0.79071   0.09613   0.00000  Uiso   1.00
O461   O     0.25000   0.70929   0.23720   0.00000  Uiso   1.00
O462   O     0.25000   0.79071   0.23720   0.00000  Uiso   1.00
O463   O     0.25000   0.70929   0.09613   0.00000  Uiso   1.00
O464   O     0.29406   0.63276   0.24081   0.00000  Uiso   1.00
S465   S     0.11420   0.84401   0.21554   0.00000  Uiso   1.00
S466   S     0.37658   0.67335   0.09034   0.00000  Uiso   1.00
S467   S     0.39966   0.85111   0.15566   0.00000  Uiso   1.00
S468   S     0.12152   0.65541   0.22575   0.00000  Uiso   1.00
C469   C     0.66578   0.74941   0.17436   0.00000  Uiso   1.00
C470   C     0.79029   0.94544   0.17970   0.00000  Uiso   1.00
C471   C     0.74950   0.74997   0.07351   0.00000  Uiso   1.00
C472   C     0.75015   0.75004   0.25981   0.00000  Uiso   1.00
C473   C     0.75312   0.52767   0.16568   0.00000  Uiso   1.00
C474   C     0.75209   0.97271   0.16679   0.00000  Uiso   1.00
C475   C     0.74958   0.74999   0.02178   0.00000  Uiso   1.00
C476   C     0.74982   0.75006   0.31151   0.00000  Uiso   1.00
C477   C     0.54967   0.78899   0.17112   0.00000  Uiso   1.00
C478   C     0.95302   0.71418   0.13507   0.00000  Uiso   1.00
C479   C     0.95207   0.78212   0.19079   0.00000  Uiso   1.00
C480   C     0.83476   0.75060   0.16107   0.00000  Uiso   1.00
C481   C     0.54698   0.70450   0.19384   0.00000  Uiso   1.00
C482   C     0.59449   0.79093   0.18524   0.00000  Uiso   1.00
C483   C     0.90592   0.71460   0.13066   0.00000  Uiso   1.00
C484   C     0.90900   0.79095   0.17353   0.00000  Uiso   1.00
C485   C     0.59412   0.70511   0.19801   0.00000  Uiso   1.00
C486   C     0.61811   0.74819   0.18703   0.00000  Uiso   1.00
C487   C     0.88336   0.75237   0.15350   0.00000  Uiso   1.00
C488   C     0.52490   0.74604   0.17681   0.00000  Uiso   1.00
C489   C     0.97595   0.74667   0.16779   0.00000  Uiso   1.00
C490   C     0.84102   0.63260   0.24221   0.00000  Uiso   1.00
C491   C     0.77528   0.60629   0.20181   0.00000  Uiso   1.00
C492   C     0.85900   0.67554   0.27194   0.00000  Uiso   1.00
C493   C     0.68556   0.87762   0.07113   0.00000  Uiso   1.00
C494   C     0.65548   0.84168   0.04298   0.00000  Uiso   1.00
C495   C     0.66348   0.62478   0.08555   0.00000  Uiso   1.00
C496   C     0.64872   0.62927   0.03208   0.00000  Uiso   1.00
C497   C     0.80746   0.88217   0.26695   0.00000  Uiso   1.00
C498   C     0.83751   0.85225   0.30028   0.00000  Uiso   1.00
C499   C     0.53256   0.83361   0.10347   0.00000  Uiso   1.00
C500   C     0.53716   0.88603   0.08839   0.00000  Uiso   1.00
C501   C     0.99837   0.69969   0.07238   0.00000  Uiso   1.00
C502   C     0.71510   0.89545   0.14668   0.00000  Uiso   1.00
C503   C     0.52939   0.66294   0.05275   0.00000  Uiso   1.00
C504   C     0.95748   0.80126   0.27119   0.00000  Uiso   1.00
C505   C     0.97480   0.83872   0.30802   0.00000  Uiso   1.00
C506   C     0.99904   0.66535   0.24398   0.00000  Uiso   1.00
C507   C     0.97977   0.61611   0.25609   0.00000  Uiso   1.00
C508   C     0.78640   0.52346   0.27855   0.00000  Uiso   1.00
C509   C     0.82284   0.51378   0.31766   0.00000  Uiso   1.00
C510   C     0.65740   0.98368   0.19341   0.00000  Uiso   1.00
C511   C     0.61021   0.50150   0.18651   0.00000  Uiso   1.00
C512   C     0.72922   0.51487   0.05468   0.00000  Uiso   1.00
C513   C     0.72750   0.60397   0.13011   0.00000  Uiso   1.00
C514   C     0.69832   0.99860   0.01161   0.00000  Uiso   1.00
C515   C     0.84803   0.98026   0.14075   0.00000  Uiso   1.00
C516   C     0.89412   0.50309   0.14856   0.00000  Uiso   1.00
C517   C     0.78488   0.89567   0.18840   0.00000  Uiso   1.00
C518   C     0.77709   0.55551   0.20211   0.00000  Uiso   1.00
C519   C     0.71239   0.94551   0.15484   0.00000  Uiso   1.00
C520   C     0.72902   0.55326   0.12863   0.00000  Uiso   1.00
Cu521  Cu    0.75000   0.79821   0.16667   0.00000  Uiso   1.00
Cu522  Cu    0.75000   0.70178   0.16667   0.00000  Uiso   1.00
H523   H     0.85459   0.63474   0.20548   0.00000  Uiso   1.00
H524   H     0.66182   0.80469   0.05605   0.00000  Uiso   1.00
H525   H     0.64915   0.65503   0.10517   0.00000  Uiso   1.00
H526   H     0.64921   0.59072   0.09971   0.00000  Uiso   1.00
H527   H     0.66580   0.60276   0.00986   0.00000  Uiso   1.00
H528   H     0.61240   0.62248   0.02758   0.00000  Uiso   1.00
H529   H     0.65676   0.66595   0.01892   0.00000  Uiso   1.00
H530   H     0.77232   0.87386   0.27549   0.00000  Uiso   1.00
H531   H     0.81505   0.92052   0.27519   0.00000  Uiso   1.00
H532   H     0.87265   0.86384   0.29668   0.00000  Uiso   1.00
H533   H     0.82875   0.85732   0.00547   0.00000  Uiso   1.00
H534   H     0.85371   0.60011   0.26081   0.00000  Uiso   1.00
H535   H     0.83353   0.81364   0.29063   0.00000  Uiso   1.00
H536   H     0.50160   0.81794   0.08592   0.00000  Uiso   1.00
H537   H     0.56118   0.81423   0.08903   0.00000  Uiso   1.00
H538   H     0.57002   0.90109   0.10118   0.00000  Uiso   1.00
H539   H     0.53448   0.88897   0.04802   0.00000  Uiso   1.00
H540   H     0.51094   0.90772   0.10405   0.00000  Uiso   1.00
H541   H     0.51904   0.73163   0.08352   0.00000  Uiso   1.00
H542   H     0.97438   0.71051   0.04254   0.00000  Uiso   1.00
H543   H     0.50999   0.63173   0.03718   0.00000  Uiso   1.00
H544   H     0.54931   0.67949   0.02394   0.00000  Uiso   1.00
H545   H     0.84597   0.67389   0.30898   0.00000  Uiso   1.00
H546   H     0.55238   0.65047   0.08273   0.00000  Uiso   1.00
H547   H     0.96986   0.76566   0.28316   0.00000  Uiso   1.00
H548   H     0.92052   0.80057   0.27129   0.00000  Uiso   1.00
H549   H     0.96517   0.87507   0.29561   0.00000  Uiso   1.00
H550   H     0.96037   0.83157   0.01054   0.00000  Uiso   1.00
H551   H     0.51153   0.83725   0.31221   0.00000  Uiso   1.00
H552   H     0.97066   0.68953   0.23863   0.00000  Uiso   1.00
H553   H     0.52029   0.67856   0.27570   0.00000  Uiso   1.00
H554   H     0.50669   0.58998   0.26191   0.00000  Uiso   1.00
H555   H     0.96098   0.61828   0.28987   0.00000  Uiso   1.00
H556   H     0.89581   0.67520   0.27495   0.00000  Uiso   1.00
H557   H     0.95682   0.60328   0.22564   0.00000  Uiso   1.00
H558   H     0.67576   0.87176   0.24964   0.00000  Uiso   1.00
H559   H     0.89303   0.62228   0.03482   0.00000  Uiso   1.00
H560   H     0.85823   0.83890   0.09015   0.00000  Uiso   1.00
H561   H     0.60249   0.59492   0.26992   0.00000  Uiso   1.00
H562   H     0.76609   0.55350   0.29124   0.00000  Uiso   1.00
H563   H     0.76519   0.99066   0.27300   0.00000  Uiso   1.00
H564   H     0.83676   0.54819   0.33285   0.00000  Uiso   1.00
H565   H     0.80954   0.99208   0.01436   0.00000  Uiso   1.00
H566   H     0.85015   0.99364   0.30196   0.00000  Uiso   1.00
H567   H     0.84857   0.70963   0.25475   0.00000  Uiso   1.00
H568   H     0.67862   0.51426   0.20731   0.00000  Uiso   1.00
H569   H     0.65793   0.95501   0.22164   0.00000  Uiso   1.00
H570   H     0.58723   0.97187   0.17395   0.00000  Uiso   1.00
H571   H     0.59905   0.51570   0.22165   0.00000  Uiso   1.00
H572   H     0.60894   0.53049   0.15881   0.00000  Uiso   1.00
H573   H     0.75129   0.54468   0.04257   0.00000  Uiso   1.00
H574   H     0.74967   0.98409   0.06688   0.00000  Uiso   1.00
H575   H     0.69375   0.52810   0.31822   0.00000  Uiso   1.00
H576   H     0.71226   0.96736   0.32635   0.00000  Uiso   1.00
H577   H     0.66504   0.98778   0.02403   0.00000  Uiso   1.00
H578   H     0.72032   0.87225   0.06031   0.00000  Uiso   1.00
H579   H     0.82636   0.50728   0.12262   0.00000  Uiso   1.00
H580   H     0.85020   0.94898   0.11583   0.00000  Uiso   1.00
H581   H     0.91729   0.97687   0.16553   0.00000  Uiso   1.00
H582   H     0.90674   0.51466   0.11293   0.00000  Uiso   1.00
H583   H     0.89272   0.53493   0.17284   0.00000  Uiso   1.00
H584   H     0.67528   0.91418   0.06062   0.00000  Uiso   1.00
H585   H     0.62024   0.85010   0.04778   0.00000  Uiso   1.00
H586   H     0.66192   0.84368   0.00358   0.00000  Uiso   1.00
N587   N     0.75000   0.62934   0.16667   0.00000  Uiso   1.00
N588   N     0.75000   0.87065   0.16667   0.00000  Uiso   1.00
O589   O     0.68573   0.79071   0.16667   0.00000  Uiso   1.00
O590   O     0.68097   0.87091   0.12163   0.00000  Uiso   1.00
O591   O     0.71033   0.62833   0.08976   0.00000  Uiso   1.00
O592   O     0.81532   0.87171   0.21770   0.00000  Uiso   1.00
O593   O     0.52982   0.83065   0.15481   0.00000  Uiso   1.00
O594   O     0.97586   0.67909   0.11165   0.00000  Uiso   1.00
O595   O     0.97288   0.81293   0.22473   0.00000  Uiso   1.00
O596   O     0.52352   0.66192   0.20133   0.00000  Uiso   1.00
O597   O     0.61444   0.88402   0.17925   0.00000  Uiso   1.00
O598   O     0.58239   0.85606   0.25407   0.00000  Uiso   1.00
O599   O     0.66496   0.83851   0.24278   0.00000  Uiso   1.00
O600   O     0.81427   0.70928   0.16666   0.00000  Uiso   1.00
O601   O     0.85769   0.63236   0.11873   0.00000  Uiso   1.00
O602   O     0.83925   0.69880   0.06404   0.00000  Uiso   1.00
O603   O     0.90949   0.65075   0.04857   0.00000  Uiso   1.00
O604   O     0.89886   0.88230   0.20029   0.00000  Uiso   1.00
O605   O     0.93785   0.86820   0.12665   0.00000  Uiso   1.00
O606   O     0.85313   0.85734   0.12022   0.00000  Uiso   1.00
O607   O     0.63378   0.62064   0.18715   0.00000  Uiso   1.00
O608   O     0.66282   0.67231   0.25409   0.00000  Uiso   1.00
O609   O     0.58873   0.62647   0.26442   0.00000  Uiso   1.00
O610   O     0.80671   0.53440   0.23481   0.00000  Uiso   1.00
O611   O     0.81427   0.79071   0.16666   0.00000  Uiso   1.00
O612   O     0.67134   0.96643   0.14814   0.00000  Uiso   1.00
O613   O     0.70312   0.52965   0.09276   0.00000  Uiso   1.00
O614   O     0.83242   0.96581   0.18642   0.00000  Uiso   1.00
O615   O     0.68573   0.70928   0.16667   0.00000  Uiso   1.00
O616   O     0.75000   0.79071   0.09613   0.00000  Uiso   1.00
O617   O     0.75000   0.70929   0.23720   0.00000  Uiso   1.00
O618   O     0.75000   0.79071   0.23720   0.00000  Uiso   1.00
O619   O     0.75000   0.70929   0.09613   0.00000  Uiso   1.00
O620   O     0.79406   0.63276   0.24081   0.00000  Uiso   1.00
S621   S     0.61420   0.84401   0.21554   0.00000  Uiso   1.00
S622   S     0.87658   0.67335   0.09034   0.00000  Uiso   1.00
S623   S     0.89966   0.85111   0.15566   0.00000  Uiso   1.00
S624   S     0.62152   0.65541   0.22575   0.00000  Uiso   1.00
C625   C     0.16578   0.24941   0.50770   0.00000  Uiso   1.00
C626   C     0.29029   0.44544   0.51304   0.00000  Uiso   1.00
C627   C     0.24950   0.24997   0.40684   0.00000  Uiso   1.00
C628   C     0.25015   0.25004   0.59314   0.00000  Uiso   1.00
C629   C     0.25312   0.02767   0.49901   0.00000  Uiso   1.00
C630   C     0.25209   0.47271   0.50012   0.00000  Uiso   1.00
C631   C     0.24958   0.24999   0.35512   0.00000  Uiso   1.00
C632   C     0.24982   0.25006   0.64484   0.00000  Uiso   1.00
C633   C     0.04967   0.28899   0.50445   0.00000  Uiso   1.00
C634   C     0.45302   0.21418   0.46841   0.00000  Uiso   1.00
C635   C     0.45207   0.28212   0.52413   0.00000  Uiso   1.00
C636   C     0.33476   0.25060   0.49441   0.00000  Uiso   1.00
C637   C     0.04698   0.20450   0.52717   0.00000  Uiso   1.00
C638   C     0.09449   0.29093   0.51857   0.00000  Uiso   1.00
C639   C     0.40592   0.21460   0.46400   0.00000  Uiso   1.00
C640   C     0.40900   0.29095   0.50686   0.00000  Uiso   1.00
C641   C     0.09412   0.20511   0.53135   0.00000  Uiso   1.00
C642   C     0.11811   0.24819   0.52036   0.00000  Uiso   1.00
C643   C     0.38336   0.25237   0.48683   0.00000  Uiso   1.00
C644   C     0.02490   0.24604   0.51014   0.00000  Uiso   1.00
C645   C     0.47595   0.24667   0.50112   0.00000  Uiso   1.00
C646   C     0.34102   0.13260   0.57554   0.00000  Uiso   1.00
C647   C     0.27528   0.10629   0.53515   0.00000  Uiso   1.00
C648   C     0.35900   0.17554   0.60528   0.00000  Uiso   1.00
C649   C     0.18556   0.37762   0.40446   0.00000  Uiso   1.00
C650   C     0.15548   0.34168   0.37631   0.00000  Uiso   1.00
C651   C     0.16348   0.12478   0.41888   0.00000  Uiso   1.00
C652   C     0.14872   0.12927   0.36541   0.00000  Uiso   1.00
C653   C     0.30746   0.38217   0.60028   0.00000  Uiso   1.00
C654   C     0.33751   0.35225   0.63361   0.00000  Uiso   1.00
C655   C     0.03256   0.33361   0.43681   0.00000  Uiso   1.00
C656   C     0.03716   0.38603   0.42173   0.00000  Uiso   1.00
C657   C     0.49837   0.19969   0.40572   0.00000  Uiso   1.00
C658   C     0.21510   0.39545   0.48001   0.00000  Uiso   1.00
C659   C     0.02939   0.16294   0.38609   0.00000  Uiso   1.00
C660   C     0.45748   0.30126   0.60452   0.00000  Uiso   1.00
C661   C     0.47480   0.33872   0.64136   0.00000  Uiso   1.00
C662   C     0.49904   0.16535   0.57732   0.00000  Uiso   1.00
C663   C     0.47977   0.11611   0.58942   0.00000  Uiso   1.00
C664   C     0.28640   0.02346   0.61188   0.00000  Uiso   1.00
C665   C     0.32284   0.01378   0.65099   0.00000  Uiso   1.00
C666   C     0.15740   0.48368   0.52674   0.00000  Uiso   1.00
C667   C     0.11021   0.00150   0.51985   0.00000  Uiso   1.00
C668   C     0.22922   0.01487   0.38801   0.00000  Uiso   1.00
C669   C     0.22750   0.10397   0.46344   0.00000  Uiso   1.00
C670   C     0.19832   0.49860   0.34495   0.00000  Uiso   1.00
C671   C     0.34803   0.48026   0.47408   0.00000  Uiso   1.00
C672   C     0.39412   0.00309   0.48190   0.00000  Uiso   1.00
C673   C     0.28488   0.39567   0.52173   0.00000  Uiso   1.00
C674   C     0.27709   0.05551   0.53544   0.00000  Uiso   1.00
C675   C     0.21239   0.44551   0.48818   0.00000  Uiso   1.00
C676   C     0.22902   0.05326   0.46196   0.00000  Uiso   1.00
Cu677  Cu    0.25000   0.29821   0.50000   0.00000  Uiso   1.00
Cu678  Cu    0.25000   0.20178   0.50000   0.00000  Uiso   1.00
H679   H     0.35459   0.13474   0.53882   0.00000  Uiso   1.00
H680   H     0.16182   0.30469   0.38938   0.00000  Uiso   1.00
H681   H     0.14915   0.15503   0.43850   0.00000  Uiso   1.00
H682   H     0.14921   0.09072   0.43304   0.00000  Uiso   1.00
H683   H     0.16580   0.10276   0.34319   0.00000  Uiso   1.00
H684   H     0.11240   0.12248   0.36092   0.00000  Uiso   1.00
H685   H     0.15676   0.16595   0.35225   0.00000  Uiso   1.00
H686   H     0.27232   0.37386   0.60882   0.00000  Uiso   1.00
H687   H     0.31505   0.42052   0.60852   0.00000  Uiso   1.00
H688   H     0.37265   0.36384   0.63002   0.00000  Uiso   1.00
H689   H     0.32875   0.35732   0.33881   0.00000  Uiso   1.00
H690   H     0.35371   0.10011   0.59414   0.00000  Uiso   1.00
H691   H     0.33353   0.31364   0.62396   0.00000  Uiso   1.00
H692   H     0.00160   0.31794   0.41925   0.00000  Uiso   1.00
H693   H     0.06118   0.31423   0.42237   0.00000  Uiso   1.00
H694   H     0.07002   0.40109   0.43452   0.00000  Uiso   1.00
H695   H     0.03448   0.38897   0.38135   0.00000  Uiso   1.00
H696   H     0.01094   0.40772   0.43738   0.00000  Uiso   1.00
H697   H     0.01904   0.23163   0.41685   0.00000  Uiso   1.00
H698   H     0.47438   0.21051   0.37588   0.00000  Uiso   1.00
H699   H     0.00999   0.13173   0.37051   0.00000  Uiso   1.00
H700   H     0.04931   0.17949   0.35728   0.00000  Uiso   1.00
H701   H     0.34597   0.17389   0.64232   0.00000  Uiso   1.00
H702   H     0.05238   0.15047   0.41607   0.00000  Uiso   1.00
H703   H     0.46986   0.26566   0.61649   0.00000  Uiso   1.00
H704   H     0.42052   0.30057   0.60462   0.00000  Uiso   1.00
H705   H     0.46517   0.37507   0.62894   0.00000  Uiso   1.00
H706   H     0.46037   0.33157   0.34387   0.00000  Uiso   1.00
H707   H     0.01153   0.33725   0.64555   0.00000  Uiso   1.00
H708   H     0.47066   0.18953   0.57196   0.00000  Uiso   1.00
H709   H     0.02029   0.17856   0.60903   0.00000  Uiso   1.00
H710   H     0.00669   0.08998   0.59525   0.00000  Uiso   1.00
H711   H     0.46098   0.11828   0.62321   0.00000  Uiso   1.00
H712   H     0.39581   0.17520   0.60828   0.00000  Uiso   1.00
H713   H     0.45682   0.10328   0.55898   0.00000  Uiso   1.00
H714   H     0.17576   0.37176   0.58297   0.00000  Uiso   1.00
H715   H     0.39303   0.12228   0.36816   0.00000  Uiso   1.00
H716   H     0.35823   0.33890   0.42349   0.00000  Uiso   1.00
H717   H     0.10249   0.09492   0.60325   0.00000  Uiso   1.00
H718   H     0.26609   0.05350   0.62457   0.00000  Uiso   1.00
H719   H     0.26519   0.49066   0.60634   0.00000  Uiso   1.00
H720   H     0.33676   0.04819   0.66618   0.00000  Uiso   1.00
H721   H     0.30954   0.49208   0.34769   0.00000  Uiso   1.00
H722   H     0.35015   0.49364   0.63529   0.00000  Uiso   1.00
H723   H     0.34857   0.20963   0.58808   0.00000  Uiso   1.00
H724   H     0.17862   0.01426   0.54064   0.00000  Uiso   1.00
H725   H     0.15793   0.45501   0.55497   0.00000  Uiso   1.00
H726   H     0.08723   0.47187   0.50728   0.00000  Uiso   1.00
H727   H     0.09905   0.01570   0.55498   0.00000  Uiso   1.00
H728   H     0.10894   0.03049   0.49214   0.00000  Uiso   1.00
H729   H     0.25129   0.04468   0.37590   0.00000  Uiso   1.00
H730   H     0.24967   0.48409   0.40022   0.00000  Uiso   1.00
H731   H     0.19375   0.02810   0.65155   0.00000  Uiso   1.00
H732   H     0.21226   0.46736   0.65968   0.00000  Uiso   1.00
H733   H     0.16504   0.48778   0.35736   0.00000  Uiso   1.00
H734   H     0.22032   0.37225   0.39364   0.00000  Uiso   1.00
H735   H     0.32636   0.00728   0.45595   0.00000  Uiso   1.00
H736   H     0.35020   0.44898   0.44917   0.00000  Uiso   1.00
H737   H     0.41729   0.47687   0.49886   0.00000  Uiso   1.00
H738   H     0.40674   0.01466   0.44626   0.00000  Uiso   1.00
H739   H     0.39272   0.03493   0.50617   0.00000  Uiso   1.00
H740   H     0.17528   0.41418   0.39395   0.00000  Uiso   1.00
H741   H     0.12024   0.35010   0.38112   0.00000  Uiso   1.00
H742   H     0.16192   0.34368   0.33691   0.00000  Uiso   1.00
N743   N     0.25000   0.12934   0.50000   0.00000  Uiso   1.00
N744   N     0.25000   0.37065   0.50000   0.00000  Uiso   1.00
O745   O     0.18573   0.29071   0.50000   0.00000  Uiso   1.00
O746   O     0.18097   0.37091   0.45497   0.00000  Uiso   1.00
O747   O     0.21033   0.12833   0.42309   0.00000  Uiso   1.00
O748   O     0.31532   0.37171   0.55103   0.00000  Uiso   1.00
O749   O     0.02982   0.33065   0.48814   0.00000  Uiso   1.00
O750   O     0.47586   0.17909   0.44498   0.00000  Uiso   1.00
O751   O     0.47288   0.31293   0.55806   0.00000  Uiso   1.00
O752   O     0.02352   0.16192   0.53466   0.00000  Uiso   1.00
O753   O     0.11444   0.38402   0.51258   0.00000  Uiso   1.00
O754   O     0.08239   0.35606   0.58740   0.00000  Uiso   1.00
O755   O     0.16496   0.33851   0.57612   0.00000  Uiso   1.00
O756   O     0.31427   0.20928   0.50000   0.00000  Uiso   1.00
O757   O     0.35769   0.13236   0.45206   0.00000  Uiso   1.00
O758   O     0.33925   0.19880   0.39738   0.00000  Uiso   1.00
O759   O     0.40949   0.15075   0.38191   0.00000  Uiso   1.00
O760   O     0.39886   0.38230   0.53362   0.00000  Uiso   1.00
O761   O     0.43785   0.36820   0.45999   0.00000  Uiso   1.00
O762   O     0.35313   0.35734   0.45356   0.00000  Uiso   1.00
O763   O     0.13378   0.12064   0.52049   0.00000  Uiso   1.00
O764   O     0.16282   0.17231   0.58742   0.00000  Uiso   1.00
O765   O     0.08873   0.12647   0.59776   0.00000  Uiso   1.00
O766   O     0.30671   0.03440   0.56814   0.00000  Uiso   1.00
O767   O     0.31427   0.29071   0.50000   0.00000  Uiso   1.00
O768   O     0.17134   0.46643   0.48148   0.00000  Uiso   1.00
O769   O     0.20312   0.02965   0.42610   0.00000  Uiso   1.00
O770   O     0.33242   0.46581   0.51975   0.00000  Uiso   1.00
O771   O     0.18573   0.20928   0.50000   0.00000  Uiso   1.00
O772   O     0.25000   0.29071   0.42946   0.00000  Uiso   1.00
O773   O     0.25000   0.20929   0.57054   0.00000  Uiso   1.00
O774   O     0.25000   0.29071   0.57054   0.00000  Uiso   1.00
O775   O     0.25000   0.20929   0.42946   0.00000  Uiso   1.00
O776   O     0.29406   0.13276   0.57415   0.00000  Uiso   1.00
S777   S     0.11420   0.34401   0.54888   0.00000  Uiso   1.00
S778   S     0.37658   0.17335   0.42367   0.00000  Uiso   1.00
S779   S     0.39966   0.35111   0.48899   0.00000  Uiso   1.00
S780   S     0.12152   0.15541   0.55908   0.00000  Uiso   1.00
C781   C     0.66578   0.24941   0.50770   0.00000  Uiso   1.00
C782   C     0.79029   0.44544   0.51304   0.00000  Uiso   1.00
C783   C     0.74950   0.24997   0.40684   0.00000  Uiso   1.00
C784   C     0.75015   0.25004   0.59314   0.00000  Uiso   1.00
C785   C     0.75312   0.02767   0.49901   0.00000  Uiso   1.00
C786   C     0.75209   0.47271   0.50012   0.00000  Uiso   1.00
C787   C     0.74958   0.24999   0.35512   0.00000  Uiso   1.00
C788   C     0.74982   0.25006   0.64484   0.00000  Uiso   1.00
C789   C     0.54967   0.28899   0.50445   0.00000  Uiso   1.00
C790   C     0.95302   0.21418   0.46841   0.00000  Uiso   1.00
C791   C     0.95207   0.28212   0.52413   0.00000  Uiso   1.00
C792   C     0.83476   0.25060   0.49441   0.00000  Uiso   1.00
C793   C     0.54698   0.20450   0.52717   0.00000  Uiso   1.00
C794   C     0.59449   0.29093   0.51857   0.00000  Uiso   1.00
C795   C     0.90592   0.21460   0.46400   0.00000  Uiso   1.00
C796   C     0.90900   0.29095   0.50686   0.00000  Uiso   1.00
C797   C     0.59412   0.20511   0.53135   0.00000  Uiso   1.00
C798   C     0.61811   0.24819   0.52036   0.00000  Uiso   1.00
C799   C     0.88336   0.25237   0.48683   0.00000  Uiso   1.00
C800   C     0.52490   0.24604   0.51014   0.00000  Uiso   1.00
C801   C     0.97595   0.24667   0.50112   0.00000  Uiso   1.00
C802   C     0.84102   0.13260   0.57554   0.00000  Uiso   1.00
C803   C     0.77528   0.10629   0.53515   0.00000  Uiso   1.00
C804   C     0.85900   0.17554   0.60528   0.00000  Uiso   1.00
C805   C     0.68556   0.37762   0.40446   0.00000  Uiso   1.00
C806   C     0.65548   0.34168   0.37631   0.00000  Uiso   1.00
C807   C     0.66348   0.12478   0.41888   0.00000  Uiso   1.00
C808   C     0.64872   0.12927   0.36541   0.00000  Uiso   1.00
C809   C     0.80746   0.38217   0.60028   0.00000  Uiso   1.00
C810   C     0.83751   0.35225   0.63361   0.00000  Uiso   1.00
C811   C     0.53256   0.33361   0.43681   0.00000  Uiso   1.00
C812   C     0.53716   0.38603   0.42173   0.00000  Uiso   1.00
C813   C     0.99837   0.19969   0.40572   0.00000  Uiso   1.00
C814   C     0.71510   0.39545   0.48001   0.00000  Uiso   1.00
C815   C     0.52939   0.16294   0.38609   0.00000  Uiso   1.00
C816   C     0.95748   0.30126   0.60452   0.00000  Uiso   1.00
C817   C     0.97480   0.33872   0.64136   0.00000  Uiso   1.00
C818   C     0.99904   0.16535   0.57732   0.00000  Uiso   1.00
C819   C     0.97977   0.11611   0.58942   0.00000  Uiso   1.00
C820   C     0.78640   0.02346   0.61188   0.00000  Uiso   1.00
C821   C     0.82284   0.01378   0.65099   0.00000  Uiso   1.00
C822   C     0.65740   0.48368   0.52674   0.00000  Uiso   1.00
C823   C     0.61021   0.00150   0.51985   0.00000  Uiso   1.00
C824   C     0.72922   0.01487   0.38801   0.00000  Uiso   1.00
C825   C     0.72750   0.10397   0.46344   0.00000  Uiso   1.00
C826   C     0.69832   0.49860   0.34495   0.00000  Uiso   1.00
C827   C     0.84803   0.48026   0.47408   0.00000  Uiso   1.00
C828   C     0.89412   0.00309   0.48190   0.00000  Uiso   1.00
C829   C     0.78488   0.39567   0.52173   0.00000  Uiso   1.00
C830   C     0.77709   0.05551   0.53544   0.00000  Uiso   1.00
C831   C     0.71239   0.44551   0.48818   0.00000  Uiso   1.00
C832   C     0.72902   0.05326   0.46196   0.00000  Uiso   1.00
Cu833  Cu    0.75000   0.29821   0.50000   0.00000  Uiso   1.00
Cu834  Cu    0.75000   0.20178   0.50000   0.00000  Uiso   1.00
H835   H     0.85459   0.13474   0.53882   0.00000  Uiso   1.00
H836   H     0.66182   0.30469   0.38938   0.00000  Uiso   1.00
H837   H     0.64915   0.15503   0.43850   0.00000  Uiso   1.00
H838   H     0.64921   0.09072   0.43304   0.00000  Uiso   1.00
H839   H     0.66580   0.10276   0.34319   0.00000  Uiso   1.00
H840   H     0.61240   0.12248   0.36092   0.00000  Uiso   1.00
H841   H     0.65676   0.16595   0.35225   0.00000  Uiso   1.00
H842   H     0.77232   0.37386   0.60882   0.00000  Uiso   1.00
H843   H     0.81505   0.42052   0.60852   0.00000  Uiso   1.00
H844   H     0.87265   0.36384   0.63002   0.00000  Uiso   1.00
H845   H     0.82875   0.35732   0.33881   0.00000  Uiso   1.00
H846   H     0.85371   0.10011   0.59414   0.00000  Uiso   1.00
H847   H     0.83353   0.31364   0.62396   0.00000  Uiso   1.00
H848   H     0.50160   0.31794   0.41925   0.00000  Uiso   1.00
H849   H     0.56118   0.31423   0.42237   0.00000  Uiso   1.00
H850   H     0.57002   0.40109   0.43452   0.00000  Uiso   1.00
H851   H     0.53448   0.38897   0.38135   0.00000  Uiso   1.00
H852   H     0.51094   0.40772   0.43738   0.00000  Uiso   1.00
H853   H     0.51904   0.23163   0.41685   0.00000  Uiso   1.00
H854   H     0.97438   0.21051   0.37588   0.00000  Uiso   1.00
H855   H     0.50999   0.13173   0.37051   0.00000  Uiso   1.00
H856   H     0.54931   0.17949   0.35728   0.00000  Uiso   1.00
H857   H     0.84597   0.17389   0.64232   0.00000  Uiso   1.00
H858   H     0.55238   0.15047   0.41607   0.00000  Uiso   1.00
H859   H     0.96986   0.26566   0.61649   0.00000  Uiso   1.00
H860   H     0.92052   0.30057   0.60462   0.00000  Uiso   1.00
H861   H     0.96517   0.37507   0.62894   0.00000  Uiso   1.00
H862   H     0.96037   0.33157   0.34387   0.00000  Uiso   1.00
H863   H     0.51153   0.33725   0.64555   0.00000  Uiso   1.00
H864   H     0.97066   0.18953   0.57196   0.00000  Uiso   1.00
H865   H     0.52029   0.17856   0.60903   0.00000  Uiso   1.00
H866   H     0.50669   0.08998   0.59525   0.00000  Uiso   1.00
H867   H     0.96098   0.11828   0.62321   0.00000  Uiso   1.00
H868   H     0.89581   0.17520   0.60828   0.00000  Uiso   1.00
H869   H     0.95682   0.10328   0.55898   0.00000  Uiso   1.00
H870   H     0.67576   0.37176   0.58297   0.00000  Uiso   1.00
H871   H     0.89303   0.12228   0.36816   0.00000  Uiso   1.00
H872   H     0.85823   0.33890   0.42349   0.00000  Uiso   1.00
H873   H     0.60249   0.09492   0.60325   0.00000  Uiso   1.00
H874   H     0.76609   0.05350   0.62457   0.00000  Uiso   1.00
H875   H     0.76519   0.49066   0.60634   0.00000  Uiso   1.00
H876   H     0.83676   0.04819   0.66618   0.00000  Uiso   1.00
H877   H     0.80954   0.49208   0.34769   0.00000  Uiso   1.00
H878   H     0.85015   0.49364   0.63529   0.00000  Uiso   1.00
H879   H     0.84857   0.20963   0.58808   0.00000  Uiso   1.00
H880   H     0.67862   0.01426   0.54064   0.00000  Uiso   1.00
H881   H     0.65793   0.45501   0.55497   0.00000  Uiso   1.00
H882   H     0.58723   0.47187   0.50728   0.00000  Uiso   1.00
H883   H     0.59905   0.01570   0.55498   0.00000  Uiso   1.00
H884   H     0.60894   0.03049   0.49214   0.00000  Uiso   1.00
H885   H     0.75129   0.04468   0.37590   0.00000  Uiso   1.00
H886   H     0.74967   0.48409   0.40022   0.00000  Uiso   1.00
H887   H     0.69375   0.02810   0.65155   0.00000  Uiso   1.00
H888   H     0.71226   0.46736   0.65968   0.00000  Uiso   1.00
H889   H     0.66504   0.48778   0.35736   0.00000  Uiso   1.00
H890   H     0.72032   0.37225   0.39364   0.00000  Uiso   1.00
H891   H     0.82636   0.00728   0.45595   0.00000  Uiso   1.00
H892   H     0.85020   0.44898   0.44917   0.00000  Uiso   1.00
H893   H     0.91729   0.47687   0.49886   0.00000  Uiso   1.00
H894   H     0.90674   0.01466   0.44626   0.00000  Uiso   1.00
H895   H     0.89272   0.03493   0.50617   0.00000  Uiso   1.00
H896   H     0.67528   0.41418   0.39395   0.00000  Uiso   1.00
H897   H     0.62024   0.35010   0.38112   0.00000  Uiso   1.00
H898   H     0.66192   0.34368   0.33691   0.00000  Uiso   1.00
N899   N     0.75000   0.12934   0.50000   0.00000  Uiso   1.00
N900   N     0.75000   0.37065   0.50000   0.00000  Uiso   1.00
O901   O     0.68573   0.29071   0.50000   0.00000  Uiso   1.00
O902   O     0.68097   0.37091   0.45497   0.00000  Uiso   1.00
O903   O     0.71033   0.12833   0.42309   0.00000  Uiso   1.00
O904   O     0.81532   0.37171   0.55103   0.00000  Uiso   1.00
O905   O     0.52982   0.33065   0.48814   0.00000  Uiso   1.00
O906   O     0.97586   0.17909   0.44498   0.00000  Uiso   1.00
O907   O     0.97288   0.31293   0.55806   0.00000  Uiso   1.00
O908   O     0.52352   0.16192   0.53466   0.00000  Uiso   1.00
O909   O     0.61444   0.38402   0.51258   0.00000  Uiso   1.00
O910   O     0.58239   0.35606   0.58740   0.00000  Uiso   1.00
O911   O     0.66496   0.33851   0.57612   0.00000  Uiso   1.00
O912   O     0.81427   0.20928   0.50000   0.00000  Uiso   1.00
O913   O     0.85769   0.13236   0.45206   0.00000  Uiso   1.00
O914   O     0.83925   0.19880   0.39738   0.00000  Uiso   1.00
O915   O     0.90949   0.15075   0.38191   0.00000  Uiso   1.00
O916   O     0.89886   0.38230   0.53362   0.00000  Uiso   1.00
O917   O     0.93785   0.36820   0.45999   0.00000  Uiso   1.00
O918   O     0.85313   0.35734   0.45356   0.00000  Uiso   1.00
O919   O     0.63378   0.12064   0.52049   0.00000  Uiso   1.00
O920   O     0.66282   0.17231   0.58742   0.00000  Uiso   1.00
O921   O     0.58873   0.12647   0.59776   0.00000  Uiso   1.00
O922   O     0.80671   0.03440   0.56814   0.00000  Uiso   1.00
O923   O     0.81427   0.29071   0.50000   0.00000  Uiso   1.00
O924   O     0.67134   0.46643   0.48148   0.00000  Uiso   1.00
O925   O     0.70312   0.02965   0.42610   0.00000  Uiso   1.00
O926   O     0.83242   0.46581   0.51975   0.00000  Uiso   1.00
O927   O     0.68573   0.20928   0.50000   0.00000  Uiso   1.00
O928   O     0.75000   0.29071   0.42946   0.00000  Uiso   1.00
O929   O     0.75000   0.20929   0.57054   0.00000  Uiso   1.00
O930   O     0.75000   0.29071   0.57054   0.00000  Uiso   1.00
O931   O     0.75000   0.20929   0.42946   0.00000  Uiso   1.00
O932   O     0.79406   0.13276   0.57415   0.00000  Uiso   1.00
S933   S     0.61420   0.34401   0.54888   0.00000  Uiso   1.00
S934   S     0.87658   0.17335   0.42367   0.00000  Uiso   1.00
S935   S     0.89966   0.35111   0.48899   0.00000  Uiso   1.00
S936   S     0.62152   0.15541   0.55908   0.00000  Uiso   1.00
C937   C     0.16578   0.74941   0.50770   0.00000  Uiso   1.00
C938   C     0.29029   0.94544   0.51304   0.00000  Uiso   1.00
C939   C     0.24950   0.74997   0.40684   0.00000  Uiso   1.00
C940   C     0.25015   0.75004   0.59314   0.00000  Uiso   1.00
C941   C     0.25312   0.52767   0.49901   0.00000  Uiso   1.00
C942   C     0.25209   0.97271   0.50012   0.00000  Uiso   1.00
C943   C     0.24958   0.74999   0.35512   0.00000  Uiso   1.00
C944   C     0.24982   0.75006   0.64484   0.00000  Uiso   1.00
C945   C     0.04967   0.78899   0.50445   0.00000  Uiso   1.00
C946   C     0.45302   0.71418   0.46841   0.00000  Uiso   1.00
C947   C     0.45207   0.78212   0.52413   0.00000  Uiso   1.00
C948   C     0.33476   0.75060   0.49441   0.00000  Uiso   1.00
C949   C     0.04698   0.70450   0.52717   0.00000  Uiso   1.00
C950   C     0.09449   0.79093   0.51857   0.00000  Uiso   1.00
C951   C     0.40592   0.71460   0.46400   0.00000  Uiso   1.00
C952   C     0.40900   0.79095   0.50686   0.00000  Uiso   1.00
C953   C     0.09412   0.70511   0.53135   0.00000  Uiso   1.00
C954   C     0.11811   0.74819   0.52036   0.00000  Uiso   1.00
C955   C     0.38336   0.75237   0.48683   0.00000  Uiso   1.00
C956   C     0.02490   0.74604   0.51014   0.00000  Uiso   1.00
C957   C     0.47595   0.74667   0.50112   0.00000  Uiso   1.00
C958   C     0.34102   0.63260   0.57554   0.00000  Uiso   1.00
C959   C     0.27528   0.60629   0.53515   0.00000  Uiso   1.00
C960   C     0.35900   0.67554   0.60528   0.00000  Uiso   1.00
C961   C     0.18556   0.87762   0.40446   0.00000  Uiso   1.00
C962   C     0.15548   0.84168   0.37631   0.00000  Uiso   1.00
C963   C     0.16348   0.62478   0.41888   0.00000  Uiso   1.00
C964   C     0.14872   0.62927   0.36541   0.00000  Uiso   1.00
C965   C     0.30746   0.88217   0.60028   0.00000  Uiso   1.00
C966   C     0.33751   0.85225   0.63361   0.00000  Uiso   1.00
C967   C     0.03256   0.83361   0.43681   0.00000  Uiso   1.00
C968   C     0.03716   0.88603   0.42173   0.00000  Uiso   1.00
C969   C     0.49837   0.69969   0.40572   0.00000  Uiso   1.00
C970   C     0.21510   0.89545   0.48001   0.00000  Uiso   1.00
C971   C     0.02939   0.66294   0.38609   0.00000  Uiso   1.00
C972   C     0.45748   0.80126   0.60452   0.00000  Uiso   1.00
C973   C     0.47480   0.83872   0.64136   0.00000  Uiso   1.00
C974   C     0.49904   0.66535   0.57732   0.00000  Uiso   1.00
C975   C     0.47977   0.61611   0.58942   0.00000  Uiso   1.00
C976   C     0.28640   0.52346   0.61188   0.00000  Uiso   1.00
C977   C     0.32284   0.51378   0.65099   0.00000  Uiso   1.00
C978   C     0.15740   0.98368   0.52674   0.00000  Uiso   1.00
C979   C     0.11021   0.50150   0.51985   0.00000  Uiso   1.00
C980   C     0.22922   0.51487   0.38801   0.00000  Uiso   1.00
C981   C     0.22750   0.60397   0.46344   0.00000  Uiso   1.00
C982   C     0.19832   0.99860   0.34495   0.00000  Uiso   1.00
C983   C     0.34803   0.98026   0.47408   0.00000  Uiso   1.00
C984   C     0.39412   0.50309   0.48190   0.00000  Uiso   1.00
C985   C     0.28488   0.89567   0.52173   0.00000  Uiso   1.00
C986   C     0.27709   0.55551   0.53544   0.00000  Uiso   1.00
C987   C     0.21239   0.94551   0.48818   0.00000  Uiso   1.00
C988   C     0.22902   0.55326   0.46196   0.00000  Uiso   1.00
Cu989  Cu    0.25000   0.79821   0.50000   0.00000  Uiso   1.00
Cu990  Cu    0.25000   0.70178   0.50000   0.00000  Uiso   1.00
H991   H     0.35459   0.63474   0.53882   0.00000  Uiso   1.00
H992   H     0.16182   0.80469   0.38938   0.00000  Uiso   1.00
H993   H     0.14915   0.65503   0.43850   0.00000  Uiso   1.00
H994   H     0.14921   0.59072   0.43304   0.00000  Uiso   1.00
H995   H     0.16580   0.60276   0.34319   0.00000  Uiso   1.00
H996   H     0.11240   0.62248   0.36092   0.00000  Uiso   1.00
H997   H     0.15676   0.66595   0.35225   0.00000  Uiso   1.00
H998   H     0.27232   0.87386   0.60882   0.00000  Uiso   1.00
H999   H     0.31505   0.92052   0.60852   0.00000  Uiso   1.00
H1000  H     0.37265   0.86384   0.63002   0.00000  Uiso   1.00
H1001  H     0.32875   0.85732   0.33881   0.00000  Uiso   1.00
H1002  H     0.35371   0.60011   0.59414   0.00000  Uiso   1.00
H1003  H     0.33353   0.81364   0.62396   0.00000  Uiso   1.00
H1004  H     0.00160   0.81794   0.41925   0.00000  Uiso   1.00
H1005  H     0.06118   0.81423   0.42237   0.00000  Uiso   1.00
H1006  H     0.07002   0.90109   0.43452   0.00000  Uiso   1.00
H1007  H     0.03448   0.88897   0.38135   0.00000  Uiso   1.00
H1008  H     0.01094   0.90772   0.43738   0.00000  Uiso   1.00
H1009  H     0.01904   0.73163   0.41685   0.00000  Uiso   1.00
H1010  H     0.47438   0.71051   0.37588   0.00000  Uiso   1.00
H1011  H     0.00999   0.63173   0.37051   0.00000  Uiso   1.00
H1012  H     0.04931   0.67949   0.35728   0.00000  Uiso   1.00
H1013  H     0.34597   0.67389   0.64232   0.00000  Uiso   1.00
H1014  H     0.05238   0.65047   0.41607   0.00000  Uiso   1.00
H1015  H     0.46986   0.76566   0.61649   0.00000  Uiso   1.00
H1016  H     0.42052   0.80057   0.60462   0.00000  Uiso   1.00
H1017  H     0.46517   0.87507   0.62894   0.00000  Uiso   1.00
H1018  H     0.46037   0.83157   0.34387   0.00000  Uiso   1.00
H1019  H     0.01153   0.83725   0.64555   0.00000  Uiso   1.00
H1020  H     0.47066   0.68953   0.57196   0.00000  Uiso   1.00
H1021  H     0.02029   0.67856   0.60903   0.00000  Uiso   1.00
H1022  H     0.00669   0.58998   0.59525   0.00000  Uiso   1.00
H1023  H     0.46098   0.61828   0.62321   0.00000  Uiso   1.00
H1024  H     0.39581   0.67520   0.60828   0.00000  Uiso   1.00
H1025  H     0.45682   0.60328   0.55898   0.00000  Uiso   1.00
H1026  H     0.17576   0.87176   0.58297   0.00000  Uiso   1.00
H1027  H     0.39303   0.62228   0.36816   0.00000  Uiso   1.00
H1028  H     0.35823   0.83890   0.42349   0.00000  Uiso   1.00
H1029  H     0.10249   0.59492   0.60325   0.00000  Uiso   1.00
H1030  H     0.26609   0.55350   0.62457   0.00000  Uiso   1.00
H1031  H     0.26519   0.99066   0.60634   0.00000  Uiso   1.00
H1032  H     0.33676   0.54819   0.66618   0.00000  Uiso   1.00
H1033  H     0.30954   0.99208   0.34769   0.00000  Uiso   1.00
H1034  H     0.35015   0.99364   0.63529   0.00000  Uiso   1.00
H1035  H     0.34857   0.70963   0.58808   0.00000  Uiso   1.00
H1036  H     0.17862   0.51426   0.54064   0.00000  Uiso   1.00
H1037  H     0.15793   0.95501   0.55497   0.00000  Uiso   1.00
H1038  H     0.08723   0.97187   0.50728   0.00000  Uiso   1.00
H1039  H     0.09905   0.51570   0.55498   0.00000  Uiso   1.00
H1040  H     0.10894   0.53049   0.49214   0.00000  Uiso   1.00
H1041  H     0.25129   0.54468   0.37590   0.00000  Uiso   1.00
H1042  H     0.24967   0.98409   0.40022   0.00000  Uiso   1.00
H1043  H     0.19375   0.52810   0.65155   0.00000  Uiso   1.00
H1044  H     0.21226   0.96736   0.65968   0.00000  Uiso   1.00
H1045  H     0.16504   0.98778   0.35736   0.00000  Uiso   1.00
H1046  H     0.22032   0.87225   0.39364   0.00000  Uiso   1.00
H1047  H     0.32636   0.50728   0.45595   0.00000  Uiso   1.00
H1048  H     0.35020   0.94898   0.44917   0.00000  Uiso   1.00
H1049  H     0.41729   0.97687   0.49886   0.00000  Uiso   1.00
H1050  H     0.40674   0.51466   0.44626   0.00000  Uiso   1.00
H1051  H     0.39272   0.53493   0.50617   0.00000  Uiso   1.00
H1052  H     0.17528   0.91418   0.39395   0.00000  Uiso   1.00
H1053  H     0.12024   0.85010   0.38112   0.00000  Uiso   1.00
H1054  H     0.16192   0.84368   0.33691   0.00000  Uiso   1.00
N1055  N     0.25000   0.62934   0.50000   0.00000  Uiso   1.00
N1056  N     0.25000   0.87065   0.50000   0.00000  Uiso   1.00
O1057  O     0.18573   0.79071   0.50000   0.00000  Uiso   1.00
O1058  O     0.18097   0.87091   0.45497   0.00000  Uiso   1.00
O1059  O     0.21033   0.62833   0.42309   0.00000  Uiso   1.00
O1060  O     0.31532   0.87171   0.55103   0.00000  Uiso   1.00
O1061  O     0.02982   0.83065   0.48814   0.00000  Uiso   1.00
O1062  O     0.47586   0.67909   0.44498   0.00000  Uiso   1.00
O1063  O     0.47288   0.81293   0.55806   0.00000  Uiso   1.00
O1064  O     0.02352   0.66192   0.53466   0.00000  Uiso   1.00
O1065  O     0.11444   0.88402   0.51258   0.00000  Uiso   1.00
O1066  O     0.08239   0.85606   0.58740   0.00000  Uiso   1.00
O1067  O     0.16496   0.83851   0.57612   0.00000  Uiso   1.00
O1068  O     0.31427   0.70928   0.50000   0.00000  Uiso   1.00
O1069  O     0.35769   0.63236   0.45206   0.00000  Uiso   1.00
O1070  O     0.33925   0.69880   0.39738   0.00000  Uiso   1.00
O1071  O     0.40949   0.65075   0.38191   0.00000  Uiso   1.00
O1072  O     0.39886   0.88230   0.53362   0.00000  Uiso   1.00
O1073  O     0.43785   0.86820   0.45999   0.00000  Uiso   1.00
O1074  O     0.35313   0.85734   0.45356   0.00000  Uiso   1.00
O1075  O     0.13378   0.62064   0.52049   0.00000  Uiso   1.00
O1076  O     0.16282   0.67231   0.58742   0.00000  Uiso   1.00
O1077  O     0.08873   0.62647   0.59776   0.00000  Uiso   1.00
O1078  O     0.30671   0.53440   0.56814   0.00000  Uiso   1.00
O1079  O     0.31427   0.79071   0.50000   0.00000  Uiso   1.00
O1080  O     0.17134   0.96643   0.48148   0.00000  Uiso   1.00
O1081  O     0.20312   0.52965   0.42610   0.00000  Uiso   1.00
O1082  O     0.33242   0.96581   0.51975   0.00000  Uiso   1.00
O1083  O     0.18573   0.70928   0.50000   0.00000  Uiso   1.00
O1084  O     0.25000   0.79071   0.42946   0.00000  Uiso   1.00
O1085  O     0.25000   0.70929   0.57054   0.00000  Uiso   1.00
O1086  O     0.25000   0.79071   0.57054   0.00000  Uiso   1.00
O1087  O     0.25000   0.70929   0.42946   0.00000  Uiso   1.00
O1088  O     0.29406   0.63276   0.57415   0.00000  Uiso   1.00
S1089  S     0.11420   0.84401   0.54888   0.00000  Uiso   1.00
S1090  S     0.37658   0.67335   0.42367   0.00000  Uiso   1.00
S1091  S     0.39966   0.85111   0.48899   0.00000  Uiso   1.00
S1092  S     0.12152   0.65541   0.55908   0.00000  Uiso   1.00
C1093  C     0.66578   0.74941   0.50770   0.00000  Uiso   1.00
C1094  C     0.79029   0.94544   0.51304   0.00000  Uiso   1.00
C1095  C     0.74950   0.74997   0.40684   0.00000  Uiso   1.00
C1096  C     0.75015   0.75004   0.59314   0.00000  Uiso   1.00
C1097  C     0.75312   0.52767   0.49901   0.00000  Uiso   1.00
C1098  C     0.75209   0.97271   0.50012   0.00000  Uiso   1.00
C1099  C     0.74958   0.74999   0.35512   0.00000  Uiso   1.00
C1100  C     0.74982   0.75006   0.64484   0.00000  Uiso   1.00
C1101  C     0.54967   0.78899   0.50445   0.00000  Uiso   1.00
C1102  C     0.95302   0.71418   0.46841   0.00000  Uiso   1.00
C1103  C     0.95207   0.78212   0.52413   0.00000  Uiso   1.00
C1104  C     0.83476   0.75060   0.49441   0.00000  Uiso   1.00
C1105  C     0.54698   0.70450   0.52717   0.00000  Uiso   1.00
C1106  C     0.59449   0.79093   0.51857   0.00000  Uiso   1.00
C1107  C     0.90592   0.71460   0.46400   0.00000  Uiso   1.00
C1108  C     0.90900   0.79095   0.50686   0.00000  Uiso   1.00
C1109  C     0.59412   0.70511   0.53135   0.00000  Uiso   1.00
C1110  C     0.61811   0.74819   0.52036   0.00000  Uiso   1.00
C1111  C     0.88336   0.75237   0.48683   0.00000  Uiso   1.00
C1112  C     0.52490   0.74604   0.51014   0.00000  Uiso   1.00
C1113  C     0.97595   0.74667   0.50112   0.00000  Uiso   1.00
C1114  C     0.84102   0.63260   0.57554   0.00000  Uiso   1.00
C1115  C     0.77528   0.60629   0.53515   0.00000  Uiso   1.00
C1116  C     0.85900   0.67554   0.60528   0.00000  Uiso   1.00
C1117  C     0.68556   0.87762   0.40446   0.00000  Uiso   1.00
C1118  C     0.65548   0.84168   0.37631   0.00000  Uiso   1.00
C1119  C     0.66348   0.62478   0.41888   0.00000  Uiso   1.00
C1120  C     0.64872   0.62927   0.36541   0.00000  Uiso   1.00
C1121  C     0.80746   0.88217   0.60028   0.00000  Uiso   1.00
C1122  C     0.83751   0.85225   0.63361   0.00000  Uiso   1.00
C1123  C     0.53256   0.83361   0.43681   0.00000  Uiso   1.00
C1124  C     0.53716   0.88603   0.42173   0.00000  Uiso   1.00
C1125  C     0.99837   0.69969   0.40572   0.00000  Uiso   1.00
C1126  C     0.71510   0.89545   0.48001   0.00000  Uiso   1.00
C1127  C     0.52939   0.66294   0.38609   0.00000  Uiso   1.00
C1128  C     0.95748   0.80126   0.60452   0.00000  Uiso   1.00
C1129  C     0.97480   0.83872   0.64136   0.00000  Uiso   1.00
C1130  C     0.99904   0.66535   0.57732   0.00000  Uiso   1.00
C1131  C     0.97977   0.61611   0.58942   0.00000  Uiso   1.00
C1132  C     0.78640   0.52346   0.61188   0.00000  Uiso   1.00
C1133  C     0.82284   0.51378   0.65099   0.00000  Uiso   1.00
C1134  C     0.65740   0.98368   0.52674   0.00000  Uiso   1.00
C1135  C     0.61021   0.50150   0.51985   0.00000  Uiso   1.00
C1136  C     0.72922   0.51487   0.38801   0.00000  Uiso   1.00
C1137  C     0.72750   0.60397   0.46344   0.00000  Uiso   1.00
C1138  C     0.69832   0.99860   0.34495   0.00000  Uiso   1.00
C1139  C     0.84803   0.98026   0.47408   0.00000  Uiso   1.00
C1140  C     0.89412   0.50309   0.48190   0.00000  Uiso   1.00
C1141  C     0.78488   0.89567   0.52173   0.00000  Uiso   1.00
C1142  C     0.77709   0.55551   0.53544   0.00000  Uiso   1.00
C1143  C     0.71239   0.94551   0.48818   0.00000  Uiso   1.00
C1144  C     0.72902   0.55326   0.46196   0.00000  Uiso   1.00
Cu1145 Cu    0.75000   0.79821   0.50000   0.00000  Uiso   1.00
Cu1146 Cu    0.75000   0.70178   0.50000   0.00000  Uiso   1.00
H1147  H     0.85459   0.63474   0.53882   0.00000  Uiso   1.00
H1148  H     0.66182   0.80469   0.38938   0.00000  Uiso   1.00
H1149  H     0.64915   0.65503   0.43850   0.00000  Uiso   1.00
H1150  H     0.64921   0.59072   0.43304   0.00000  Uiso   1.00
H1151  H     0.66580   0.60276   0.34319   0.00000  Uiso   1.00
H1152  H     0.61240   0.62248   0.36092   0.00000  Uiso   1.00
H1153  H     0.65676   0.66595   0.35225   0.00000  Uiso   1.00
H1154  H     0.77232   0.87386   0.60882   0.00000  Uiso   1.00
H1155  H     0.81505   0.92052   0.60852   0.00000  Uiso   1.00
H1156  H     0.87265   0.86384   0.63002   0.00000  Uiso   1.00
H1157  H     0.82875   0.85732   0.33881   0.00000  Uiso   1.00
H1158  H     0.85371   0.60011   0.59414   0.00000  Uiso   1.00
H1159  H     0.83353   0.81364   0.62396   0.00000  Uiso   1.00
H1160  H     0.50160   0.81794   0.41925   0.00000  Uiso   1.00
H1161  H     0.56118   0.81423   0.42237   0.00000  Uiso   1.00
H1162  H     0.57002   0.90109   0.43452   0.00000  Uiso   1.00
H1163  H     0.53448   0.88897   0.38135   0.00000  Uiso   1.00
H1164  H     0.51094   0.90772   0.43738   0.00000  Uiso   1.00
H1165  H     0.51904   0.73163   0.41685   0.00000  Uiso   1.00
H1166  H     0.97438   0.71051   0.37588   0.00000  Uiso   1.00
H1167  H     0.50999   0.63173   0.37051   0.00000  Uiso   1.00
H1168  H     0.54931   0.67949   0.35728   0.00000  Uiso   1.00
H1169  H     0.84597   0.67389   0.64232   0.00000  Uiso   1.00
H1170  H     0.55238   0.65047   0.41607   0.00000  Uiso   1.00
H1171  H     0.96986   0.76566   0.61649   0.00000  Uiso   1.00
H1172  H     0.92052   0.80057   0.60462   0.00000  Uiso   1.00
H1173  H     0.96517   0.87507   0.62894   0.00000  Uiso   1.00
H1174  H     0.96037   0.83157   0.34387   0.00000  Uiso   1.00
H1175  H     0.51153   0.83725   0.64555   0.00000  Uiso   1.00
H1176  H     0.97066   0.68953   0.57196   0.00000  Uiso   1.00
H1177  H     0.52029   0.67856   0.60903   0.00000  Uiso   1.00
H1178  H     0.50669   0.58998   0.59525   0.00000  Uiso   1.00
H1179  H     0.96098   0.61828   0.62321   0.00000  Uiso   1.00
H1180  H     0.89581   0.67520   0.60828   0.00000  Uiso   1.00
H1181  H     0.95682   0.60328   0.55898   0.00000  Uiso   1.00
H1182  H     0.67576   0.87176   0.58297   0.00000  Uiso   1.00
H1183  H     0.89303   0.62228   0.36816   0.00000  Uiso   1.00
H1184  H     0.85823   0.83890   0.42349   0.00000  Uiso   1.00
H1185  H     0.60249   0.59492   0.60325   0.00000  Uiso   1.00
H1186  H     0.76609   0.55350   0.62457   0.00000  Uiso   1.00
H1187  H     0.76519   0.99066   0.60634   0.00000  Uiso   1.00
H1188  H     0.83676   0.54819   0.66618   0.00000  Uiso   1.00
H1189  H     0.80954   0.99208   0.34769   0.00000  Uiso   1.00
H1190  H     0.85015   0.99364   0.63529   0.00000  Uiso   1.00
H1191  H     0.84857   0.70963   0.58808   0.00000  Uiso   1.00
H1192  H     0.67862   0.51426   0.54064   0.00000  Uiso   1.00
H1193  H     0.65793   0.95501   0.55497   0.00000  Uiso   1.00
H1194  H     0.58723   0.97187   0.50728   0.00000  Uiso   1.00
H1195  H     0.59905   0.51570   0.55498   0.00000  Uiso   1.00
H1196  H     0.60894   0.53049   0.49214   0.00000  Uiso   1.00
H1197  H     0.75129   0.54468   0.37590   0.00000  Uiso   1.00
H1198  H     0.74967   0.98409   0.40022   0.00000  Uiso   1.00
H1199  H     0.69375   0.52810   0.65155   0.00000  Uiso   1.00
H1200  H     0.71226   0.96736   0.65968   0.00000  Uiso   1.00
H1201  H     0.66504   0.98778   0.35736   0.00000  Uiso   1.00
H1202  H     0.72032   0.87225   0.39364   0.00000  Uiso   1.00
H1203  H     0.82636   0.50728   0.45595   0.00000  Uiso   1.00
H1204  H     0.85020   0.94898   0.44917   0.00000  Uiso   1.00
H1205  H     0.91729   0.97687   0.49886   0.00000  Uiso   1.00
H1206  H     0.90674   0.51466   0.44626   0.00000  Uiso   1.00
H1207  H     0.89272   0.53493   0.50617   0.00000  Uiso   1.00
H1208  H     0.67528   0.91418   0.39395   0.00000  Uiso   1.00
H1209  H     0.62024   0.85010   0.38112   0.00000  Uiso   1.00
H1210  H     0.66192   0.84368   0.33691   0.00000  Uiso   1.00
N1211  N     0.75000   0.62934   0.50000   0.00000  Uiso   1.00
N1212  N     0.75000   0.87065   0.50000   0.00000  Uiso   1.00
O1213  O     0.68573   0.79071   0.50000   0.00000  Uiso   1.00
O1214  O     0.68097   0.87091   0.45497   0.00000  Uiso   1.00
O1215  O     0.71033   0.62833   0.42309   0.00000  Uiso   1.00
O1216  O     0.81532   0.87171   0.55103   0.00000  Uiso   1.00
O1217  O     0.52982   0.83065   0.48814   0.00000  Uiso   1.00
O1218  O     0.97586   0.67909   0.44498   0.00000  Uiso   1.00
O1219  O     0.97288   0.81293   0.55806   0.00000  Uiso   1.00
O1220  O     0.52352   0.66192   0.53466   0.00000  Uiso   1.00
O1221  O     0.61444   0.88402   0.51258   0.00000  Uiso   1.00
O1222  O     0.58239   0.85606   0.58740   0.00000  Uiso   1.00
O1223  O     0.66496   0.83851   0.57612   0.00000  Uiso   1.00
O1224  O     0.81427   0.70928   0.50000   0.00000  Uiso   1.00
O1225  O     0.85769   0.63236   0.45206   0.00000  Uiso   1.00
O1226  O     0.83925   0.69880   0.39738   0.00000  Uiso   1.00
O1227  O     0.90949   0.65075   0.38191   0.00000  Uiso   1.00
O1228  O     0.89886   0.88230   0.53362   0.00000  Uiso   1.00
O1229  O     0.93785   0.86820   0.45999   0.00000  Uiso   1.00
O1230  O     0.85313   0.85734   0.45356   0.00000  Uiso   1.00
O1231  O     0.63378   0.62064   0.52049   0.00000  Uiso   1.00
O1232  O     0.66282   0.67231   0.58742   0.00000  Uiso   1.00
O1233  O     0.58873   0.62647   0.59776   0.00000  Uiso   1.00
O1234  O     0.80671   0.53440   0.56814   0.00000  Uiso   1.00
O1235  O     0.81427   0.79071   0.50000   0.00000  Uiso   1.00
O1236  O     0.67134   0.96643   0.48148   0.00000  Uiso   1.00
O1237  O     0.70312   0.52965   0.42610   0.00000  Uiso   1.00
O1238  O     0.83242   0.96581   0.51975   0.00000  Uiso   1.00
O1239  O     0.68573   0.70928   0.50000   0.00000  Uiso   1.00
O1240  O     0.75000   0.79071   0.42946   0.00000  Uiso   1.00
O1241  O     0.75000   0.70929   0.57054   0.00000  Uiso   1.00
O1242  O     0.75000   0.79071   0.57054   0.00000  Uiso   1.00
O1243  O     0.75000   0.70929   0.42946   0.00000  Uiso   1.00
O1244  O     0.79406   0.63276   0.57415   0.00000  Uiso   1.00
S1245  S     0.61420   0.84401   0.54888   0.00000  Uiso   1.00
S1246  S     0.87658   0.67335   0.42367   0.00000  Uiso   1.00
S1247  S     0.89966   0.85111   0.48899   0.00000  Uiso   1.00
S1248  S     0.62152   0.65541   0.55908   0.00000  Uiso   1.00
C1249  C     0.16578   0.24941   0.84103   0.00000  Uiso   1.00
C1250  C     0.29029   0.44544   0.84637   0.00000  Uiso   1.00
C1251  C     0.24950   0.24997   0.74018   0.00000  Uiso   1.00
C1252  C     0.25015   0.25004   0.92648   0.00000  Uiso   1.00
C1253  C     0.25312   0.02767   0.83234   0.00000  Uiso   1.00
C1254  C     0.25209   0.47271   0.83345   0.00000  Uiso   1.00
C1255  C     0.24958   0.24999   0.68845   0.00000  Uiso   1.00
C1256  C     0.24982   0.25006   0.97818   0.00000  Uiso   1.00
C1257  C     0.04967   0.28899   0.83778   0.00000  Uiso   1.00
C1258  C     0.45302   0.21418   0.80174   0.00000  Uiso   1.00
C1259  C     0.45207   0.28212   0.85746   0.00000  Uiso   1.00
C1260  C     0.33476   0.25060   0.82774   0.00000  Uiso   1.00
C1261  C     0.04698   0.20450   0.86051   0.00000  Uiso   1.00
C1262  C     0.09449   0.29093   0.85190   0.00000  Uiso   1.00
C1263  C     0.40592   0.21460   0.79733   0.00000  Uiso   1.00
C1264  C     0.40900   0.29095   0.84020   0.00000  Uiso   1.00
C1265  C     0.09412   0.20511   0.86468   0.00000  Uiso   1.00
C1266  C     0.11811   0.24819   0.85370   0.00000  Uiso   1.00
C1267  C     0.38336   0.25237   0.82016   0.00000  Uiso   1.00
C1268  C     0.02490   0.24604   0.84348   0.00000  Uiso   1.00
C1269  C     0.47595   0.24667   0.83446   0.00000  Uiso   1.00
C1270  C     0.34102   0.13260   0.90888   0.00000  Uiso   1.00
C1271  C     0.27528   0.10629   0.86848   0.00000  Uiso   1.00
C1272  C     0.35900   0.17554   0.93861   0.00000  Uiso   1.00
C1273  C     0.18556   0.37762   0.73780   0.00000  Uiso   1.00
C1274  C     0.15548   0.34168   0.70964   0.00000  Uiso   1.00
C1275  C     0.16348   0.12478   0.75222   0.00000  Uiso   1.00
C1276  C     0.14872   0.12927   0.69875   0.00000  Uiso   1.00
C1277  C     0.30746   0.38217   0.93362   0.00000  Uiso   1.00
C1278  C     0.33751   0.35225   0.96695   0.00000  Uiso   1.00
C1279  C     0.03256   0.33361   0.77014   0.00000  Uiso   1.00
C1280  C     0.03716   0.38603   0.75506   0.00000  Uiso   1.00
C1281  C     0.49837   0.19969   0.73905   0.00000  Uiso   1.00
C1282  C     0.21510   0.39545   0.81335   0.00000  Uiso   1.00
C1283  C     0.02939   0.16294   0.71942   0.00000  Uiso   1.00
C1284  C     0.45748   0.30126   0.93786   0.00000  Uiso   1.00
C1285  C     0.47480   0.33872   0.97469   0.00000  Uiso   1.00
C1286  C     0.49904   0.16535   0.91065   0.00000  Uiso   1.00
C1287  C     0.47977   0.11611   0.92275   0.00000  Uiso   1.00
C1288  C     0.28640   0.02346   0.94522   0.00000  Uiso   1.00
C1289  C     0.32284   0.01378   0.98433   0.00000  Uiso   1.00
C1290  C     0.15740   0.48368   0.86008   0.00000  Uiso   1.00
C1291  C     0.11021   0.00150   0.85318   0.00000  Uiso   1.00
C1292  C     0.22922   0.01487   0.72134   0.00000  Uiso   1.00
C1293  C     0.22750   0.10397   0.79677   0.00000  Uiso   1.00
C1294  C     0.19832   0.49860   0.67828   0.00000  Uiso   1.00
C1295  C     0.34803   0.48026   0.80742   0.00000  Uiso   1.00
C1296  C     0.39412   0.00309   0.81523   0.00000  Uiso   1.00
C1297  C     0.28488   0.39567   0.85507   0.00000  Uiso   1.00
C1298  C     0.27709   0.05551   0.86877   0.00000  Uiso   1.00
C1299  C     0.21239   0.44551   0.82151   0.00000  Uiso   1.00
C1300  C     0.22902   0.05326   0.79529   0.00000  Uiso   1.00
Cu1301 Cu    0.25000   0.29821   0.83333   0.00000  Uiso   1.00
Cu1302 Cu    0.25000   0.20178   0.83333   0.00000  Uiso   1.00
H1303  H     0.35459   0.13474   0.87215   0.00000  Uiso   1.00
H1304  H     0.16182   0.30469   0.72271   0.00000  Uiso   1.00
H1305  H     0.14915   0.15503   0.77183   0.00000  Uiso   1.00
H1306  H     0.14921   0.09072   0.76638   0.00000  Uiso   1.00
H1307  H     0.16580   0.10276   0.67653   0.00000  Uiso   1.00
H1308  H     0.11240   0.12248   0.69425   0.00000  Uiso   1.00
H1309  H     0.15676   0.16595   0.68558   0.00000  Uiso   1.00
H1310  H     0.27232   0.37386   0.94216   0.00000  Uiso   1.00
H1311  H     0.31505   0.42052   0.94186   0.00000  Uiso   1.00
H1312  H     0.37265   0.36384   0.96335   0.00000  Uiso   1.00
H1313  H     0.32875   0.35732   0.67214   0.00000  Uiso   1.00
H1314  H     0.35371   0.10011   0.92747   0.00000  Uiso   1.00
H1315  H     0.33353   0.31364   0.95729   0.00000  Uiso   1.00
H1316  H     0.00160   0.31794   0.75259   0.00000  Uiso   1.00
H1317  H     0.06118   0.31423   0.75570   0.00000  Uiso   1.00
H1318  H     0.07002   0.40109   0.76785   0.00000  Uiso   1.00
H1319  H     0.03448   0.38897   0.71468   0.00000  Uiso   1.00
H1320  H     0.01094   0.40772   0.77071   0.00000  Uiso   1.00
H1321  H     0.01904   0.23163   0.75019   0.00000  Uiso   1.00
H1322  H     0.47438   0.21051   0.70921   0.00000  Uiso   1.00
H1323  H     0.00999   0.13173   0.70385   0.00000  Uiso   1.00
H1324  H     0.04931   0.17949   0.69061   0.00000  Uiso   1.00
H1325  H     0.34597   0.17389   0.97565   0.00000  Uiso   1.00
H1326  H     0.05238   0.15047   0.74940   0.00000  Uiso   1.00
H1327  H     0.46986   0.26566   0.94982   0.00000  Uiso   1.00
H1328  H     0.42052   0.30057   0.93796   0.00000  Uiso   1.00
H1329  H     0.46517   0.37507   0.96228   0.00000  Uiso   1.00
H1330  H     0.46037   0.33157   0.67720   0.00000  Uiso   1.00
H1331  H     0.01153   0.33725   0.97888   0.00000  Uiso   1.00
H1332  H     0.47066   0.18953   0.90529   0.00000  Uiso   1.00
H1333  H     0.02029   0.17856   0.94237   0.00000  Uiso   1.00
H1334  H     0.00669   0.08998   0.92858   0.00000  Uiso   1.00
H1335  H     0.46098   0.11828   0.95654   0.00000  Uiso   1.00
H1336  H     0.39581   0.17520   0.94162   0.00000  Uiso   1.00
H1337  H     0.45682   0.10328   0.89231   0.00000  Uiso   1.00
H1338  H     0.17576   0.37176   0.91631   0.00000  Uiso   1.00
H1339  H     0.39303   0.12228   0.70149   0.00000  Uiso   1.00
H1340  H     0.35823   0.33890   0.75682   0.00000  Uiso   1.00
H1341  H     0.10249   0.09492   0.93659   0.00000  Uiso   1.00
H1342  H     0.26609   0.05350   0.95791   0.00000  Uiso   1.00
H1343  H     0.26519   0.49066   0.93967   0.00000  Uiso   1.00
H1344  H     0.33676   0.04819   0.99952   0.00000  Uiso   1.00
H1345  H     0.30954   0.49208   0.68102   0.00000  Uiso   1.00
H1346  H     0.35015   0.49364   0.96863   0.00000  Uiso   1.00
H1347  H     0.34857   0.20963   0.92141   0.00000  Uiso   1.00
H1348  H     0.17862   0.01426   0.87397   0.00000  Uiso   1.00
H1349  H     0.15793   0.45501   0.88831   0.00000  Uiso   1.00
H1350  H     0.08723   0.47187   0.84062   0.00000  Uiso   1.00
H1351  H     0.09905   0.01570   0.88831   0.00000  Uiso   1.00
H1352  H     0.10894   0.03049   0.82548   0.00000  Uiso   1.00
H1353  H     0.25129   0.04468   0.70924   0.00000  Uiso   1.00
H1354  H     0.24967   0.48409   0.73355   0.00000  Uiso   1.00
H1355  H     0.19375   0.02810   0.98488   0.00000  Uiso   1.00
H1356  H     0.21226   0.46736   0.99302   0.00000  Uiso   1.00
H1357  H     0.16504   0.48778   0.69070   0.00000  Uiso   1.00
H1358  H     0.22032   0.37225   0.72697   0.00000  Uiso   1.00
H1359  H     0.32636   0.00728   0.78929   0.00000  Uiso   1.00
H1360  H     0.35020   0.44898   0.78250   0.00000  Uiso   1.00
H1361  H     0.41729   0.47687   0.83220   0.00000  Uiso   1.00
H1362  H     0.40674   0.01466   0.77960   0.00000  Uiso   1.00
H1363  H     0.39272   0.03493   0.83951   0.00000  Uiso   1.00
H1364  H     0.17528   0.41418   0.72729   0.00000  Uiso   1.00
H1365  H     0.12024   0.35010   0.71445   0.00000  Uiso   1.00
H1366  H     0.16192   0.34368   0.67024   0.00000  Uiso   1.00
N1367  N     0.25000   0.12934   0.83333   0.00000  Uiso   1.00
N1368  N     0.25000   0.37065   0.83333   0.00000  Uiso   1.00
O1369  O     0.18573   0.29071   0.83334   0.00000  Uiso   1.00
O1370  O     0.18097   0.37091   0.78830   0.00000  Uiso   1.00
O1371  O     0.21033   0.12833   0.75643   0.00000  Uiso   1.00
O1372  O     0.31532   0.37171   0.88436   0.00000  Uiso   1.00
O1373  O     0.02982   0.33065   0.82148   0.00000  Uiso   1.00
O1374  O     0.47586   0.17909   0.77831   0.00000  Uiso   1.00
O1375  O     0.47288   0.31293   0.89139   0.00000  Uiso   1.00
O1376  O     0.02352   0.16192   0.86800   0.00000  Uiso   1.00
O1377  O     0.11444   0.38402   0.84591   0.00000  Uiso   1.00
O1378  O     0.08239   0.35606   0.92073   0.00000  Uiso   1.00
O1379  O     0.16496   0.33851   0.90945   0.00000  Uiso   1.00
O1380  O     0.31427   0.20928   0.83333   0.00000  Uiso   1.00
O1381  O     0.35769   0.13236   0.78540   0.00000  Uiso   1.00
O1382  O     0.33925   0.19880   0.73071   0.00000  Uiso   1.00
O1383  O     0.40949   0.15075   0.71524   0.00000  Uiso   1.00
O1384  O     0.39886   0.38230   0.86696   0.00000  Uiso   1.00
O1385  O     0.43785   0.36820   0.79332   0.00000  Uiso   1.00
O1386  O     0.35313   0.35734   0.78689   0.00000  Uiso   1.00
O1387  O     0.13378   0.12064   0.85382   0.00000  Uiso   1.00
O1388  O     0.16282   0.17231   0.92075   0.00000  Uiso   1.00
O1389  O     0.08873   0.12647   0.93109   0.00000  Uiso   1.00
O1390  O     0.30671   0.03440   0.90148   0.00000  Uiso   1.00
O1391  O     0.31427   0.29071   0.83333   0.00000  Uiso   1.00
O1392  O     0.17134   0.46643   0.81481   0.00000  Uiso   1.00
O1393  O     0.20312   0.02965   0.75943   0.00000  Uiso   1.00
O1394  O     0.33242   0.46581   0.85308   0.00000  Uiso   1.00
O1395  O     0.18573   0.20928   0.83334   0.00000  Uiso   1.00
O1396  O     0.25000   0.29071   0.76280   0.00000  Uiso   1.00
O1397  O     0.25000   0.20929   0.90387   0.00000  Uiso   1.00
O1398  O     0.25000   0.29071   0.90387   0.00000  Uiso   1.00
O1399  O     0.25000   0.20929   0.76280   0.00000  Uiso   1.00
O1400  O     0.29406   0.13276   0.90748   0.00000  Uiso   1.00
S1401  S     0.11420   0.34401   0.88221   0.00000  Uiso   1.00
S1402  S     0.37658   0.17335   0.75701   0.00000  Uiso   1.00
S1403  S     0.39966   0.35111   0.82233   0.00000  Uiso   1.00
S1404  S     0.12152   0.15541   0.89241   0.00000  Uiso   1.00
C1405  C     0.66578   0.24941   0.84103   0.00000  Uiso   1.00
C1406  C     0.79029   0.44544   0.84637   0.00000  Uiso   1.00
C1407  C     0.74950   0.24997   0.74018   0.00000  Uiso   1.00
C1408  C     0.75015   0.25004   0.92648   0.00000  Uiso   1.00
C1409  C     0.75312   0.02767   0.83234   0.00000  Uiso   1.00
C1410  C     0.75209   0.47271   0.83345   0.00000  Uiso   1.00
C1411  C     0.74958   0.24999   0.68845   0.00000  Uiso   1.00
C1412  C     0.74982   0.25006   0.97818   0.00000  Uiso   1.00
C1413  C     0.54967   0.28899   0.83778   0.00000  Uiso   1.00
C1414  C     0.95302   0.21418   0.80174   0.00000  Uiso   1.00
C1415  C     0.95207   0.28212   0.85746   0.00000  Uiso   1.00
C1416  C     0.83476   0.25060   0.82774   0.00000  Uiso   1.00
C1417  C     0.54698   0.20450   0.86051   0.00000  Uiso   1.00
C1418  C     0.59449   0.29093   0.85190   0.00000  Uiso   1.00
C1419  C     0.90592   0.21460   0.79733   0.00000  Uiso   1.00
C1420  C     0.90900   0.29095   0.84020   0.00000  Uiso   1.00
C1421  C     0.59412   0.20511   0.86468   0.00000  Uiso   1.00
C1422  C     0.61811   0.24819   0.85370   0.00000  Uiso   1.00
C1423  C     0.88336   0.25237   0.82016   0.00000  Uiso   1.00
C1424  C     0.52490   0.24604   0.84348   0.00000  Uiso   1.00
C1425  C     0.97595   0.24667   0.83446   0.00000  Uiso   1.00
C1426  C     0.84102   0.13260   0.90888   0.00000  Uiso   1.00
C1427  C     0.77528   0.10629   0.86848   0.00000  Uiso   1.00
C1428  C     0.85900   0.17554   0.93861   0.00000  Uiso   1.00
C1429  C     0.68556   0.37762   0.73780   0.00000  Uiso   1.00
C1430  C     0.65548   0.34168   0.70964   0.00000  Uiso   1.00
C1431  C     0.66348   0.12478   0.75222   0.00000  Uiso   1.00
C1432  C     0.64872   0.12927   0.69875   0.00000  Uiso   1.00
C1433  C     0.80746   0.38217   0.93362   0.00000  Uiso   1.00
C1434  C     0.83751   0.35225   0.96695   0.00000  Uiso   1.00
C1435  C     0.53256   0.33361   0.77014   0.00000  Uiso   1.00
C1436  C     0.53716   0.38603   0.75506   0.00000  Uiso   1.00
C1437  C     0.99837   0.19969   0.73905   0.00000  Uiso   1.00
C1438  C     0.71510   0.39545   0.81335   0.00000  Uiso   1.00
C1439  C     0.52939   0.16294   0.71942   0.00000  Uiso   1.00
C1440  C     0.95748   0.30126   0.93786   0.00000  Uiso   1.00
C1441  C     0.97480   0.33872   0.97469   0.00000  Uiso   1.00
C1442  C     0.99904   0.16535   0.91065   0.00000  Uiso   1.00
C1443  C     0.97977   0.11611   0.92275   0.00000  Uiso   1.00
C1444  C     0.78640   0.02346   0.94522   0.00000  Uiso   1.00
C1445  C     0.82284   0.01378   0.98433   0.00000  Uiso   1.00
C1446  C     0.65740   0.48368   0.86008   0.00000  Uiso   1.00
C1447  C     0.61021   0.00150   0.85318   0.00000  Uiso   1.00
C1448  C     0.72922   0.01487   0.72134   0.00000  Uiso   1.00
C1449  C     0.72750   0.10397   0.79677   0.00000  Uiso   1.00
C1450  C     0.69832   0.49860   0.67828   0.00000  Uiso   1.00
C1451  C     0.84803   0.48026   0.80742   0.00000  Uiso   1.00
C1452  C     0.89412   0.00309   0.81523   0.00000  Uiso   1.00
C1453  C     0.78488   0.39567   0.85507   0.00000  Uiso   1.00
C1454  C     0.77709   0.05551   0.86877   0.00000  Uiso   1.00
C1455  C     0.71239   0.44551   0.82151   0.00000  Uiso   1.00
C1456  C     0.72902   0.05326   0.79529   0.00000  Uiso   1.00
Cu1457 Cu    0.75000   0.29821   0.83333   0.00000  Uiso   1.00
Cu1458 Cu    0.75000   0.20178   0.83333   0.00000  Uiso   1.00
H1459  H     0.85459   0.13474   0.87215   0.00000  Uiso   1.00
H1460  H     0.66182   0.30469   0.72271   0.00000  Uiso   1.00
H1461  H     0.64915   0.15503   0.77183   0.00000  Uiso   1.00
H1462  H     0.64921   0.09072   0.76638   0.00000  Uiso   1.00
H1463  H     0.66580   0.10276   0.67653   0.00000  Uiso   1.00
H1464  H     0.61240   0.12248   0.69425   0.00000  Uiso   1.00
H1465  H     0.65676   0.16595   0.68558   0.00000  Uiso   1.00
H1466  H     0.77232   0.37386   0.94216   0.00000  Uiso   1.00
H1467  H     0.81505   0.42052   0.94186   0.00000  Uiso   1.00
H1468  H     0.87265   0.36384   0.96335   0.00000  Uiso   1.00
H1469  H     0.82875   0.35732   0.67214   0.00000  Uiso   1.00
H1470  H     0.85371   0.10011   0.92747   0.00000  Uiso   1.00
H1471  H     0.83353   0.31364   0.95729   0.00000  Uiso   1.00
H1472  H     0.50160   0.31794   0.75259   0.00000  Uiso   1.00
H1473  H     0.56118   0.31423   0.75570   0.00000  Uiso   1.00
H1474  H     0.57002   0.40109   0.76785   0.00000  Uiso   1.00
H1475  H     0.53448   0.38897   0.71468   0.00000  Uiso   1.00
H1476  H     0.51094   0.40772   0.77071   0.00000  Uiso   1.00
H1477  H     0.51904   0.23163   0.75019   0.00000  Uiso   1.00
H1478  H     0.97438   0.21051   0.70921   0.00000  Uiso   1.00
H1479  H     0.50999   0.13173   0.70385   0.00000  Uiso   1.00
H1480  H     0.54931   0.17949   0.69061   0.00000  Uiso   1.00
H1481  H     0.84597   0.17389   0.97565   0.00000  Uiso   1.00
H1482  H     0.55238   0.15047   0.74940   0.00000  Uiso   1.00
H1483  H     0.96986   0.26566   0.94982   0.00000  Uiso   1.00
H1484  H     0.92052   0.30057   0.93796   0.00000  Uiso   1.00
H1485  H     0.96517   0.37507   0.96228   0.00000  Uiso   1.00
H1486  H     0.96037   0.33157   0.67720   0.00000  Uiso   1.00
H1487  H     0.51153   0.33725   0.97888   0.00000  Uiso   1.00
H1488  H     0.97066   0.18953   0.90529   0.00000  Uiso   1.00
H1489  H     0.52029   0.17856   0.94237   0.00000  Uiso   1.00
H1490  H     0.50669   0.08998   0.92858   0.00000  Uiso   1.00
H1491  H     0.96098   0.11828   0.95654   0.00000  Uiso   1.00
H1492  H     0.89581   0.17520   0.94162   0.00000  Uiso   1.00
H1493  H     0.95682   0.10328   0.89231   0.00000  Uiso   1.00
H1494  H     0.67576   0.37176   0.91631   0.00000  Uiso   1.00
H1495  H     0.89303   0.12228   0.70149   0.00000  Uiso   1.00
H1496  H     0.85823   0.33890   0.75682   0.00000  Uiso   1.00
H1497  H     0.60249   0.09492   0.93659   0.00000  Uiso   1.00
H1498  H     0.76609   0.05350   0.95791   0.00000  Uiso   1.00
H1499  H     0.76519   0.49066   0.93967   0.00000  Uiso   1.00
H1500  H     0.83676   0.04819   0.99952   0.00000  Uiso   1.00
H1501  H     0.80954   0.49208   0.68102   0.00000  Uiso   1.00
H1502  H     0.85015   0.49364   0.96863   0.00000  Uiso   1.00
H1503  H     0.84857   0.20963   0.92141   0.00000  Uiso   1.00
H1504  H     0.67862   0.01426   0.87397   0.00000  Uiso   1.00
H1505  H     0.65793   0.45501   0.88831   0.00000  Uiso   1.00
H1506  H     0.58723   0.47187   0.84062   0.00000  Uiso   1.00
H1507  H     0.59905   0.01570   0.88831   0.00000  Uiso   1.00
H1508  H     0.60894   0.03049   0.82548   0.00000  Uiso   1.00
H1509  H     0.75129   0.04468   0.70924   0.00000  Uiso   1.00
H1510  H     0.74967   0.48409   0.73355   0.00000  Uiso   1.00
H1511  H     0.69375   0.02810   0.98488   0.00000  Uiso   1.00
H1512  H     0.71226   0.46736   0.99302   0.00000  Uiso   1.00
H1513  H     0.66504   0.48778   0.69070   0.00000  Uiso   1.00
H1514  H     0.72032   0.37225   0.72697   0.00000  Uiso   1.00
H1515  H     0.82636   0.00728   0.78929   0.00000  Uiso   1.00
H1516  H     0.85020   0.44898   0.78250   0.00000  Uiso   1.00
H1517  H     0.91729   0.47687   0.83220   0.00000  Uiso   1.00
H1518  H     0.90674   0.01466   0.77960   0.00000  Uiso   1.00
H1519  H     0.89272   0.03493   0.83951   0.00000  Uiso   1.00
H1520  H     0.67528   0.41418   0.72729   0.00000  Uiso   1.00
H1521  H     0.62024   0.35010   0.71445   0.00000  Uiso   1.00
H1522  H     0.66192   0.34368   0.67024   0.00000  Uiso   1.00
N1523  N     0.75000   0.12934   0.83333   0.00000  Uiso   1.00
N1524  N     0.75000   0.37065   0.83333   0.00000  Uiso   1.00
O1525  O     0.68573   0.29071   0.83334   0.00000  Uiso   1.00
O1526  O     0.68097   0.37091   0.78830   0.00000  Uiso   1.00
O1527  O     0.71033   0.12833   0.75643   0.00000  Uiso   1.00
O1528  O     0.81532   0.37171   0.88436   0.00000  Uiso   1.00
O1529  O     0.52982   0.33065   0.82148   0.00000  Uiso   1.00
O1530  O     0.97586   0.17909   0.77831   0.00000  Uiso   1.00
O1531  O     0.97288   0.31293   0.89139   0.00000  Uiso   1.00
O1532  O     0.52352   0.16192   0.86800   0.00000  Uiso   1.00
O1533  O     0.61444   0.38402   0.84591   0.00000  Uiso   1.00
O1534  O     0.58239   0.35606   0.92073   0.00000  Uiso   1.00
O1535  O     0.66496   0.33851   0.90945   0.00000  Uiso   1.00
O1536  O     0.81427   0.20928   0.83333   0.00000  Uiso   1.00
O1537  O     0.85769   0.13236   0.78540   0.00000  Uiso   1.00
O1538  O     0.83925   0.19880   0.73071   0.00000  Uiso   1.00
O1539  O     0.90949   0.15075   0.71524   0.00000  Uiso   1.00
O1540  O     0.89886   0.38230   0.86696   0.00000  Uiso   1.00
O1541  O     0.93785   0.36820   0.79332   0.00000  Uiso   1.00
O1542  O     0.85313   0.35734   0.78689   0.00000  Uiso   1.00
O1543  O     0.63378   0.12064   0.85382   0.00000  Uiso   1.00
O1544  O     0.66282   0.17231   0.92075   0.00000  Uiso   1.00
O1545  O     0.58873   0.12647   0.93109   0.00000  Uiso   1.00
O1546  O     0.80671   0.03440   0.90148   0.00000  Uiso   1.00
O1547  O     0.81427   0.29071   0.83333   0.00000  Uiso   1.00
O1548  O     0.67134   0.46643   0.81481   0.00000  Uiso   1.00
O1549  O     0.70312   0.02965   0.75943   0.00000  Uiso   1.00
O1550  O     0.83242   0.46581   0.85308   0.00000  Uiso   1.00
O1551  O     0.68573   0.20928   0.83334   0.00000  Uiso   1.00
O1552  O     0.75000   0.29071   0.76280   0.00000  Uiso   1.00
O1553  O     0.75000   0.20929   0.90387   0.00000  Uiso   1.00
O1554  O     0.75000   0.29071   0.90387   0.00000  Uiso   1.00
O1555  O     0.75000   0.20929   0.76280   0.00000  Uiso   1.00
O1556  O     0.79406   0.13276   0.90748   0.00000  Uiso   1.00
S1557  S     0.61420   0.34401   0.88221   0.00000  Uiso   1.00
S1558  S     0.87658   0.17335   0.75701   0.00000  Uiso   1.00
S1559  S     0.89966   0.35111   0.82233   0.00000  Uiso   1.00
S1560  S     0.62152   0.15541   0.89241   0.00000  Uiso   1.00
C1561  C     0.16578   0.74941   0.84103   0.00000  Uiso   1.00
C1562  C     0.29029   0.94544   0.84637   0.00000  Uiso   1.00
C1563  C     0.24950   0.74997   0.74018   0.00000  Uiso   1.00
C1564  C     0.25015   0.75004   0.92648   0.00000  Uiso   1.00
C1565  C     0.25312   0.52767   0.83234   0.00000  Uiso   1.00
C1566  C     0.25209   0.97271   0.83345   0.00000  Uiso   1.00
C1567  C     0.24958   0.74999   0.68845   0.00000  Uiso   1.00
C1568  C     0.24982   0.75006   0.97818   0.00000  Uiso   1.00
C1569  C     0.04967   0.78899   0.83778   0.00000  Uiso   1.00
C1570  C     0.45302   0.71418   0.80174   0.00000  Uiso   1.00
C1571  C     0.45207   0.78212   0.85746   0.00000  Uiso   1.00
C1572  C     0.33476   0.75060   0.82774   0.00000  Uiso   1.00
C1573  C     0.04698   0.70450   0.86051   0.00000  Uiso   1.00
C1574  C     0.09449   0.79093   0.85190   0.00000  Uiso   1.00
C1575  C     0.40592   0.71460   0.79733   0.00000  Uiso   1.00
C1576  C     0.40900   0.79095   0.84020   0.00000  Uiso   1.00
C1577  C     0.09412   0.70511   0.86468   0.00000  Uiso   1.00
C1578  C     0.11811   0.74819   0.85370   0.00000  Uiso   1.00
C1579  C     0.38336   0.75237   0.82016   0.00000  Uiso   1.00
C1580  C     0.02490   0.74604   0.84348   0.00000  Uiso   1.00
C1581  C     0.47595   0.74667   0.83446   0.00000  Uiso   1.00
C1582  C     0.34102   0.63260   0.90888   0.00000  Uiso   1.00
C1583  C     0.27528   0.60629   0.86848   0.00000  Uiso   1.00
C1584  C     0.35900   0.67554   0.93861   0.00000  Uiso   1.00
C1585  C     0.18556   0.87762   0.73780   0.00000  Uiso   1.00
C1586  C     0.15548   0.84168   0.70964   0.00000  Uiso   1.00
C1587  C     0.16348   0.62478   0.75222   0.00000  Uiso   1.00
C1588  C     0.14872   0.62927   0.69875   0.00000  Uiso   1.00
C1589  C     0.30746   0.88217   0.93362   0.00000  Uiso   1.00
C1590  C     0.33751   0.85225   0.96695   0.00000  Uiso   1.00
C1591  C     0.03256   0.83361   0.77014   0.00000  Uiso   1.00
C1592  C     0.03716   0.88603   0.75506   0.00000  Uiso   1.00
C1593  C     0.49837   0.69969   0.73905   0.00000  Uiso   1.00
C1594  C     0.21510   0.89545   0.81335   0.00000  Uiso   1.00
C1595  C     0.02939   0.66294   0.71942   0.00000  Uiso   1.00
C1596  C     0.45748   0.80126   0.93786   0.00000  Uiso   1.00
C1597  C     0.47480   0.83872   0.97469   0.00000  Uiso   1.00
C1598  C     0.49904   0.66535   0.91065   0.00000  Uiso   1.00
C1599  C     0.47977   0.61611   0.92275   0.00000  Uiso   1.00
C1600  C     0.28640   0.52346   0.94522   0.00000  Uiso   1.00
C1601  C     0.32284   0.51378   0.98433   0.00000  Uiso   1.00
C1602  C     0.15740   0.98368   0.86008   0.00000  Uiso   1.00
C1603  C     0.11021   0.50150   0.85318   0.00000  Uiso   1.00
C1604  C     0.22922   0.51487   0.72134   0.00000  Uiso   1.00
C1605  C     0.22750   0.60397   0.79677   0.00000  Uiso   1.00
C1606  C     0.19832   0.99860   0.67828   0.00000  Uiso   1.00
C1607  C     0.34803   0.98026   0.80742   0.00000  Uiso   1.00
C1608  C     0.39412   0.50309   0.81523   0.00000  Uiso   1.00
C1609  C     0.28488   0.89567   0.85507   0.00000  Uiso   1.00
C1610  C     0.27709   0.55551   0.86877   0.00000  Uiso   1.00
C1611  C     0.21239   0.94551   0.82151   0.00000  Uiso   1.00
C1612  C     0.22902   0.55326   0.79529   0.00000  Uiso   1.00
Cu1613 Cu    0.25000   0.79821   0.83333   0.00000  Uiso   1.00
Cu1614 Cu    0.25000   0.70178   0.83333   0.00000  Uiso   1.00
H1615  H     0.35459   0.63474   0.87215   0.00000  Uiso   1.00
H1616  H     0.16182   0.80469   0.72271   0.00000  Uiso   1.00
H1617  H     0.14915   0.65503   0.77183   0.00000  Uiso   1.00
H1618  H     0.14921   0.59072   0.76638   0.00000  Uiso   1.00
H1619  H     0.16580   0.60276   0.67653   0.00000  Uiso   1.00
H1620  H     0.11240   0.62248   0.69425   0.00000  Uiso   1.00
H1621  H     0.15676   0.66595   0.68558   0.00000  Uiso   1.00
H1622  H     0.27232   0.87386   0.94216   0.00000  Uiso   1.00
H1623  H     0.31505   0.92052   0.94186   0.00000  Uiso   1.00
H1624  H     0.37265   0.86384   0.96335   0.00000  Uiso   1.00
H1625  H     0.32875   0.85732   0.67214   0.00000  Uiso   1.00
H1626  H     0.35371   0.60011   0.92747   0.00000  Uiso   1.00
H1627  H     0.33353   0.81364   0.95729   0.00000  Uiso   1.00
H1628  H     0.00160   0.81794   0.75259   0.00000  Uiso   1.00
H1629  H     0.06118   0.81423   0.75570   0.00000  Uiso   1.00
H1630  H     0.07002   0.90109   0.76785   0.00000  Uiso   1.00
H1631  H     0.03448   0.88897   0.71468   0.00000  Uiso   1.00
H1632  H     0.01094   0.90772   0.77071   0.00000  Uiso   1.00
H1633  H     0.01904   0.73163   0.75019   0.00000  Uiso   1.00
H1634  H     0.47438   0.71051   0.70921   0.00000  Uiso   1.00
H1635  H     0.00999   0.63173   0.70385   0.00000  Uiso   1.00
H1636  H     0.04931   0.67949   0.69061   0.00000  Uiso   1.00
H1637  H     0.34597   0.67389   0.97565   0.00000  Uiso   1.00
H1638  H     0.05238   0.65047   0.74940   0.00000  Uiso   1.00
H1639  H     0.46986   0.76566   0.94982   0.00000  Uiso   1.00
H1640  H     0.42052   0.80057   0.93796   0.00000  Uiso   1.00
H1641  H     0.46517   0.87507   0.96228   0.00000  Uiso   1.00
H1642  H     0.46037   0.83157   0.67720   0.00000  Uiso   1.00
H1643  H     0.01153   0.83725   0.97888   0.00000  Uiso   1.00
H1644  H     0.47066   0.68953   0.90529   0.00000  Uiso   1.00
H1645  H     0.02029   0.67856   0.94237   0.00000  Uiso   1.00
H1646  H     0.00669   0.58998   0.92858   0.00000  Uiso   1.00
H1647  H     0.46098   0.61828   0.95654   0.00000  Uiso   1.00
H1648  H     0.39581   0.67520   0.94162   0.00000  Uiso   1.00
H1649  H     0.45682   0.60328   0.89231   0.00000  Uiso   1.00
H1650  H     0.17576   0.87176   0.91631   0.00000  Uiso   1.00
H1651  H     0.39303   0.62228   0.70149   0.00000  Uiso   1.00
H1652  H     0.35823   0.83890   0.75682   0.00000  Uiso   1.00
H1653  H     0.10249   0.59492   0.93659   0.00000  Uiso   1.00
H1654  H     0.26609   0.55350   0.95791   0.00000  Uiso   1.00
H1655  H     0.26519   0.99066   0.93967   0.00000  Uiso   1.00
H1656  H     0.33676   0.54819   0.99952   0.00000  Uiso   1.00
H1657  H     0.30954   0.99208   0.68102   0.00000  Uiso   1.00
H1658  H     0.35015   0.99364   0.96863   0.00000  Uiso   1.00
H1659  H     0.34857   0.70963   0.92141   0.00000  Uiso   1.00
H1660  H     0.17862   0.51426   0.87397   0.00000  Uiso   1.00
H1661  H     0.15793   0.95501   0.88831   0.00000  Uiso   1.00
H1662  H     0.08723   0.97187   0.84062   0.00000  Uiso   1.00
H1663  H     0.09905   0.51570   0.88831   0.00000  Uiso   1.00
H1664  H     0.10894   0.53049   0.82548   0.00000  Uiso   1.00
H1665  H     0.25129   0.54468   0.70924   0.00000  Uiso   1.00
H1666  H     0.24967   0.98409   0.73355   0.00000  Uiso   1.00
H1667  H     0.19375   0.52810   0.98488   0.00000  Uiso   1.00
H1668  H     0.21226   0.96736   0.99302   0.00000  Uiso   1.00
H1669  H     0.16504   0.98778   0.69070   0.00000  Uiso   1.00
H1670  H     0.22032   0.87225   0.72697   0.00000  Uiso   1.00
H1671  H     0.32636   0.50728   0.78929   0.00000  Uiso   1.00
H1672  H     0.35020   0.94898   0.78250   0.00000  Uiso   1.00
H1673  H     0.41729   0.97687   0.83220   0.00000  Uiso   1.00
H1674  H     0.40674   0.51466   0.77960   0.00000  Uiso   1.00
H1675  H     0.39272   0.53493   0.83951   0.00000  Uiso   1.00
H1676  H     0.17528   0.91418   0.72729   0.00000  Uiso   1.00
H1677  H     0.12024   0.85010   0.71445   0.00000  Uiso   1.00
H1678  H     0.16192   0.84368   0.67024   0.00000  Uiso   1.00
N1679  N     0.25000   0.62934   0.83333   0.00000  Uiso   1.00
N1680  N     0.25000   0.87065   0.83333   0.00000  Uiso   1.00
O1681  O     0.18573   0.79071   0.83334   0.00000  Uiso   1.00
O1682  O     0.18097   0.87091   0.78830   0.00000  Uiso   1.00
O1683  O     0.21033   0.62833   0.75643   0.00000  Uiso   1.00
O1684  O     0.31532   0.87171   0.88436   0.00000  Uiso   1.00
O1685  O     0.02982   0.83065   0.82148   0.00000  Uiso   1.00
O1686  O     0.47586   0.67909   0.77831   0.00000  Uiso   1.00
O1687  O     0.47288   0.81293   0.89139   0.00000  Uiso   1.00
O1688  O     0.02352   0.66192   0.86800   0.00000  Uiso   1.00
O1689  O     0.11444   0.88402   0.84591   0.00000  Uiso   1.00
O1690  O     0.08239   0.85606   0.92073   0.00000  Uiso   1.00
O1691  O     0.16496   0.83851   0.90945   0.00000  Uiso   1.00
O1692  O     0.31427   0.70928   0.83333   0.00000  Uiso   1.00
O1693  O     0.35769   0.63236   0.78540   0.00000  Uiso   1.00
O1694  O     0.33925   0.69880   0.73071   0.00000  Uiso   1.00
O1695  O     0.40949   0.65075   0.71524   0.00000  Uiso   1.00
O1696  O     0.39886   0.88230   0.86696   0.00000  Uiso   1.00
O1697  O     0.43785   0.86820   0.79332   0.00000  Uiso   1.00
O1698  O     0.35313   0.85734   0.78689   0.00000  Uiso   1.00
O1699  O     0.13378   0.62064   0.85382   0.00000  Uiso   1.00
O1700  O     0.16282   0.67231   0.92075   0.00000  Uiso   1.00
O1701  O     0.08873   0.62647   0.93109   0.00000  Uiso   1.00
O1702  O     0.30671   0.53440   0.90148   0.00000  Uiso   1.00
O1703  O     0.31427   0.79071   0.83333   0.00000  Uiso   1.00
O1704  O     0.17134   0.96643   0.81481   0.00000  Uiso   1.00
O1705  O     0.20312   0.52965   0.75943   0.00000  Uiso   1.00
O1706  O     0.33242   0.96581   0.85308   0.00000  Uiso   1.00
O1707  O     0.18573   0.70928   0.83334   0.00000  Uiso   1.00
O1708  O     0.25000   0.79071   0.76280   0.00000  Uiso   1.00
O1709  O     0.25000   0.70929   0.90387   0.00000  Uiso   1.00
O1710  O     0.25000   0.79071   0.90387   0.00000  Uiso   1.00
O1711  O     0.25000   0.70929   0.76280   0.00000  Uiso   1.00
O1712  O     0.29406   0.63276   0.90748   0.00000  Uiso   1.00
S1713  S     0.11420   0.84401   0.88221   0.00000  Uiso   1.00
S1714  S     0.37658   0.67335   0.75701   0.00000  Uiso   1.00
S1715  S     0.39966   0.85111   0.82233   0.00000  Uiso   1.00
S1716  S     0.12152   0.65541   0.89241   0.00000  Uiso   1.00
C1717  C     0.66578   0.74941   0.84103   0.00000  Uiso   1.00
C1718  C     0.79029   0.94544   0.84637   0.00000  Uiso   1.00
C1719  C     0.74950   0.74997   0.74018   0.00000  Uiso   1.00
C1720  C     0.75015   0.75004   0.92648   0.00000  Uiso   1.00
C1721  C     0.75312   0.52767   0.83234   0.00000  Uiso   1.00
C1722  C     0.75209   0.97271   0.83345   0.00000  Uiso   1.00
C1723  C     0.74958   0.74999   0.68845   0.00000  Uiso   1.00
C1724  C     0.74982   0.75006   0.97818   0.00000  Uiso   1.00
C1725  C     0.54967   0.78899   0.83778   0.00000  Uiso   1.00
C1726  C     0.95302   0.71418   0.80174   0.00000  Uiso   1.00
C1727  C     0.95207   0.78212   0.85746   0.00000  Uiso   1.00
C1728  C     0.83476   0.75060   0.82774   0.00000  Uiso   1.00
C1729  C     0.54698   0.70450   0.86051   0.00000  Uiso   1.00
C1730  C     0.59449   0.79093   0.85190   0.00000  Uiso   1.00
C1731  C     0.90592   0.71460   0.79733   0.00000  Uiso   1.00
C1732  C     0.90900   0.79095   0.84020   0.00000  Uiso   1.00
C1733  C     0.59412   0.70511   0.86468   0.00000  Uiso   1.00
C1734  C     0.61811   0.74819   0.85370   0.00000  Uiso   1.00
C1735  C     0.88336   0.75237   0.82016   0.00000  Uiso   1.00
C1736  C     0.52490   0.74604   0.84348   0.00000  Uiso   1.00
C1737  C     0.97595   0.74667   0.83446   0.00000  Uiso   1.00
C1738  C     0.84102   0.63260   0.90888   0.00000  Uiso   1.00
C1739  C     0.77528   0.60629   0.86848   0.00000  Uiso   1.00
C1740  C     0.85900   0.67554   0.93861   0.00000  Uiso   1.00
C1741  C     0.68556   0.87762   0.73780   0.00000  Uiso   1.00
C1742  C     0.65548   0.84168   0.70964   0.00000  Uiso   1.00
C1743  C     0.66348   0.62478   0.75222   0.00000  Uiso   1.00
C1744  C     0.64872   0.62927   0.69875   0.00000  Uiso   1.00
C1745  C     0.80746   0.88217   0.93362   0.00000  Uiso   1.00
C1746  C     0.83751   0.85225   0.96695   0.00000  Uiso   1.00
C1747  C     0.53256   0.83361   0.77014   0.00000  Uiso   1.00
C1748  C     0.53716   0.88603   0.75506   0.00000  Uiso   1.00
C1749  C     0.99837   0.69969   0.73905   0.00000  Uiso   1.00
C1750  C     0.71510   0.89545   0.81335   0.00000  Uiso   1.00
C1751  C     0.52939   0.66294   0.71942   0.00000  Uiso   1.00
C1752  C     0.95748   0.80126   0.93786   0.00000  Uiso   1.00
C1753  C     0.97480   0.83872   0.97469   0.00000  Uiso   1.00
C1754  C     0.99904   0.66535   0.91065   0.00000  Uiso   1.00
C1755  C     0.97977   0.61611   0.92275   0.00000  Uiso   1.00
C1756  C     0.78640   0.52346   0.94522   0.00000  Uiso   1.00
C1757  C     0.82284   0.51378   0.98433   0.00000  Uiso   1.00
C1758  C     0.65740   0.98368   0.86008   0.00000  Uiso   1.00
C1759  C     0.61021   0.50150   0.85318   0.00000  Uiso   1.00
C1760  C     0.72922   0.51487   0.72134   0.00000  Uiso   1.00
C1761  C     0.72750   0.60397   0.79677   0.00000  Uiso   1.00
C1762  C     0.69832   0.99860   0.67828   0.00000  Uiso   1.00
C1763  C     0.84803   0.98026   0.80742   0.00000  Uiso   1.00
C1764  C     0.89412   0.50309   0.81523   0.00000  Uiso   1.00
C1765  C     0.78488   0.89567   0.85507   0.00000  Uiso   1.00
C1766  C     0.77709   0.55551   0.86877   0.00000  Uiso   1.00
C1767  C     0.71239   0.94551   0.82151   0.00000  Uiso   1.00
C1768  C     0.72902   0.55326   0.79529   0.00000  Uiso   1.00
Cu1769 Cu    0.75000   0.79821   0.83333   0.00000  Uiso   1.00
Cu1770 Cu    0.75000   0.70178   0.83333   0.00000  Uiso   1.00
H1771  H     0.85459   0.63474   0.87215   0.00000  Uiso   1.00
H1772  H     0.66182   0.80469   0.72271   0.00000  Uiso   1.00
H1773  H     0.64915   0.65503   0.77183   0.00000  Uiso   1.00
H1774  H     0.64921   0.59072   0.76638   0.00000  Uiso   1.00
H1775  H     0.66580   0.60276   0.67653   0.00000  Uiso   1.00
H1776  H     0.61240   0.62248   0.69425   0.00000  Uiso   1.00
H1777  H     0.65676   0.66595   0.68558   0.00000  Uiso   1.00
H1778  H     0.77232   0.87386   0.94216   0.00000  Uiso   1.00
H1779  H     0.81505   0.92052   0.94186   0.00000  Uiso   1.00
H1780  H     0.87265   0.86384   0.96335   0.00000  Uiso   1.00
H1781  H     0.82875   0.85732   0.67214   0.00000  Uiso   1.00
H1782  H     0.85371   0.60011   0.92747   0.00000  Uiso   1.00
H1783  H     0.83353   0.81364   0.95729   0.00000  Uiso   1.00
H1784  H     0.50160   0.81794   0.75259   0.00000  Uiso   1.00
H1785  H     0.56118   0.81423   0.75570   0.00000  Uiso   1.00
H1786  H     0.57002   0.90109   0.76785   0.00000  Uiso   1.00
H1787  H     0.53448   0.88897   0.71468   0.00000  Uiso   1.00
H1788  H     0.51094   0.90772   0.77071   0.00000  Uiso   1.00
H1789  H     0.51904   0.73163   0.75019   0.00000  Uiso   1.00
H1790  H     0.97438   0.71051   0.70921   0.00000  Uiso   1.00
H1791  H     0.50999   0.63173   0.70385   0.00000  Uiso   1.00
H1792  H     0.54931   0.67949   0.69061   0.00000  Uiso   1.00
H1793  H     0.84597   0.67389   0.97565   0.00000  Uiso   1.00
H1794  H     0.55238   0.65047   0.74940   0.00000  Uiso   1.00
H1795  H     0.96986   0.76566   0.94982   0.00000  Uiso   1.00
H1796  H     0.92052   0.80057   0.93796   0.00000  Uiso   1.00
H1797  H     0.96517   0.87507   0.96228   0.00000  Uiso   1.00
H1798  H     0.96037   0.83157   0.67720   0.00000  Uiso   1.00
H1799  H     0.51153   0.83725   0.97888   0.00000  Uiso   1.00
H1800  H     0.97066   0.68953   0.90529   0.00000  Uiso   1.00
H1801  H     0.52029   0.67856   0.94237   0.00000  Uiso   1.00
H1802  H     0.50669   0.58998   0.92858   0.00000  Uiso   1.00
H1803  H     0.96098   0.61828   0.95654   0.00000  Uiso   1.00
H1804  H     0.89581   0.67520   0.94162   0.00000  Uiso   1.00
H1805  H     0.95682   0.60328   0.89231   0.00000  Uiso   1.00
H1806  H     0.67576   0.87176   0.91631   0.00000  Uiso   1.00
H1807  H     0.89303   0.62228   0.70149   0.00000  Uiso   1.00
H1808  H     0.85823   0.83890   0.75682   0.00000  Uiso   1.00
H1809  H     0.60249   0.59492   0.93659   0.00000  Uiso   1.00
H1810  H     0.76609   0.55350   0.95791   0.00000  Uiso   1.00
H1811  H     0.76519   0.99066   0.93967   0.00000  Uiso   1.00
H1812  H     0.83676   0.54819   0.99952   0.00000  Uiso   1.00
H1813  H     0.80954   0.99208   0.68102   0.00000  Uiso   1.00
H1814  H     0.85015   0.99364   0.96863   0.00000  Uiso   1.00
H1815  H     0.84857   0.70963   0.92141   0.00000  Uiso   1.00
H1816  H     0.67862   0.51426   0.87397   0.00000  Uiso   1.00
H1817  H     0.65793   0.95501   0.88831   0.00000  Uiso   1.00
H1818  H     0.58723   0.97187   0.84062   0.00000  Uiso   1.00
H1819  H     0.59905   0.51570   0.88831   0.00000  Uiso   1.00
H1820  H     0.60894   0.53049   0.82548   0.00000  Uiso   1.00
H1821  H     0.75129   0.54468   0.70924   0.00000  Uiso   1.00
H1822  H     0.74967   0.98409   0.73355   0.00000  Uiso   1.00
H1823  H     0.69375   0.52810   0.98488   0.00000  Uiso   1.00
H1824  H     0.71226   0.96736   0.99302   0.00000  Uiso   1.00
H1825  H     0.66504   0.98778   0.69070   0.00000  Uiso   1.00
H1826  H     0.72032   0.87225   0.72697   0.00000  Uiso   1.00
H1827  H     0.82636   0.50728   0.78929   0.00000  Uiso   1.00
H1828  H     0.85020   0.94898   0.78250   0.00000  Uiso   1.00
H1829  H     0.91729   0.97687   0.83220   0.00000  Uiso   1.00
H1830  H     0.90674   0.51466   0.77960   0.00000  Uiso   1.00
H1831  H     0.89272   0.53493   0.83951   0.00000  Uiso   1.00
H1832  H     0.67528   0.91418   0.72729   0.00000  Uiso   1.00
H1833  H     0.62024   0.85010   0.71445   0.00000  Uiso   1.00
H1834  H     0.66192   0.84368   0.67024   0.00000  Uiso   1.00
N1835  N     0.75000   0.62934   0.83333   0.00000  Uiso   1.00
N1836  N     0.75000   0.87065   0.83333   0.00000  Uiso   1.00
O1837  O     0.68573   0.79071   0.83334   0.00000  Uiso   1.00
O1838  O     0.68097   0.87091   0.78830   0.00000  Uiso   1.00
O1839  O     0.71033   0.62833   0.75643   0.00000  Uiso   1.00
O1840  O     0.81532   0.87171   0.88436   0.00000  Uiso   1.00
O1841  O     0.52982   0.83065   0.82148   0.00000  Uiso   1.00
O1842  O     0.97586   0.67909   0.77831   0.00000  Uiso   1.00
O1843  O     0.97288   0.81293   0.89139   0.00000  Uiso   1.00
O1844  O     0.52352   0.66192   0.86800   0.00000  Uiso   1.00
O1845  O     0.61444   0.88402   0.84591   0.00000  Uiso   1.00
O1846  O     0.58239   0.85606   0.92073   0.00000  Uiso   1.00
O1847  O     0.66496   0.83851   0.90945   0.00000  Uiso   1.00
O1848  O     0.81427   0.70928   0.83333   0.00000  Uiso   1.00
O1849  O     0.85769   0.63236   0.78540   0.00000  Uiso   1.00
O1850  O     0.83925   0.69880   0.73071   0.00000  Uiso   1.00
O1851  O     0.90949   0.65075   0.71524   0.00000  Uiso   1.00
O1852  O     0.89886   0.88230   0.86696   0.00000  Uiso   1.00
O1853  O     0.93785   0.86820   0.79332   0.00000  Uiso   1.00
O1854  O     0.85313   0.85734   0.78689   0.00000  Uiso   1.00
O1855  O     0.63378   0.62064   0.85382   0.00000  Uiso   1.00
O1856  O     0.66282   0.67231   0.92075   0.00000  Uiso   1.00
O1857  O     0.58873   0.62647   0.93109   0.00000  Uiso   1.00
O1858  O     0.80671   0.53440   0.90148   0.00000  Uiso   1.00
O1859  O     0.81427   0.79071   0.83333   0.00000  Uiso   1.00
O1860  O     0.67134   0.96643   0.81481   0.00000  Uiso   1.00
O1861  O     0.70312   0.52965   0.75943   0.00000  Uiso   1.00
O1862  O     0.83242   0.96581   0.85308   0.00000  Uiso   1.00
O1863  O     0.68573   0.70928   0.83334   0.00000  Uiso   1.00
O1864  O     0.75000   0.79071   0.76280   0.00000  Uiso   1.00
O1865  O     0.75000   0.70929   0.90387   0.00000  Uiso   1.00
O1866  O     0.75000   0.79071   0.90387   0.00000  Uiso   1.00
O1867  O     0.75000   0.70929   0.76280   0.00000  Uiso   1.00
O1868  O     0.79406   0.63276   0.90748   0.00000  Uiso   1.00
S1869  S     0.61420   0.84401   0.88221   0.00000  Uiso   1.00
S1870  S     0.87658   0.67335   0.75701   0.00000  Uiso   1.00
S1871  S     0.89966   0.85111   0.82233   0.00000  Uiso   1.00
S1872  S     0.62152   0.65541   0.89241   0.00000  Uiso   1.00
loop_
_geom_bond_atom_site_label_1
_geom_bond_atom_site_label_2
_geom_bond_distance
_geom_bond_site_symmetry_2
_ccdc_geom_bond_type
C1     C18     1.495   .     S
C1     O147    1.304   .     A
C1     O121    1.309   .     A
C2     C6      1.426   .     A
C2     C49     1.416   .     A
C2     O146    1.383   .     S
C3     C7      1.417   .     S
C3     O148    1.292   .     A
C3     O151    1.294   .     A
C4     C8      1.417   .     S
C4     O149    1.293   .     A
C4     O150    1.293   .     A
C5     C52     1.423   .     A
C5     C50     1.422   .     A
C5     C318    1.533   1_545 S
C6     C51     1.426   .     A
C6     C317    1.533   .     S
C7     C1256   1.195   1_554 S
C8     C631    1.195   .     S
C9     O125    1.384   .     S
C9     C14     1.388   .     A
C9     C20     1.410   .     A
C10    C15     1.420   .     A
C10    C21     1.418   .     A
C10    O126    1.384   .     S
C11    C21     1.403   .     A
C11    O127    1.383   .     S
C11    C16     1.388   .     A
C12    O132    1.307   .     A
C12    O143    1.303   .     A
C12    C19     1.490   .     S
C13    O128    1.389   .     S
C13    C20     1.418   .     A
C13    C17     1.420   .     A
C14    C18     1.403   .     A
C14    S153    1.772   .     S
C15    C19     1.427   .     A
C15    S154    1.784   .     S
C16    S155    1.774   .     S
C16    C19     1.405   .     A
C17    C18     1.428   .     A
C17    S156    1.783   .     S
C20    C177    1.485   1_455 S
C21    C176    1.485   .     S
C22    H66     1.107   .     S
C22    O152    1.415   .     S
C22    H55     1.105   .     S
C22    C24     1.522   .     S
C23    O152    1.388   .     S
C23    N119    1.370   .     A
C23    C50     1.418   .     A
C24    H99     1.108   .     S
C24    H77     1.106   .     S
C24    H88     1.109   .     S
C25    O122    1.410   .     S
C25    H116    1.107   .     S
C25    C26     1.520   .     S
C25    H110    1.116   .     S
C26    H117    1.108   .     S
C26    H118    1.107   .     S
C26    H56     1.110   .     S
C27    O123    1.413   .     S
C27    H57     1.107   .     S
C27    H58     1.112   .     S
C27    C28     1.517   .     S
C28    H61     1.111   .     S
C28    H60     1.108   .     S
C28    H59     1.108   .     S
C29    H63     1.109   .     S
C29    O124    1.413   .     S
C29    C30     1.520   .     S
C29    H62     1.115   .     S
C30    H64     1.110   .     S
C30    H67     1.111   .     S
C30    H689    1.110   .     S
C31    H68     1.110   .     S
C31    C32     1.525   .     S
C31    O125    1.415   .     S
C31    H69     1.117   .     S
C32    H72     1.109   .     S
C32    H71     1.109   .     S
C32    H70     1.108   .     S
C33    O126    1.415   .     S
C33    H74     1.113   .     S
C33    C191    1.518   .     S
C33    H229    1.109   .     S
C34    C51     1.418   .     A
C34    O122    1.377   .     S
C34    N120    1.366   .     A
C35    H75     1.110   .     S
C35    H76     1.109   .     S
C35    H78     1.111   .     S
C35    C189    1.518   1_455 S
C36    C37     1.518   .     S
C36    H80     1.114   .     S
C36    O127    1.412   .     S
C36    H79     1.113   .     S
C37    H81     1.111   .     S
C37    H706    1.110   .     S
C37    H239    1.110   .     S
C38    C39     1.522   .     S
C38    H84     1.106   .     S
C38    H241    1.112   .     S
C38    O284    1.416   .     S
C39    H87     1.110   .     S
C39    H89     1.111   .     S
C39    H242    1.110   .     S
C40    O142    1.403   .     S
C40    C41     1.527   .     S
C40    H94     1.114   .     S
C40    H407    1.110   1_545 S
C41    H96     1.111   .     S
C41    H1033   1.107   1_545 S
C41    H410    1.111   1_545 S
C42    H101    1.113   .     S
C42    O144    1.415   .     S
C42    C355    1.522   .     S
C42    H412    1.110   .     S
C43    H104    1.110   .     S
C43    H103    1.110   .     S
C43    C354    1.522   1_545 S
C43    H414    1.109   1_545 S
C44    O145    1.404   .     S
C44    H105    1.114   .     S
C44    C358    1.529   1_545 S
C44    H418    1.112   1_545 S
C45    O123    1.385   .     S
C45    N119    1.369   .     A
C45    C52     1.417   .     A
C46    H109    1.110   .     S
C46    C356    1.529   .     S
C46    H1667   1.109   1_554 S
C46    H1356   1.110   1_554 S
C47    H112    1.112   .     S
C47    O146    1.414   .     S
C47    C360    1.521   .     S
C47    H423    1.111   .     S
C48    H115    1.111   .     S
C48    H114    1.111   .     S
C48    C359    1.521   1_545 S
C48    H425    1.110   1_545 S
C49    N120    1.361   .     A
C49    O124    1.376   .     S
C50    O142    1.377   .     S
C51    O144    1.385   .     S
C52    O145    1.382   .     S
Cu53   N120    2.020   .     S
Cu53   Cu54    2.689   .     S
Cu53   O148    1.944   .     S
Cu53   O143    1.954   .     S
Cu53   O150    1.945   .     S
Cu53   O121    1.945   .     S
Cu54   O149    1.944   .     S
Cu54   N119    2.020   .     S
Cu54   O151    1.945   .     S
Cu54   O132    1.945   .     S
Cu54   O147    1.954   .     S
H65    C1278   1.110   1_554 S
H73    C189    1.109   1_455 S
H82    C1285   1.110   1_554 S
H83    C193    1.110   1_455 S
H85    C194    1.112   1_455 S
H86    C195    1.110   1_455 S
H90    O131    0.990   .     S
H91    O135    0.991   .     S
H92    O138    0.990   .     S
H93    O141    0.990   .     S
H95    C352    1.110   .     S
H97    C1601   1.107   1_554 S
H98    C353    1.111   .     S
H100   C354    1.110   1_545 S
H102   C355    1.109   .     S
H106   C356    1.112   .     S
H107   C982    1.109   1_545 S
H108   C670    1.110   .     S
H111   C359    1.111   1_545 S
H113   C360    1.110   .     S
O128   C194    1.416   1_455 S
O129   S153    1.496   .     D
O130   S153    1.503   .     D
O131   S153    1.681   .     S
O133   S154    1.501   .     D
O134   S154    1.501   .     D
O135   S154    1.681   .     S
O136   S155    1.501   .     D
O137   S155    1.500   .     D
O138   S155    1.680   .     S
O139   S156    1.498   .     D
O140   S156    1.502   .     D
O141   S156    1.679   .     S
C157   C174    1.495   .     S
C157   O303    1.304   .     A
C157   O277    1.309   .     A
C158   C162    1.426   .     A
C158   C205    1.416   .     A
C158   O302    1.383   .     S
C159   C163    1.417   .     S
C159   O304    1.292   .     A
C159   O307    1.294   .     A
C160   C164    1.417   .     S
C160   O305    1.293   .     A
C160   O306    1.293   .     A
C161   C208    1.423   .     A
C161   C206    1.422   .     A
C161   C474    1.533   1_545 S
C162   C207    1.426   .     A
C162   C473    1.533   .     S
C163   C1412   1.195   1_554 S
C164   C787    1.195   .     S
C165   O281    1.384   .     S
C165   C170    1.388   .     A
C165   C176    1.410   .     A
C166   C171    1.420   .     A
C166   C177    1.418   .     A
C166   O282    1.384   .     S
C167   C177    1.403   .     A
C167   O283    1.383   .     S
C167   C172    1.388   .     A
C168   O288    1.307   .     A
C168   O299    1.303   .     A
C168   C175    1.490   .     S
C169   O284    1.389   .     S
C169   C176    1.418   .     A
C169   C173    1.420   .     A
C170   C174    1.403   .     A
C170   S309    1.772   .     S
C171   C175    1.427   .     A
C171   S310    1.784   .     S
C172   S311    1.774   .     S
C172   C175    1.405   .     A
C173   C174    1.428   .     A
C173   S312    1.783   .     S
C177   C20     1.485   1_655 S
C178   H222    1.107   .     S
C178   O308    1.415   .     S
C178   H211    1.105   .     S
C178   C180    1.522   .     S
C179   O308    1.388   .     S
C179   N275    1.370   .     A
C179   C206    1.418   .     A
C180   H255    1.108   .     S
C180   H233    1.106   .     S
C180   H244    1.109   .     S
C181   O278    1.410   .     S
C181   H272    1.107   .     S
C181   C182    1.520   .     S
C181   H266    1.116   .     S
C182   H273    1.108   .     S
C182   H274    1.107   .     S
C182   H212    1.110   .     S
C183   O279    1.413   .     S
C183   H213    1.107   .     S
C183   H214    1.112   .     S
C183   C184    1.517   .     S
C184   H217    1.111   .     S
C184   H216    1.108   .     S
C184   H215    1.108   .     S
C185   H219    1.109   .     S
C185   O280    1.413   .     S
C185   C186    1.520   .     S
C185   H218    1.115   .     S
C186   H220    1.110   .     S
C186   H223    1.111   .     S
C186   H845    1.110   .     S
C187   H224    1.110   .     S
C187   C188    1.525   .     S
C187   O281    1.415   .     S
C187   H225    1.117   .     S
C188   H228    1.109   .     S
C188   H227    1.109   .     S
C188   H226    1.108   .     S
C189   O282    1.415   .     S
C189   H230    1.113   .     S
C189   C35     1.518   1_655 S
C189   H73     1.109   1_655 S
C190   C207    1.418   .     A
C190   O278    1.377   .     S
C190   N276    1.366   .     A
C191   H231    1.110   .     S
C191   H232    1.109   .     S
C191   H234    1.111   .     S
C192   C193    1.518   .     S
C192   H236    1.114   .     S
C192   O283    1.412   .     S
C192   H235    1.113   .     S
C193   H237    1.111   .     S
C193   H862    1.110   .     S
C193   H83     1.110   1_655 S
C194   C195    1.522   .     S
C194   H240    1.106   .     S
C194   H85     1.112   1_655 S
C194   O128    1.416   1_655 S
C195   H243    1.110   .     S
C195   H245    1.111   .     S
C195   H86     1.110   1_655 S
C196   O298    1.403   .     S
C196   C197    1.527   .     S
C196   H250    1.114   .     S
C196   H563    1.110   1_545 S
C197   H252    1.111   .     S
C197   H1189   1.107   1_545 S
C197   H566    1.111   1_545 S
C198   H257    1.113   .     S
C198   O300    1.415   .     S
C198   C511    1.522   .     S
C198   H568    1.110   .     S
C199   H260    1.110   .     S
C199   H259    1.110   .     S
C199   C510    1.522   1_545 S
C199   H570    1.109   1_545 S
C200   O301    1.404   .     S
C200   H261    1.114   .     S
C200   C514    1.529   1_545 S
C200   H574    1.112   1_545 S
C201   O279    1.385   .     S
C201   N275    1.369   .     A
C201   C208    1.417   .     A
C202   H265    1.110   .     S
C202   C512    1.529   .     S
C202   H1823   1.109   1_554 S
C202   H1512   1.110   1_554 S
C203   H268    1.112   .     S
C203   O302    1.414   .     S
C203   C516    1.521   .     S
C203   H579    1.111   .     S
C204   H271    1.111   .     S
C204   H270    1.111   .     S
C204   C515    1.521   1_545 S
C204   H581    1.110   1_545 S
C205   N276    1.361   .     A
C205   O280    1.376   .     S
C206   O298    1.377   .     S
C207   O300    1.385   .     S
C208   O301    1.382   .     S
Cu209  N276    2.020   .     S
Cu209  Cu210   2.689   .     S
Cu209  O304    1.944   .     S
Cu209  O299    1.954   .     S
Cu209  O306    1.945   .     S
Cu209  O277    1.945   .     S
Cu210  O305    1.944   .     S
Cu210  N275    2.020   .     S
Cu210  O307    1.945   .     S
Cu210  O288    1.945   .     S
Cu210  O303    1.954   .     S
H221   C1434   1.110   1_554 S
H238   C1441   1.110   1_554 S
H246   O287    0.990   .     S
H247   O291    0.991   .     S
H248   O294    0.990   .     S
H249   O297    0.990   .     S
H251   C508    1.110   .     S
H253   C1757   1.107   1_554 S
H254   C509    1.111   .     S
H256   C510    1.110   1_545 S
H258   C511    1.109   .     S
H262   C512    1.112   .     S
H263   C1138   1.109   1_545 S
H264   C826    1.110   .     S
H267   C515    1.111   1_545 S
H269   C516    1.110   .     S
O285   S309    1.496   .     D
O286   S309    1.503   .     D
O287   S309    1.681   .     S
O289   S310    1.501   .     D
O290   S310    1.501   .     D
O291   S310    1.681   .     S
O292   S311    1.501   .     D
O293   S311    1.500   .     D
O294   S311    1.680   .     S
O295   S312    1.498   .     D
O296   S312    1.502   .     D
O297   S312    1.679   .     S
C313   C330    1.495   .     S
C313   O459    1.304   .     A
C313   O433    1.309   .     A
C314   C318    1.426   .     A
C314   C361    1.416   .     A
C314   O458    1.383   .     S
C315   C319    1.417   .     S
C315   O460    1.292   .     A
C315   O463    1.294   .     A
C316   C320    1.417   .     S
C316   O461    1.293   .     A
C316   O462    1.293   .     A
C317   C364    1.423   .     A
C317   C362    1.422   .     A
C318   C363    1.426   .     A
C318   C5      1.533   1_565 S
C319   C1568   1.195   1_554 S
C320   C943    1.195   .     S
C321   O437    1.384   .     S
C321   C326    1.388   .     A
C321   C332    1.410   .     A
C322   C327    1.420   .     A
C322   C333    1.418   .     A
C322   O438    1.384   .     S
C323   C333    1.403   .     A
C323   O439    1.383   .     S
C323   C328    1.388   .     A
C324   O444    1.307   .     A
C324   O455    1.303   .     A
C324   C331    1.490   .     S
C325   O440    1.389   .     S
C325   C332    1.418   .     A
C325   C329    1.420   .     A
C326   C330    1.403   .     A
C326   S465    1.772   .     S
C327   C331    1.427   .     A
C327   S466    1.784   .     S
C328   S467    1.774   .     S
C328   C331    1.405   .     A
C329   C330    1.428   .     A
C329   S468    1.783   .     S
C332   C489    1.485   1_455 S
C333   C488    1.485   .     S
C334   H378    1.107   .     S
C334   O464    1.415   .     S
C334   H367    1.105   .     S
C334   C336    1.522   .     S
C335   O464    1.388   .     S
C335   N431    1.370   .     A
C335   C362    1.418   .     A
C336   H411    1.108   .     S
C336   H389    1.106   .     S
C336   H400    1.109   .     S
C337   O434    1.410   .     S
C337   H428    1.107   .     S
C337   C338    1.520   .     S
C337   H422    1.116   .     S
C338   H429    1.108   .     S
C338   H430    1.107   .     S
C338   H368    1.110   .     S
C339   O435    1.413   .     S
C339   H369    1.107   .     S
C339   H370    1.112   .     S
C339   C340    1.517   .     S
C340   H373    1.111   .     S
C340   H372    1.108   .     S
C340   H371    1.108   .     S
C341   H375    1.109   .     S
C341   O436    1.413   .     S
C341   C342    1.520   .     S
C341   H374    1.115   .     S
C342   H376    1.110   .     S
C342   H379    1.111   .     S
C342   H1001   1.110   .     S
C343   H380    1.110   .     S
C343   C344    1.525   .     S
C343   O437    1.415   .     S
C343   H381    1.117   .     S
C344   H384    1.109   .     S
C344   H383    1.109   .     S
C344   H382    1.108   .     S
C345   O438    1.415   .     S
C345   H386    1.113   .     S
C345   C503    1.518   .     S
C345   H541    1.109   .     S
C346   C363    1.418   .     A
C346   O434    1.377   .     S
C346   N432    1.366   .     A
C347   H387    1.110   .     S
C347   H388    1.109   .     S
C347   H390    1.111   .     S
C347   C501    1.518   1_455 S
C348   C349    1.518   .     S
C348   H392    1.114   .     S
C348   O439    1.412   .     S
C348   H391    1.113   .     S
C349   H393    1.111   .     S
C349   H1018   1.110   .     S
C349   H551    1.110   .     S
C350   C351    1.522   .     S
C350   H396    1.106   .     S
C350   H553    1.112   .     S
C350   O596    1.416   .     S
C351   H399    1.110   .     S
C351   H401    1.111   .     S
C351   H554    1.110   .     S
C352   O454    1.403   .     S
C352   C353    1.527   .     S
C352   H406    1.114   .     S
C353   H408    1.111   .     S
C353   H721    1.107   .     S
C354   H413    1.113   .     S
C354   O456    1.415   .     S
C354   C43     1.522   1_565 S
C354   H100    1.110   1_565 S
C355   H416    1.110   .     S
C355   H415    1.110   .     S
C356   O457    1.404   .     S
C356   H417    1.114   .     S
C357   O435    1.385   .     S
C357   N431    1.369   .     A
C357   C364    1.417   .     A
C358   H421    1.110   .     S
C358   C44     1.529   1_565 S
C358   H1355   1.109   1_564 S
C358   H1668   1.110   1_554 S
C359   H424    1.112   .     S
C359   O458    1.414   .     S
C359   C48     1.521   1_565 S
C359   H111    1.111   1_565 S
C360   H427    1.111   .     S
C360   H426    1.111   .     S
C361   N432    1.361   .     A
C361   O436    1.376   .     S
C362   O454    1.377   .     S
C363   O456    1.385   .     S
C364   O457    1.382   .     S
Cu365  N432    2.020   .     S
Cu365  Cu366   2.689   .     S
Cu365  O460    1.944   .     S
Cu365  O455    1.954   .     S
Cu365  O462    1.945   .     S
Cu365  O433    1.945   .     S
Cu366  O461    1.944   .     S
Cu366  N431    2.020   .     S
Cu366  O463    1.945   .     S
Cu366  O444    1.945   .     S
Cu366  O459    1.954   .     S
H377   C1590   1.110   1_554 S
H385   C501    1.109   1_455 S
H394   C1597   1.110   1_554 S
H395   C505    1.110   1_455 S
H397   C506    1.112   1_455 S
H398   C507    1.110   1_455 S
H402   O443    0.990   .     S
H403   O447    0.991   .     S
H404   O450    0.990   .     S
H405   O453    0.990   .     S
H407   C40     1.110   1_565 S
H409   C1289   1.107   1_564 S
H410   C41     1.111   1_565 S
H414   C43     1.109   1_565 S
H418   C44     1.112   1_565 S
H419   C670    1.109   .     S
H420   C982    1.110   .     S
H425   C48     1.110   1_565 S
O440   C506    1.416   1_455 S
O441   S465    1.496   .     D
O442   S465    1.503   .     D
O443   S465    1.681   .     S
O445   S466    1.501   .     D
O446   S466    1.501   .     D
O447   S466    1.681   .     S
O448   S467    1.501   .     D
O449   S467    1.500   .     D
O450   S467    1.680   .     S
O451   S468    1.498   .     D
O452   S468    1.502   .     D
O453   S468    1.679   .     S
C469   C486    1.495   .     S
C469   O615    1.304   .     A
C469   O589    1.309   .     A
C470   C474    1.426   .     A
C470   C517    1.416   .     A
C470   O614    1.383   .     S
C471   C475    1.417   .     S
C471   O616    1.292   .     A
C471   O619    1.294   .     A
C472   C476    1.417   .     S
C472   O617    1.293   .     A
C472   O618    1.293   .     A
C473   C520    1.423   .     A
C473   C518    1.422   .     A
C474   C519    1.426   .     A
C474   C161    1.533   1_565 S
C475   C1724   1.195   1_554 S
C476   C1099   1.195   .     S
C477   O593    1.384   .     S
C477   C482    1.388   .     A
C477   C488    1.410   .     A
C478   C483    1.420   .     A
C478   C489    1.418   .     A
C478   O594    1.384   .     S
C479   C489    1.403   .     A
C479   O595    1.383   .     S
C479   C484    1.388   .     A
C480   O600    1.307   .     A
C480   O611    1.303   .     A
C480   C487    1.490   .     S
C481   O596    1.389   .     S
C481   C488    1.418   .     A
C481   C485    1.420   .     A
C482   C486    1.403   .     A
C482   S621    1.772   .     S
C483   C487    1.427   .     A
C483   S622    1.784   .     S
C484   S623    1.774   .     S
C484   C487    1.405   .     A
C485   C486    1.428   .     A
C485   S624    1.783   .     S
C489   C332    1.485   1_655 S
C490   H534    1.107   .     S
C490   O620    1.415   .     S
C490   H523    1.105   .     S
C490   C492    1.522   .     S
C491   O620    1.388   .     S
C491   N587    1.370   .     A
C491   C518    1.418   .     A
C492   H567    1.108   .     S
C492   H545    1.106   .     S
C492   H556    1.109   .     S
C493   O590    1.410   .     S
C493   H584    1.107   .     S
C493   C494    1.520   .     S
C493   H578    1.116   .     S
C494   H585    1.108   .     S
C494   H586    1.107   .     S
C494   H524    1.110   .     S
C495   O591    1.413   .     S
C495   H525    1.107   .     S
C495   H526    1.112   .     S
C495   C496    1.517   .     S
C496   H529    1.111   .     S
C496   H528    1.108   .     S
C496   H527    1.108   .     S
C497   H531    1.109   .     S
C497   O592    1.413   .     S
C497   C498    1.520   .     S
C497   H530    1.115   .     S
C498   H532    1.110   .     S
C498   H535    1.111   .     S
C498   H1157   1.110   .     S
C499   H536    1.110   .     S
C499   C500    1.525   .     S
C499   O593    1.415   .     S
C499   H537    1.117   .     S
C500   H540    1.109   .     S
C500   H539    1.109   .     S
C500   H538    1.108   .     S
C501   O594    1.415   .     S
C501   H542    1.113   .     S
C501   C347    1.518   1_655 S
C501   H385    1.109   1_655 S
C502   C519    1.418   .     A
C502   O590    1.377   .     S
C502   N588    1.366   .     A
C503   H543    1.110   .     S
C503   H544    1.109   .     S
C503   H546    1.111   .     S
C504   C505    1.518   .     S
C504   H548    1.114   .     S
C504   O595    1.412   .     S
C504   H547    1.113   .     S
C505   H549    1.111   .     S
C505   H1174   1.110   .     S
C505   H395    1.110   1_655 S
C506   C507    1.522   .     S
C506   H552    1.106   .     S
C506   H397    1.112   1_655 S
C506   O440    1.416   1_655 S
C507   H555    1.110   .     S
C507   H557    1.111   .     S
C507   H398    1.110   1_655 S
C508   O610    1.403   .     S
C508   C509    1.527   .     S
C508   H562    1.114   .     S
C509   H564    1.111   .     S
C509   H877    1.107   .     S
C510   H569    1.113   .     S
C510   O612    1.415   .     S
C510   C199    1.522   1_565 S
C510   H256    1.110   1_565 S
C511   H572    1.110   .     S
C511   H571    1.110   .     S
C512   O613    1.404   .     S
C512   H573    1.114   .     S
C513   O591    1.385   .     S
C513   N587    1.369   .     A
C513   C520    1.417   .     A
C514   H577    1.110   .     S
C514   C200    1.529   1_565 S
C514   H1511   1.109   1_564 S
C514   H1824   1.110   1_554 S
C515   H580    1.112   .     S
C515   O614    1.414   .     S
C515   C204    1.521   1_565 S
C515   H267    1.111   1_565 S
C516   H583    1.111   .     S
C516   H582    1.111   .     S
C517   N588    1.361   .     A
C517   O592    1.376   .     S
C518   O610    1.377   .     S
C519   O612    1.385   .     S
C520   O613    1.382   .     S
Cu521  N588    2.020   .     S
Cu521  Cu522   2.689   .     S
Cu521  O616    1.944   .     S
Cu521  O611    1.954   .     S
Cu521  O618    1.945   .     S
Cu521  O589    1.945   .     S
Cu522  O617    1.944   .     S
Cu522  N587    2.020   .     S
Cu522  O619    1.945   .     S
Cu522  O600    1.945   .     S
Cu522  O615    1.954   .     S
H533   C1746   1.110   1_554 S
H550   C1753   1.110   1_554 S
H558   O599    0.990   .     S
H559   O603    0.991   .     S
H560   O606    0.990   .     S
H561   O609    0.990   .     S
H563   C196    1.110   1_565 S
H565   C1445   1.107   1_564 S
H566   C197    1.111   1_565 S
H570   C199    1.109   1_565 S
H574   C200    1.112   1_565 S
H575   C826    1.109   .     S
H576   C1138   1.110   .     S
H581   C204    1.110   1_565 S
O597   S621    1.496   .     D
O598   S621    1.503   .     D
O599   S621    1.681   .     S
O601   S622    1.501   .     D
O602   S622    1.501   .     D
O603   S622    1.681   .     S
O604   S623    1.501   .     D
O605   S623    1.500   .     D
O606   S623    1.680   .     S
O607   S624    1.498   .     D
O608   S624    1.502   .     D
O609   S624    1.679   .     S
C625   C642    1.495   .     S
C625   O771    1.304   .     A
C625   O745    1.309   .     A
C626   C630    1.426   .     A
C626   C673    1.416   .     A
C626   O770    1.383   .     S
C627   C631    1.417   .     S
C627   O772    1.292   .     A
C627   O775    1.294   .     A
C628   C632    1.417   .     S
C628   O773    1.293   .     A
C628   O774    1.293   .     A
C629   C676    1.423   .     A
C629   C674    1.422   .     A
C629   C942    1.533   1_545 S
C630   C675    1.426   .     A
C630   C941    1.533   .     S
C632   C1255   1.195   .     S
C633   O749    1.384   .     S
C633   C638    1.388   .     A
C633   C644    1.410   .     A
C634   C639    1.420   .     A
C634   C645    1.418   .     A
C634   O750    1.384   .     S
C635   C645    1.403   .     A
C635   O751    1.383   .     S
C635   C640    1.388   .     A
C636   O756    1.307   .     A
C636   O767    1.303   .     A
C636   C643    1.490   .     S
C637   O752    1.389   .     S
C637   C644    1.418   .     A
C637   C641    1.420   .     A
C638   C642    1.403   .     A
C638   S777    1.772   .     S
C639   C643    1.427   .     A
C639   S778    1.784   .     S
C640   S779    1.774   .     S
C640   C643    1.405   .     A
C641   C642    1.428   .     A
C641   S780    1.783   .     S
C644   C801    1.485   1_455 S
C645   C800    1.485   .     S
C646   H690    1.107   .     S
C646   O776    1.415   .     S
C646   H679    1.105   .     S
C646   C648    1.522   .     S
C647   O776    1.388   .     S
C647   N743    1.370   .     A
C647   C674    1.418   .     A
C648   H723    1.108   .     S
C648   H701    1.106   .     S
C648   H712    1.109   .     S
C649   O746    1.410   .     S
C649   H740    1.107   .     S
C649   C650    1.520   .     S
C649   H734    1.116   .     S
C650   H741    1.108   .     S
C650   H742    1.107   .     S
C650   H680    1.110   .     S
C651   O747    1.413   .     S
C651   H681    1.107   .     S
C651   H682    1.112   .     S
C651   C652    1.517   .     S
C652   H685    1.111   .     S
C652   H684    1.108   .     S
C652   H683    1.108   .     S
C653   H687    1.109   .     S
C653   O748    1.413   .     S
C653   C654    1.520   .     S
C653   H686    1.115   .     S
C654   H688    1.110   .     S
C654   H691    1.111   .     S
C654   H1313   1.110   .     S
C655   H692    1.110   .     S
C655   C656    1.525   .     S
C655   O749    1.415   .     S
C655   H693    1.117   .     S
C656   H696    1.109   .     S
C656   H695    1.109   .     S
C656   H694    1.108   .     S
C657   O750    1.415   .     S
C657   H698    1.113   .     S
C657   C815    1.518   .     S
C657   H853    1.109   .     S
C658   C675    1.418   .     A
C658   O746    1.377   .     S
C658   N744    1.366   .     A
C659   H699    1.110   .     S
C659   H700    1.109   .     S
C659   H702    1.111   .     S
C659   C813    1.518   1_455 S
C660   C661    1.518   .     S
C660   H704    1.114   .     S
C660   O751    1.412   .     S
C660   H703    1.113   .     S
C661   H705    1.111   .     S
C661   H1330   1.110   .     S
C661   H863    1.110   .     S
C662   C663    1.522   .     S
C662   H708    1.106   .     S
C662   H865    1.112   .     S
C662   O908    1.416   .     S
C663   H711    1.110   .     S
C663   H713    1.111   .     S
C663   H866    1.110   .     S
C664   O766    1.403   .     S
C664   C665    1.527   .     S
C664   H718    1.114   .     S
C664   H1031   1.110   1_545 S
C665   H720    1.111   .     S
C665   H1657   1.107   1_545 S
C665   H1034   1.111   1_545 S
C666   H725    1.113   .     S
C666   O768    1.415   .     S
C666   C979    1.522   .     S
C666   H1036   1.110   .     S
C667   H728    1.110   .     S
C667   H727    1.110   .     S
C667   C978    1.522   1_545 S
C667   H1038   1.109   1_545 S
C668   O769    1.404   .     S
C668   H729    1.114   .     S
C668   C982    1.529   1_545 S
C668   H1042   1.112   1_545 S
C669   O747    1.385   .     S
C669   N743    1.369   .     A
C669   C676    1.417   .     A
C670   H733    1.110   .     S
C670   C980    1.529   .     S
C671   H736    1.112   .     S
C671   O770    1.414   .     S
C671   C984    1.521   .     S
C671   H1047   1.111   .     S
C672   H739    1.111   .     S
C672   H738    1.111   .     S
C672   C983    1.521   1_545 S
C672   H1049   1.110   1_545 S
C673   N744    1.361   .     A
C673   O748    1.376   .     S
C674   O766    1.377   .     S
C675   O768    1.385   .     S
C676   O769    1.382   .     S
Cu677  N744    2.020   .     S
Cu677  Cu678   2.689   .     S
Cu677  O772    1.944   .     S
Cu677  O767    1.954   .     S
Cu677  O774    1.945   .     S
Cu677  O745    1.945   .     S
Cu678  O773    1.944   .     S
Cu678  N743    2.020   .     S
Cu678  O775    1.945   .     S
Cu678  O756    1.945   .     S
Cu678  O771    1.954   .     S
H697   C813    1.109   1_455 S
H707   C817    1.110   1_455 S
H709   C818    1.112   1_455 S
H710   C819    1.110   1_455 S
H714   O755    0.990   .     S
H715   O759    0.991   .     S
H716   O762    0.990   .     S
H717   O765    0.990   .     S
H719   C976    1.110   .     S
H722   C977    1.111   .     S
H724   C978    1.110   1_545 S
H726   C979    1.109   .     S
H730   C980    1.112   .     S
H731   C1606   1.109   1_545 S
H732   C1294   1.110   .     S
H735   C983    1.111   1_545 S
H737   C984    1.110   .     S
O752   C818    1.416   1_455 S
O753   S777    1.496   .     D
O754   S777    1.503   .     D
O755   S777    1.681   .     S
O757   S778    1.501   .     D
O758   S778    1.501   .     D
O759   S778    1.681   .     S
O760   S779    1.501   .     D
O761   S779    1.500   .     D
O762   S779    1.680   .     S
O763   S780    1.498   .     D
O764   S780    1.502   .     D
O765   S780    1.679   .     S
C781   C798    1.495   .     S
C781   O927    1.304   .     A
C781   O901    1.309   .     A
C782   C786    1.426   .     A
C782   C829    1.416   .     A
C782   O926    1.383   .     S
C783   C787    1.417   .     S
C783   O928    1.292   .     A
C783   O931    1.294   .     A
C784   C788    1.417   .     S
C784   O929    1.293   .     A
C784   O930    1.293   .     A
C785   C832    1.423   .     A
C785   C830    1.422   .     A
C785   C1098   1.533   1_545 S
C786   C831    1.426   .     A
C786   C1097   1.533   .     S
C788   C1411   1.195   .     S
C789   O905    1.384   .     S
C789   C794    1.388   .     A
C789   C800    1.410   .     A
C790   C795    1.420   .     A
C790   C801    1.418   .     A
C790   O906    1.384   .     S
C791   C801    1.403   .     A
C791   O907    1.383   .     S
C791   C796    1.388   .     A
C792   O912    1.307   .     A
C792   O923    1.303   .     A
C792   C799    1.490   .     S
C793   O908    1.389   .     S
C793   C800    1.418   .     A
C793   C797    1.420   .     A
C794   C798    1.403   .     A
C794   S933    1.772   .     S
C795   C799    1.427   .     A
C795   S934    1.784   .     S
C796   S935    1.774   .     S
C796   C799    1.405   .     A
C797   C798    1.428   .     A
C797   S936    1.783   .     S
C801   C644    1.485   1_655 S
C802   H846    1.107   .     S
C802   O932    1.415   .     S
C802   H835    1.105   .     S
C802   C804    1.522   .     S
C803   O932    1.388   .     S
C803   N899    1.370   .     A
C803   C830    1.418   .     A
C804   H879    1.108   .     S
C804   H857    1.106   .     S
C804   H868    1.109   .     S
C805   O902    1.410   .     S
C805   H896    1.107   .     S
C805   C806    1.520   .     S
C805   H890    1.116   .     S
C806   H897    1.108   .     S
C806   H898    1.107   .     S
C806   H836    1.110   .     S
C807   O903    1.413   .     S
C807   H837    1.107   .     S
C807   H838    1.112   .     S
C807   C808    1.517   .     S
C808   H841    1.111   .     S
C808   H840    1.108   .     S
C808   H839    1.108   .     S
C809   H843    1.109   .     S
C809   O904    1.413   .     S
C809   C810    1.520   .     S
C809   H842    1.115   .     S
C810   H844    1.110   .     S
C810   H847    1.111   .     S
C810   H1469   1.110   .     S
C811   H848    1.110   .     S
C811   C812    1.525   .     S
C811   O905    1.415   .     S
C811   H849    1.117   .     S
C812   H852    1.109   .     S
C812   H851    1.109   .     S
C812   H850    1.108   .     S
C813   O906    1.415   .     S
C813   H854    1.113   .     S
C813   C659    1.518   1_655 S
C813   H697    1.109   1_655 S
C814   C831    1.418   .     A
C814   O902    1.377   .     S
C814   N900    1.366   .     A
C815   H855    1.110   .     S
C815   H856    1.109   .     S
C815   H858    1.111   .     S
C816   C817    1.518   .     S
C816   H860    1.114   .     S
C816   O907    1.412   .     S
C816   H859    1.113   .     S
C817   H861    1.111   .     S
C817   H1486   1.110   .     S
C817   H707    1.110   1_655 S
C818   C819    1.522   .     S
C818   H864    1.106   .     S
C818   H709    1.112   1_655 S
C818   O752    1.416   1_655 S
C819   H867    1.110   .     S
C819   H869    1.111   .     S
C819   H710    1.110   1_655 S
C820   O922    1.403   .     S
C820   C821    1.527   .     S
C820   H874    1.114   .     S
C820   H1187   1.110   1_545 S
C821   H876    1.111   .     S
C821   H1813   1.107   1_545 S
C821   H1190   1.111   1_545 S
C822   H881    1.113   .     S
C822   O924    1.415   .     S
C822   C1135   1.522   .     S
C822   H1192   1.110   .     S
C823   H884    1.110   .     S
C823   H883    1.110   .     S
C823   C1134   1.522   1_545 S
C823   H1194   1.109   1_545 S
C824   O925    1.404   .     S
C824   H885    1.114   .     S
C824   C1138   1.529   1_545 S
C824   H1198   1.112   1_545 S
C825   O903    1.385   .     S
C825   N899    1.369   .     A
C825   C832    1.417   .     A
C826   H889    1.110   .     S
C826   C1136   1.529   .     S
C827   H892    1.112   .     S
C827   O926    1.414   .     S
C827   C1140   1.521   .     S
C827   H1203   1.111   .     S
C828   H895    1.111   .     S
C828   H894    1.111   .     S
C828   C1139   1.521   1_545 S
C828   H1205   1.110   1_545 S
C829   N900    1.361   .     A
C829   O904    1.376   .     S
C830   O922    1.377   .     S
C831   O924    1.385   .     S
C832   O925    1.382   .     S
Cu833  N900    2.020   .     S
Cu833  Cu834   2.689   .     S
Cu833  O928    1.944   .     S
Cu833  O923    1.954   .     S
Cu833  O930    1.945   .     S
Cu833  O901    1.945   .     S
Cu834  O929    1.944   .     S
Cu834  N899    2.020   .     S
Cu834  O931    1.945   .     S
Cu834  O912    1.945   .     S
Cu834  O927    1.954   .     S
H870   O911    0.990   .     S
H871   O915    0.991   .     S
H872   O918    0.990   .     S
H873   O921    0.990   .     S
H875   C1132   1.110   .     S
H878   C1133   1.111   .     S
H880   C1134   1.110   1_545 S
H882   C1135   1.109   .     S
H886   C1136   1.112   .     S
H887   C1762   1.109   1_545 S
H888   C1450   1.110   .     S
H891   C1139   1.111   1_545 S
H893   C1140   1.110   .     S
O909   S933    1.496   .     D
O910   S933    1.503   .     D
O911   S933    1.681   .     S
O913   S934    1.501   .     D
O914   S934    1.501   .     D
O915   S934    1.681   .     S
O916   S935    1.501   .     D
O917   S935    1.500   .     D
O918   S935    1.680   .     S
O919   S936    1.498   .     D
O920   S936    1.502   .     D
O921   S936    1.679   .     S
C937   C954    1.495   .     S
C937   O1083   1.304   .     A
C937   O1057   1.309   .     A
C938   C942    1.426   .     A
C938   C985    1.416   .     A
C938   O1082   1.383   .     S
C939   C943    1.417   .     S
C939   O1084   1.292   .     A
C939   O1087   1.294   .     A
C940   C944    1.417   .     S
C940   O1085   1.293   .     A
C940   O1086   1.293   .     A
C941   C988    1.423   .     A
C941   C986    1.422   .     A
C942   C987    1.426   .     A
C942   C629    1.533   1_565 S
C944   C1567   1.195   .     S
C945   O1061   1.384   .     S
C945   C950    1.388   .     A
C945   C956    1.410   .     A
C946   C951    1.420   .     A
C946   C957    1.418   .     A
C946   O1062   1.384   .     S
C947   C957    1.403   .     A
C947   O1063   1.383   .     S
C947   C952    1.388   .     A
C948   O1068   1.307   .     A
C948   O1079   1.303   .     A
C948   C955    1.490   .     S
C949   O1064   1.389   .     S
C949   C956    1.418   .     A
C949   C953    1.420   .     A
C950   C954    1.403   .     A
C950   S1089   1.772   .     S
C951   C955    1.427   .     A
C951   S1090   1.784   .     S
C952   S1091   1.774   .     S
C952   C955    1.405   .     A
C953   C954    1.428   .     A
C953   S1092   1.783   .     S
C956   C1113   1.485   1_455 S
C957   C1112   1.485   .     S
C958   H1002   1.107   .     S
C958   O1088   1.415   .     S
C958   H991    1.105   .     S
C958   C960    1.522   .     S
C959   O1088   1.388   .     S
C959   N1055   1.370   .     A
C959   C986    1.418   .     A
C960   H1035   1.108   .     S
C960   H1013   1.106   .     S
C960   H1024   1.109   .     S
C961   O1058   1.410   .     S
C961   H1052   1.107   .     S
C961   C962    1.520   .     S
C961   H1046   1.116   .     S
C962   H1053   1.108   .     S
C962   H1054   1.107   .     S
C962   H992    1.110   .     S
C963   O1059   1.413   .     S
C963   H993    1.107   .     S
C963   H994    1.112   .     S
C963   C964    1.517   .     S
C964   H997    1.111   .     S
C964   H996    1.108   .     S
C964   H995    1.108   .     S
C965   H999    1.109   .     S
C965   O1060   1.413   .     S
C965   C966    1.520   .     S
C965   H998    1.115   .     S
C966   H1000   1.110   .     S
C966   H1003   1.111   .     S
C966   H1625   1.110   .     S
C967   H1004   1.110   .     S
C967   C968    1.525   .     S
C967   O1061   1.415   .     S
C967   H1005   1.117   .     S
C968   H1008   1.109   .     S
C968   H1007   1.109   .     S
C968   H1006   1.108   .     S
C969   O1062   1.415   .     S
C969   H1010   1.113   .     S
C969   C1127   1.518   .     S
C969   H1165   1.109   .     S
C970   C987    1.418   .     A
C970   O1058   1.377   .     S
C970   N1056   1.366   .     A
C971   H1011   1.110   .     S
C971   H1012   1.109   .     S
C971   H1014   1.111   .     S
C971   C1125   1.518   1_455 S
C972   C973    1.518   .     S
C972   H1016   1.114   .     S
C972   O1063   1.412   .     S
C972   H1015   1.113   .     S
C973   H1017   1.111   .     S
C973   H1642   1.110   .     S
C973   H1175   1.110   .     S
C974   C975    1.522   .     S
C974   H1020   1.106   .     S
C974   H1177   1.112   .     S
C974   O1220   1.416   .     S
C975   H1023   1.110   .     S
C975   H1025   1.111   .     S
C975   H1178   1.110   .     S
C976   O1078   1.403   .     S
C976   C977    1.527   .     S
C976   H1030   1.114   .     S
C977   H1032   1.111   .     S
C977   H1345   1.107   .     S
C978   H1037   1.113   .     S
C978   O1080   1.415   .     S
C978   C667    1.522   1_565 S
C978   H724    1.110   1_565 S
C979   H1040   1.110   .     S
C979   H1039   1.110   .     S
C980   O1081   1.404   .     S
C980   H1041   1.114   .     S
C981   O1059   1.385   .     S
C981   N1055   1.369   .     A
C981   C988    1.417   .     A
C982   H1045   1.110   .     S
C982   C668    1.529   1_565 S
C982   H107    1.109   1_565 S
C983   H1048   1.112   .     S
C983   O1082   1.414   .     S
C983   C672    1.521   1_565 S
C983   H735    1.111   1_565 S
C984   H1051   1.111   .     S
C984   H1050   1.111   .     S
C985   N1056   1.361   .     A
C985   O1060   1.376   .     S
C986   O1078   1.377   .     S
C987   O1080   1.385   .     S
C988   O1081   1.382   .     S
Cu989  N1056   2.020   .     S
Cu989  Cu990   2.689   .     S
Cu989  O1084   1.944   .     S
Cu989  O1079   1.954   .     S
Cu989  O1086   1.945   .     S
Cu989  O1057   1.945   .     S
Cu990  O1085   1.944   .     S
Cu990  N1055   2.020   .     S
Cu990  O1087   1.945   .     S
Cu990  O1068   1.945   .     S
Cu990  O1083   1.954   .     S
H1009  C1125   1.109   1_455 S
H1019  C1129   1.110   1_455 S
H1021  C1130   1.112   1_455 S
H1022  C1131   1.110   1_455 S
H1026  O1067   0.990   .     S
H1027  O1071   0.991   .     S
H1028  O1074   0.990   .     S
H1029  O1077   0.990   .     S
H1031  C664    1.110   1_565 S
H1033  C41     1.107   1_565 S
H1034  C665    1.111   1_565 S
H1038  C667    1.109   1_565 S
H1042  C668    1.112   1_565 S
H1043  C1294   1.109   .     S
H1044  C1606   1.110   .     S
H1049  C672    1.110   1_565 S
O1064  C1130   1.416   1_455 S
O1065  S1089   1.496   .     D
O1066  S1089   1.503   .     D
O1067  S1089   1.681   .     S
O1069  S1090   1.501   .     D
O1070  S1090   1.501   .     D
O1071  S1090   1.681   .     S
O1072  S1091   1.501   .     D
O1073  S1091   1.500   .     D
O1074  S1091   1.680   .     S
O1075  S1092   1.498   .     D
O1076  S1092   1.502   .     D
O1077  S1092   1.679   .     S
C1093  C1110   1.495   .     S
C1093  O1239   1.304   .     A
C1093  O1213   1.309   .     A
C1094  C1098   1.426   .     A
C1094  C1141   1.416   .     A
C1094  O1238   1.383   .     S
C1095  C1099   1.417   .     S
C1095  O1240   1.292   .     A
C1095  O1243   1.294   .     A
C1096  C1100   1.417   .     S
C1096  O1241   1.293   .     A
C1096  O1242   1.293   .     A
C1097  C1144   1.423   .     A
C1097  C1142   1.422   .     A
C1098  C1143   1.426   .     A
C1098  C785    1.533   1_565 S
C1100  C1723   1.195   .     S
C1101  O1217   1.384   .     S
C1101  C1106   1.388   .     A
C1101  C1112   1.410   .     A
C1102  C1107   1.420   .     A
C1102  C1113   1.418   .     A
C1102  O1218   1.384   .     S
C1103  C1113   1.403   .     A
C1103  O1219   1.383   .     S
C1103  C1108   1.388   .     A
C1104  O1224   1.307   .     A
C1104  O1235   1.303   .     A
C1104  C1111   1.490   .     S
C1105  O1220   1.389   .     S
C1105  C1112   1.418   .     A
C1105  C1109   1.420   .     A
C1106  C1110   1.403   .     A
C1106  S1245   1.772   .     S
C1107  C1111   1.427   .     A
C1107  S1246   1.784   .     S
C1108  S1247   1.774   .     S
C1108  C1111   1.405   .     A
C1109  C1110   1.428   .     A
C1109  S1248   1.783   .     S
C1113  C956    1.485   1_655 S
C1114  H1158   1.107   .     S
C1114  O1244   1.415   .     S
C1114  H1147   1.105   .     S
C1114  C1116   1.522   .     S
C1115  O1244   1.388   .     S
C1115  N1211   1.370   .     A
C1115  C1142   1.418   .     A
C1116  H1191   1.108   .     S
C1116  H1169   1.106   .     S
C1116  H1180   1.109   .     S
C1117  O1214   1.410   .     S
C1117  H1208   1.107   .     S
C1117  C1118   1.520   .     S
C1117  H1202   1.116   .     S
C1118  H1209   1.108   .     S
C1118  H1210   1.107   .     S
C1118  H1148   1.110   .     S
C1119  O1215   1.413   .     S
C1119  H1149   1.107   .     S
C1119  H1150   1.112   .     S
C1119  C1120   1.517   .     S
C1120  H1153   1.111   .     S
C1120  H1152   1.108   .     S
C1120  H1151   1.108   .     S
C1121  H1155   1.109   .     S
C1121  O1216   1.413   .     S
C1121  C1122   1.520   .     S
C1121  H1154   1.115   .     S
C1122  H1156   1.110   .     S
C1122  H1159   1.111   .     S
C1122  H1781   1.110   .     S
C1123  H1160   1.110   .     S
C1123  C1124   1.525   .     S
C1123  O1217   1.415   .     S
C1123  H1161   1.117   .     S
C1124  H1164   1.109   .     S
C1124  H1163   1.109   .     S
C1124  H1162   1.108   .     S
C1125  O1218   1.415   .     S
C1125  H1166   1.113   .     S
C1125  C971    1.518   1_655 S
C1125  H1009   1.109   1_655 S
C1126  C1143   1.418   .     A
C1126  O1214   1.377   .     S
C1126  N1212   1.366   .     A
C1127  H1167   1.110   .     S
C1127  H1168   1.109   .     S
C1127  H1170   1.111   .     S
C1128  C1129   1.518   .     S
C1128  H1172   1.114   .     S
C1128  O1219   1.412   .     S
C1128  H1171   1.113   .     S
C1129  H1173   1.111   .     S
C1129  H1798   1.110   .     S
C1129  H1019   1.110   1_655 S
C1130  C1131   1.522   .     S
C1130  H1176   1.106   .     S
C1130  H1021   1.112   1_655 S
C1130  O1064   1.416   1_655 S
C1131  H1179   1.110   .     S
C1131  H1181   1.111   .     S
C1131  H1022   1.110   1_655 S
C1132  O1234   1.403   .     S
C1132  C1133   1.527   .     S
C1132  H1186   1.114   .     S
C1133  H1188   1.111   .     S
C1133  H1501   1.107   .     S
C1134  H1193   1.113   .     S
C1134  O1236   1.415   .     S
C1134  C823    1.522   1_565 S
C1134  H880    1.110   1_565 S
C1135  H1196   1.110   .     S
C1135  H1195   1.110   .     S
C1136  O1237   1.404   .     S
C1136  H1197   1.114   .     S
C1137  O1215   1.385   .     S
C1137  N1211   1.369   .     A
C1137  C1144   1.417   .     A
C1138  H1201   1.110   .     S
C1138  C824    1.529   1_565 S
C1138  H263    1.109   1_565 S
C1139  H1204   1.112   .     S
C1139  O1238   1.414   .     S
C1139  C828    1.521   1_565 S
C1139  H891    1.111   1_565 S
C1140  H1207   1.111   .     S
C1140  H1206   1.111   .     S
C1141  N1212   1.361   .     A
C1141  O1216   1.376   .     S
C1142  O1234   1.377   .     S
C1143  O1236   1.385   .     S
C1144  O1237   1.382   .     S
Cu1145 N1212   2.020   .     S
Cu1145 Cu1146  2.689   .     S
Cu1145 O1240   1.944   .     S
Cu1145 O1235   1.954   .     S
Cu1145 O1242   1.945   .     S
Cu1145 O1213   1.945   .     S
Cu1146 O1241   1.944   .     S
Cu1146 N1211   2.020   .     S
Cu1146 O1243   1.945   .     S
Cu1146 O1224   1.945   .     S
Cu1146 O1239   1.954   .     S
H1182  O1223   0.990   .     S
H1183  O1227   0.991   .     S
H1184  O1230   0.990   .     S
H1185  O1233   0.990   .     S
H1187  C820    1.110   1_565 S
H1189  C197    1.107   1_565 S
H1190  C821    1.111   1_565 S
H1194  C823    1.109   1_565 S
H1198  C824    1.112   1_565 S
H1199  C1450   1.109   .     S
H1200  C1762   1.110   .     S
H1205  C828    1.110   1_565 S
O1221  S1245   1.496   .     D
O1222  S1245   1.503   .     D
O1223  S1245   1.681   .     S
O1225  S1246   1.501   .     D
O1226  S1246   1.501   .     D
O1227  S1246   1.681   .     S
O1228  S1247   1.501   .     D
O1229  S1247   1.500   .     D
O1230  S1247   1.680   .     S
O1231  S1248   1.498   .     D
O1232  S1248   1.502   .     D
O1233  S1248   1.679   .     S
C1249  C1266   1.495   .     S
C1249  O1395   1.304   .     A
C1249  O1369   1.309   .     A
C1250  C1254   1.426   .     A
C1250  C1297   1.416   .     A
C1250  O1394   1.383   .     S
C1251  C1255   1.417   .     S
C1251  O1396   1.292   .     A
C1251  O1399   1.294   .     A
C1252  C1256   1.417   .     S
C1252  O1397   1.293   .     A
C1252  O1398   1.293   .     A
C1253  C1300   1.423   .     A
C1253  C1298   1.422   .     A
C1253  C1566   1.533   1_545 S
C1254  C1299   1.426   .     A
C1254  C1565   1.533   .     S
C1256  C7      1.195   1_556 S
C1257  O1373   1.384   .     S
C1257  C1262   1.388   .     A
C1257  C1268   1.410   .     A
C1258  C1263   1.420   .     A
C1258  C1269   1.418   .     A
C1258  O1374   1.384   .     S
C1259  C1269   1.403   .     A
C1259  O1375   1.383   .     S
C1259  C1264   1.388   .     A
C1260  O1380   1.307   .     A
C1260  O1391   1.303   .     A
C1260  C1267   1.490   .     S
C1261  O1376   1.389   .     S
C1261  C1268   1.418   .     A
C1261  C1265   1.420   .     A
C1262  C1266   1.403   .     A
C1262  S1401   1.772   .     S
C1263  C1267   1.427   .     A
C1263  S1402   1.784   .     S
C1264  S1403   1.774   .     S
C1264  C1267   1.405   .     A
C1265  C1266   1.428   .     A
C1265  S1404   1.783   .     S
C1268  C1425   1.485   1_455 S
C1269  C1424   1.485   .     S
C1270  H1314   1.107   .     S
C1270  O1400   1.415   .     S
C1270  H1303   1.105   .     S
C1270  C1272   1.522   .     S
C1271  O1400   1.388   .     S
C1271  N1367   1.370   .     A
C1271  C1298   1.418   .     A
C1272  H1347   1.108   .     S
C1272  H1325   1.106   .     S
C1272  H1336   1.109   .     S
C1273  O1370   1.410   .     S
C1273  H1364   1.107   .     S
C1273  C1274   1.520   .     S
C1273  H1358   1.116   .     S
C1274  H1365   1.108   .     S
C1274  H1366   1.107   .     S
C1274  H1304   1.110   .     S
C1275  O1371   1.413   .     S
C1275  H1305   1.107   .     S
C1275  H1306   1.112   .     S
C1275  C1276   1.517   .     S
C1276  H1309   1.111   .     S
C1276  H1308   1.108   .     S
C1276  H1307   1.108   .     S
C1277  H1311   1.109   .     S
C1277  O1372   1.413   .     S
C1277  C1278   1.520   .     S
C1277  H1310   1.115   .     S
C1278  H1312   1.110   .     S
C1278  H1315   1.111   .     S
C1278  H65     1.110   1_556 S
C1279  H1316   1.110   .     S
C1279  C1280   1.525   .     S
C1279  O1373   1.415   .     S
C1279  H1317   1.117   .     S
C1280  H1320   1.109   .     S
C1280  H1319   1.109   .     S
C1280  H1318   1.108   .     S
C1281  O1374   1.415   .     S
C1281  H1322   1.113   .     S
C1281  C1439   1.518   .     S
C1281  H1477   1.109   .     S
C1282  C1299   1.418   .     A
C1282  O1370   1.377   .     S
C1282  N1368   1.366   .     A
C1283  H1323   1.110   .     S
C1283  H1324   1.109   .     S
C1283  H1326   1.111   .     S
C1283  C1437   1.518   1_455 S
C1284  C1285   1.518   .     S
C1284  H1328   1.114   .     S
C1284  O1375   1.412   .     S
C1284  H1327   1.113   .     S
C1285  H1329   1.111   .     S
C1285  H82     1.110   1_556 S
C1285  H1487   1.110   .     S
C1286  C1287   1.522   .     S
C1286  H1332   1.106   .     S
C1286  H1489   1.112   .     S
C1286  O1532   1.416   .     S
C1287  H1335   1.110   .     S
C1287  H1337   1.111   .     S
C1287  H1490   1.110   .     S
C1288  O1390   1.403   .     S
C1288  C1289   1.527   .     S
C1288  H1342   1.114   .     S
C1288  H1655   1.110   1_545 S
C1289  H1344   1.111   .     S
C1289  H409    1.107   1_546 S
C1289  H1658   1.111   1_545 S
C1290  H1349   1.113   .     S
C1290  O1392   1.415   .     S
C1290  C1603   1.522   .     S
C1290  H1660   1.110   .     S
C1291  H1352   1.110   .     S
C1291  H1351   1.110   .     S
C1291  C1602   1.522   1_545 S
C1291  H1662   1.109   1_545 S
C1292  O1393   1.404   .     S
C1292  H1353   1.114   .     S
C1292  C1606   1.529   1_545 S
C1292  H1666   1.112   1_545 S
C1293  O1371   1.385   .     S
C1293  N1367   1.369   .     A
C1293  C1300   1.417   .     A
C1294  H1357   1.110   .     S
C1294  C1604   1.529   .     S
C1295  H1360   1.112   .     S
C1295  O1394   1.414   .     S
C1295  C1608   1.521   .     S
C1295  H1671   1.111   .     S
C1296  H1363   1.111   .     S
C1296  H1362   1.111   .     S
C1296  C1607   1.521   1_545 S
C1296  H1673   1.110   1_545 S
C1297  N1368   1.361   .     A
C1297  O1372   1.376   .     S
C1298  O1390   1.377   .     S
C1299  O1392   1.385   .     S
C1300  O1393   1.382   .     S
Cu1301 N1368   2.020   .     S
Cu1301 Cu1302  2.689   .     S
Cu1301 O1396   1.944   .     S
Cu1301 O1391   1.954   .     S
Cu1301 O1398   1.945   .     S
Cu1301 O1369   1.945   .     S
Cu1302 O1397   1.944   .     S
Cu1302 N1367   2.020   .     S
Cu1302 O1399   1.945   .     S
Cu1302 O1380   1.945   .     S
Cu1302 O1395   1.954   .     S
H1321  C1437   1.109   1_455 S
H1331  C1441   1.110   1_455 S
H1333  C1442   1.112   1_455 S
H1334  C1443   1.110   1_455 S
H1338  O1379   0.990   .     S
H1339  O1383   0.991   .     S
H1340  O1386   0.990   .     S
H1341  O1389   0.990   .     S
H1343  C1600   1.110   .     S
H1346  C1601   1.111   .     S
H1348  C1602   1.110   1_545 S
H1350  C1603   1.109   .     S
H1354  C1604   1.112   .     S
H1355  C358    1.109   1_546 S
H1356  C46     1.110   1_556 S
H1359  C1607   1.111   1_545 S
H1361  C1608   1.110   .     S
O1376  C1442   1.416   1_455 S
O1377  S1401   1.496   .     D
O1378  S1401   1.503   .     D
O1379  S1401   1.681   .     S
O1381  S1402   1.501   .     D
O1382  S1402   1.501   .     D
O1383  S1402   1.681   .     S
O1384  S1403   1.501   .     D
O1385  S1403   1.500   .     D
O1386  S1403   1.680   .     S
O1387  S1404   1.498   .     D
O1388  S1404   1.502   .     D
O1389  S1404   1.679   .     S
C1405  C1422   1.495   .     S
C1405  O1551   1.304   .     A
C1405  O1525   1.309   .     A
C1406  C1410   1.426   .     A
C1406  C1453   1.416   .     A
C1406  O1550   1.383   .     S
C1407  C1411   1.417   .     S
C1407  O1552   1.292   .     A
C1407  O1555   1.294   .     A
C1408  C1412   1.417   .     S
C1408  O1553   1.293   .     A
C1408  O1554   1.293   .     A
C1409  C1456   1.423   .     A
C1409  C1454   1.422   .     A
C1409  C1722   1.533   1_545 S
C1410  C1455   1.426   .     A
C1410  C1721   1.533   .     S
C1412  C163    1.195   1_556 S
C1413  O1529   1.384   .     S
C1413  C1418   1.388   .     A
C1413  C1424   1.410   .     A
C1414  C1419   1.420   .     A
C1414  C1425   1.418   .     A
C1414  O1530   1.384   .     S
C1415  C1425   1.403   .     A
C1415  O1531   1.383   .     S
C1415  C1420   1.388   .     A
C1416  O1536   1.307   .     A
C1416  O1547   1.303   .     A
C1416  C1423   1.490   .     S
C1417  O1532   1.389   .     S
C1417  C1424   1.418   .     A
C1417  C1421   1.420   .     A
C1418  C1422   1.403   .     A
C1418  S1557   1.772   .     S
C1419  C1423   1.427   .     A
C1419  S1558   1.784   .     S
C1420  S1559   1.774   .     S
C1420  C1423   1.405   .     A
C1421  C1422   1.428   .     A
C1421  S1560   1.783   .     S
C1425  C1268   1.485   1_655 S
C1426  H1470   1.107   .     S
C1426  O1556   1.415   .     S
C1426  H1459   1.105   .     S
C1426  C1428   1.522   .     S
C1427  O1556   1.388   .     S
C1427  N1523   1.370   .     A
C1427  C1454   1.418   .     A
C1428  H1503   1.108   .     S
C1428  H1481   1.106   .     S
C1428  H1492   1.109   .     S
C1429  O1526   1.410   .     S
C1429  H1520   1.107   .     S
C1429  C1430   1.520   .     S
C1429  H1514   1.116   .     S
C1430  H1521   1.108   .     S
C1430  H1522   1.107   .     S
C1430  H1460   1.110   .     S
C1431  O1527   1.413   .     S
C1431  H1461   1.107   .     S
C1431  H1462   1.112   .     S
C1431  C1432   1.517   .     S
C1432  H1465   1.111   .     S
C1432  H1464   1.108   .     S
C1432  H1463   1.108   .     S
C1433  H1467   1.109   .     S
C1433  O1528   1.413   .     S
C1433  C1434   1.520   .     S
C1433  H1466   1.115   .     S
C1434  H1468   1.110   .     S
C1434  H1471   1.111   .     S
C1434  H221    1.110   1_556 S
C1435  H1472   1.110   .     S
C1435  C1436   1.525   .     S
C1435  O1529   1.415   .     S
C1435  H1473   1.117   .     S
C1436  H1476   1.109   .     S
C1436  H1475   1.109   .     S
C1436  H1474   1.108   .     S
C1437  O1530   1.415   .     S
C1437  H1478   1.113   .     S
C1437  C1283   1.518   1_655 S
C1437  H1321   1.109   1_655 S
C1438  C1455   1.418   .     A
C1438  O1526   1.377   .     S
C1438  N1524   1.366   .     A
C1439  H1479   1.110   .     S
C1439  H1480   1.109   .     S
C1439  H1482   1.111   .     S
C1440  C1441   1.518   .     S
C1440  H1484   1.114   .     S
C1440  O1531   1.412   .     S
C1440  H1483   1.113   .     S
C1441  H1485   1.111   .     S
C1441  H238    1.110   1_556 S
C1441  H1331   1.110   1_655 S
C1442  C1443   1.522   .     S
C1442  H1488   1.106   .     S
C1442  H1333   1.112   1_655 S
C1442  O1376   1.416   1_655 S
C1443  H1491   1.110   .     S
C1443  H1493   1.111   .     S
C1443  H1334   1.110   1_655 S
C1444  O1546   1.403   .     S
C1444  C1445   1.527   .     S
C1444  H1498   1.114   .     S
C1444  H1811   1.110   1_545 S
C1445  H1500   1.111   .     S
C1445  H565    1.107   1_546 S
C1445  H1814   1.111   1_545 S
C1446  H1505   1.113   .     S
C1446  O1548   1.415   .     S
C1446  C1759   1.522   .     S
C1446  H1816   1.110   .     S
C1447  H1508   1.110   .     S
C1447  H1507   1.110   .     S
C1447  C1758   1.522   1_545 S
C1447  H1818   1.109   1_545 S
C1448  O1549   1.404   .     S
C1448  H1509   1.114   .     S
C1448  C1762   1.529   1_545 S
C1448  H1822   1.112   1_545 S
C1449  O1527   1.385   .     S
C1449  N1523   1.369   .     A
C1449  C1456   1.417   .     A
C1450  H1513   1.110   .     S
C1450  C1760   1.529   .     S
C1451  H1516   1.112   .     S
C1451  O1550   1.414   .     S
C1451  C1764   1.521   .     S
C1451  H1827   1.111   .     S
C1452  H1519   1.111   .     S
C1452  H1518   1.111   .     S
C1452  C1763   1.521   1_545 S
C1452  H1829   1.110   1_545 S
C1453  N1524   1.361   .     A
C1453  O1528   1.376   .     S
C1454  O1546   1.377   .     S
C1455  O1548   1.385   .     S
C1456  O1549   1.382   .     S
Cu1457 N1524   2.020   .     S
Cu1457 Cu1458  2.689   .     S
Cu1457 O1552   1.944   .     S
Cu1457 O1547   1.954   .     S
Cu1457 O1554   1.945   .     S
Cu1457 O1525   1.945   .     S
Cu1458 O1553   1.944   .     S
Cu1458 N1523   2.020   .     S
Cu1458 O1555   1.945   .     S
Cu1458 O1536   1.945   .     S
Cu1458 O1551   1.954   .     S
H1494  O1535   0.990   .     S
H1495  O1539   0.991   .     S
H1496  O1542   0.990   .     S
H1497  O1545   0.990   .     S
H1499  C1756   1.110   .     S
H1502  C1757   1.111   .     S
H1504  C1758   1.110   1_545 S
H1506  C1759   1.109   .     S
H1510  C1760   1.112   .     S
H1511  C514    1.109   1_546 S
H1512  C202    1.110   1_556 S
H1515  C1763   1.111   1_545 S
H1517  C1764   1.110   .     S
O1533  S1557   1.496   .     D
O1534  S1557   1.503   .     D
O1535  S1557   1.681   .     S
O1537  S1558   1.501   .     D
O1538  S1558   1.501   .     D
O1539  S1558   1.681   .     S
O1540  S1559   1.501   .     D
O1541  S1559   1.500   .     D
O1542  S1559   1.680   .     S
O1543  S1560   1.498   .     D
O1544  S1560   1.502   .     D
O1545  S1560   1.679   .     S
C1561  C1578   1.495   .     S
C1561  O1707   1.304   .     A
C1561  O1681   1.309   .     A
C1562  C1566   1.426   .     A
C1562  C1609   1.416   .     A
C1562  O1706   1.383   .     S
C1563  C1567   1.417   .     S
C1563  O1708   1.292   .     A
C1563  O1711   1.294   .     A
C1564  C1568   1.417   .     S
C1564  O1709   1.293   .     A
C1564  O1710   1.293   .     A
C1565  C1612   1.423   .     A
C1565  C1610   1.422   .     A
C1566  C1611   1.426   .     A
C1566  C1253   1.533   1_565 S
C1568  C319    1.195   1_556 S
C1569  O1685   1.384   .     S
C1569  C1574   1.388   .     A
C1569  C1580   1.410   .     A
C1570  C1575   1.420   .     A
C1570  C1581   1.418   .     A
C1570  O1686   1.384   .     S
C1571  C1581   1.403   .     A
C1571  O1687   1.383   .     S
C1571  C1576   1.388   .     A
C1572  O1692   1.307   .     A
C1572  O1703   1.303   .     A
C1572  C1579   1.490   .     S
C1573  O1688   1.389   .     S
C1573  C1580   1.418   .     A
C1573  C1577   1.420   .     A
C1574  C1578   1.403   .     A
C1574  S1713   1.772   .     S
C1575  C1579   1.427   .     A
C1575  S1714   1.784   .     S
C1576  S1715   1.774   .     S
C1576  C1579   1.405   .     A
C1577  C1578   1.428   .     A
C1577  S1716   1.783   .     S
C1580  C1737   1.485   1_455 S
C1581  C1736   1.485   .     S
C1582  H1626   1.107   .     S
C1582  O1712   1.415   .     S
C1582  H1615   1.105   .     S
C1582  C1584   1.522   .     S
C1583  O1712   1.388   .     S
C1583  N1679   1.370   .     A
C1583  C1610   1.418   .     A
C1584  H1659   1.108   .     S
C1584  H1637   1.106   .     S
C1584  H1648   1.109   .     S
C1585  O1682   1.410   .     S
C1585  H1676   1.107   .     S
C1585  C1586   1.520   .     S
C1585  H1670   1.116   .     S
C1586  H1677   1.108   .     S
C1586  H1678   1.107   .     S
C1586  H1616   1.110   .     S
C1587  O1683   1.413   .     S
C1587  H1617   1.107   .     S
C1587  H1618   1.112   .     S
C1587  C1588   1.517   .     S
C1588  H1621   1.111   .     S
C1588  H1620   1.108   .     S
C1588  H1619   1.108   .     S
C1589  H1623   1.109   .     S
C1589  O1684   1.413   .     S
C1589  C1590   1.520   .     S
C1589  H1622   1.115   .     S
C1590  H1624   1.110   .     S
C1590  H1627   1.111   .     S
C1590  H377    1.110   1_556 S
C1591  H1628   1.110   .     S
C1591  C1592   1.525   .     S
C1591  O1685   1.415   .     S
C1591  H1629   1.117   .     S
C1592  H1632   1.109   .     S
C1592  H1631   1.109   .     S
C1592  H1630   1.108   .     S
C1593  O1686   1.415   .     S
C1593  H1634   1.113   .     S
C1593  C1751   1.518   .     S
C1593  H1789   1.109   .     S
C1594  C1611   1.418   .     A
C1594  O1682   1.377   .     S
C1594  N1680   1.366   .     A
C1595  H1635   1.110   .     S
C1595  H1636   1.109   .     S
C1595  H1638   1.111   .     S
C1595  C1749   1.518   1_455 S
C1596  C1597   1.518   .     S
C1596  H1640   1.114   .     S
C1596  O1687   1.412   .     S
C1596  H1639   1.113   .     S
C1597  H1641   1.111   .     S
C1597  H394    1.110   1_556 S
C1597  H1799   1.110   .     S
C1598  C1599   1.522   .     S
C1598  H1644   1.106   .     S
C1598  H1801   1.112   .     S
C1598  O1844   1.416   .     S
C1599  H1647   1.110   .     S
C1599  H1649   1.111   .     S
C1599  H1802   1.110   .     S
C1600  O1702   1.403   .     S
C1600  C1601   1.527   .     S
C1600  H1654   1.114   .     S
C1601  H1656   1.111   .     S
C1601  H97     1.107   1_556 S
C1602  H1661   1.113   .     S
C1602  O1704   1.415   .     S
C1602  C1291   1.522   1_565 S
C1602  H1348   1.110   1_565 S
C1603  H1664   1.110   .     S
C1603  H1663   1.110   .     S
C1604  O1705   1.404   .     S
C1604  H1665   1.114   .     S
C1605  O1683   1.385   .     S
C1605  N1679   1.369   .     A
C1605  C1612   1.417   .     A
C1606  H1669   1.110   .     S
C1606  C1292   1.529   1_565 S
C1606  H731    1.109   1_565 S
C1607  H1672   1.112   .     S
C1607  O1706   1.414   .     S
C1607  C1296   1.521   1_565 S
C1607  H1359   1.111   1_565 S
C1608  H1675   1.111   .     S
C1608  H1674   1.111   .     S
C1609  N1680   1.361   .     A
C1609  O1684   1.376   .     S
C1610  O1702   1.377   .     S
C1611  O1704   1.385   .     S
C1612  O1705   1.382   .     S
Cu1613 N1680   2.020   .     S
Cu1613 Cu1614  2.689   .     S
Cu1613 O1708   1.944   .     S
Cu1613 O1703   1.954   .     S
Cu1613 O1710   1.945   .     S
Cu1613 O1681   1.945   .     S
Cu1614 O1709   1.944   .     S
Cu1614 N1679   2.020   .     S
Cu1614 O1711   1.945   .     S
Cu1614 O1692   1.945   .     S
Cu1614 O1707   1.954   .     S
H1633  C1749   1.109   1_455 S
H1643  C1753   1.110   1_455 S
H1645  C1754   1.112   1_455 S
H1646  C1755   1.110   1_455 S
H1650  O1691   0.990   .     S
H1651  O1695   0.991   .     S
H1652  O1698   0.990   .     S
H1653  O1701   0.990   .     S
H1655  C1288   1.110   1_565 S
H1657  C665    1.107   1_565 S
H1658  C1289   1.111   1_565 S
H1662  C1291   1.109   1_565 S
H1666  C1292   1.112   1_565 S
H1667  C46     1.109   1_556 S
H1668  C358    1.110   1_556 S
H1673  C1296   1.110   1_565 S
O1688  C1754   1.416   1_455 S
O1689  S1713   1.496   .     D
O1690  S1713   1.503   .     D
O1691  S1713   1.681   .     S
O1693  S1714   1.501   .     D
O1694  S1714   1.501   .     D
O1695  S1714   1.681   .     S
O1696  S1715   1.501   .     D
O1697  S1715   1.500   .     D
O1698  S1715   1.680   .     S
O1699  S1716   1.498   .     D
O1700  S1716   1.502   .     D
O1701  S1716   1.679   .     S
C1717  C1734   1.495   .     S
C1717  O1863   1.304   .     A
C1717  O1837   1.309   .     A
C1718  C1722   1.426   .     A
C1718  C1765   1.416   .     A
C1718  O1862   1.383   .     S
C1719  C1723   1.417   .     S
C1719  O1864   1.292   .     A
C1719  O1867   1.294   .     A
C1720  C1724   1.417   .     S
C1720  O1865   1.293   .     A
C1720  O1866   1.293   .     A
C1721  C1768   1.423   .     A
C1721  C1766   1.422   .     A
C1722  C1767   1.426   .     A
C1722  C1409   1.533   1_565 S
C1724  C475    1.195   1_556 S
C1725  O1841   1.384   .     S
C1725  C1730   1.388   .     A
C1725  C1736   1.410   .     A
C1726  C1731   1.420   .     A
C1726  C1737   1.418   .     A
C1726  O1842   1.384   .     S
C1727  C1737   1.403   .     A
C1727  O1843   1.383   .     S
C1727  C1732   1.388   .     A
C1728  O1848   1.307   .     A
C1728  O1859   1.303   .     A
C1728  C1735   1.490   .     S
C1729  O1844   1.389   .     S
C1729  C1736   1.418   .     A
C1729  C1733   1.420   .     A
C1730  C1734   1.403   .     A
C1730  S1869   1.772   .     S
C1731  C1735   1.427   .     A
C1731  S1870   1.784   .     S
C1732  S1871   1.774   .     S
C1732  C1735   1.405   .     A
C1733  C1734   1.428   .     A
C1733  S1872   1.783   .     S
C1737  C1580   1.485   1_655 S
C1738  H1782   1.107   .     S
C1738  O1868   1.415   .     S
C1738  H1771   1.105   .     S
C1738  C1740   1.522   .     S
C1739  O1868   1.388   .     S
C1739  N1835   1.370   .     A
C1739  C1766   1.418   .     A
C1740  H1815   1.108   .     S
C1740  H1793   1.106   .     S
C1740  H1804   1.109   .     S
C1741  O1838   1.410   .     S
C1741  H1832   1.107   .     S
C1741  C1742   1.520   .     S
C1741  H1826   1.116   .     S
C1742  H1833   1.108   .     S
C1742  H1834   1.107   .     S
C1742  H1772   1.110   .     S
C1743  O1839   1.413   .     S
C1743  H1773   1.107   .     S
C1743  H1774   1.112   .     S
C1743  C1744   1.517   .     S
C1744  H1777   1.111   .     S
C1744  H1776   1.108   .     S
C1744  H1775   1.108   .     S
C1745  H1779   1.109   .     S
C1745  O1840   1.413   .     S
C1745  C1746   1.520   .     S
C1745  H1778   1.115   .     S
C1746  H1780   1.110   .     S
C1746  H1783   1.111   .     S
C1746  H533    1.110   1_556 S
C1747  H1784   1.110   .     S
C1747  C1748   1.525   .     S
C1747  O1841   1.415   .     S
C1747  H1785   1.117   .     S
C1748  H1788   1.109   .     S
C1748  H1787   1.109   .     S
C1748  H1786   1.108   .     S
C1749  O1842   1.415   .     S
C1749  H1790   1.113   .     S
C1749  C1595   1.518   1_655 S
C1749  H1633   1.109   1_655 S
C1750  C1767   1.418   .     A
C1750  O1838   1.377   .     S
C1750  N1836   1.366   .     A
C1751  H1791   1.110   .     S
C1751  H1792   1.109   .     S
C1751  H1794   1.111   .     S
C1752  C1753   1.518   .     S
C1752  H1796   1.114   .     S
C1752  O1843   1.412   .     S
C1752  H1795   1.113   .     S
C1753  H1797   1.111   .     S
C1753  H550    1.110   1_556 S
C1753  H1643   1.110   1_655 S
C1754  C1755   1.522   .     S
C1754  H1800   1.106   .     S
C1754  H1645   1.112   1_655 S
C1754  O1688   1.416   1_655 S
C1755  H1803   1.110   .     S
C1755  H1805   1.111   .     S
C1755  H1646   1.110   1_655 S
C1756  O1858   1.403   .     S
C1756  C1757   1.527   .     S
C1756  H1810   1.114   .     S
C1757  H1812   1.111   .     S
C1757  H253    1.107   1_556 S
C1758  H1817   1.113   .     S
C1758  O1860   1.415   .     S
C1758  C1447   1.522   1_565 S
C1758  H1504   1.110   1_565 S
C1759  H1820   1.110   .     S
C1759  H1819   1.110   .     S
C1760  O1861   1.404   .     S
C1760  H1821   1.114   .     S
C1761  O1839   1.385   .     S
C1761  N1835   1.369   .     A
C1761  C1768   1.417   .     A
C1762  H1825   1.110   .     S
C1762  C1448   1.529   1_565 S
C1762  H887    1.109   1_565 S
C1763  H1828   1.112   .     S
C1763  O1862   1.414   .     S
C1763  C1452   1.521   1_565 S
C1763  H1515   1.111   1_565 S
C1764  H1831   1.111   .     S
C1764  H1830   1.111   .     S
C1765  N1836   1.361   .     A
C1765  O1840   1.376   .     S
C1766  O1858   1.377   .     S
C1767  O1860   1.385   .     S
C1768  O1861   1.382   .     S
Cu1769 N1836   2.020   .     S
Cu1769 Cu1770  2.689   .     S
Cu1769 O1864   1.944   .     S
Cu1769 O1859   1.954   .     S
Cu1769 O1866   1.945   .     S
Cu1769 O1837   1.945   .     S
Cu1770 O1865   1.944   .     S
Cu1770 N1835   2.020   .     S
Cu1770 O1867   1.945   .     S
Cu1770 O1848   1.945   .     S
Cu1770 O1863   1.954   .     S
H1806  O1847   0.990   .     S
H1807  O1851   0.991   .     S
H1808  O1854   0.990   .     S
H1809  O1857   0.990   .     S
H1811  C1444   1.110   1_565 S
H1813  C821    1.107   1_565 S
H1814  C1445   1.111   1_565 S
H1818  C1447   1.109   1_565 S
H1822  C1448   1.112   1_565 S
H1823  C202    1.109   1_556 S
H1824  C514    1.110   1_556 S
H1829  C1452   1.110   1_565 S
O1845  S1869   1.496   .     D
O1846  S1869   1.503   .     D
O1847  S1869   1.681   .     S
O1849  S1870   1.501   .     D
O1850  S1870   1.501   .     D
O1851  S1870   1.681   .     S
O1852  S1871   1.501   .     D
O1853  S1871   1.500   .     D
O1854  S1871   1.680   .     S
O1855  S1872   1.498   .     D
O1856  S1872   1.502   .     D
O1857  S1872   1.679   .     S
