data_str_m2_o2_o10_pcu_sym.119
_audit_creation_date              2020-01-03
_audit_creation_method            'Materials Studio'
_symmetry_space_group_name_H-M    'P1'
_symmetry_Int_Tables_number       1
_symmetry_cell_setting            triclinic
loop_
_symmetry_equiv_pos_as_xyz
  x,y,z
_cell_length_a                    26.1914
_cell_length_b                    30.2632
_cell_length_c                    27.8031
_cell_angle_alpha                 90.2418
_cell_angle_beta                  97.7177
_cell_angle_gamma                 90.5537
loop_
_atom_site_label
_atom_site_type_symbol
_atom_site_fract_x
_atom_site_fract_y
_atom_site_fract_z
_atom_site_U_iso_or_equiv
_atom_site_adp_type
_atom_site_occupancy
C1     C     0.16625   0.16480   0.24983   0.00000  Uiso   1.00
C2     C     0.20661   0.27102   0.45076   0.00000  Uiso   1.00
C3     C     0.16781   0.24920   0.02752   0.00000  Uiso   1.00
C4     C     0.16788   0.24926   0.47271   0.00000  Uiso   1.00
C5     C     0.06794   0.25000   0.23761   0.00000  Uiso   1.00
C6     C     0.26538   0.25053   0.26237   0.00000  Uiso   1.00
C7     C     0.01270   0.24979   0.23072   0.00000  Uiso   1.00
C8     C     0.32060   0.25170   0.26913   0.00000  Uiso   1.00
C9     C     0.19054   0.04624   0.28773   0.00000  Uiso   1.00
C10    C     0.12831   0.45191   0.22570   0.00000  Uiso   1.00
C11    C     0.18821   0.09215   0.29016   0.00000  Uiso   1.00
C12    C     0.16707   0.33476   0.25014   0.00000  Uiso   1.00
C13    C     0.12602   0.40596   0.22692   0.00000  Uiso   1.00
C14    C     0.16634   0.11606   0.24905   0.00000  Uiso   1.00
C15    C     0.16832   0.38269   0.25023   0.00000  Uiso   1.00
C16    C     0.14655   0.09298   0.20598   0.00000  Uiso   1.00
C17    C     0.21316   0.40518   0.27100   0.00000  Uiso   1.00
C18    C     0.15290   0.04710   0.20297   0.00000  Uiso   1.00
C19    C     0.21692   0.45115   0.26569   0.00000  Uiso   1.00
C20    C     0.17320   0.02349   0.24467   0.00000  Uiso   1.00
C21    C     0.17335   0.47481   0.24470   0.00000  Uiso   1.00
C22    C     0.17566   0.11249   0.37149   0.00000  Uiso   1.00
C23    C     0.19523   0.28142   0.05768   0.00000  Uiso   1.00
C24    C     0.04625   0.37118   0.24015   0.00000  Uiso   1.00
C25    C     0.06546   0.12388   0.17151   0.00000  Uiso   1.00
C26    C     0.25569   0.38024   0.34799   0.00000  Uiso   1.00
C27    C     0.17748   0.01729   0.13474   0.00000  Uiso   1.00
C28    C     0.29047   0.48163   0.24500   0.00000  Uiso   1.00
C29    C     0.21445   0.35480   0.12503   0.00000  Uiso   1.00
C30    C     0.04856   0.18999   0.37644   0.00000  Uiso   1.00
C31    C     0.12886   0.22741   0.44135   0.00000  Uiso   1.00
C32    C     0.19445   0.28152   0.10858   0.00000  Uiso   1.00
C33    C     0.12890   0.22714   0.39004   0.00000  Uiso   1.00
C34    C     0.13963   0.21854   0.10122   0.00000  Uiso   1.00
C35    C     0.20493   0.27141   0.40005   0.00000  Uiso   1.00
C36    C     0.14027   0.21712   0.05079   0.00000  Uiso   1.00
Cu37   Cu    0.16667   0.24999   0.29821   0.00000  Uiso   1.00
Cu38   Cu    0.16667   0.25000   0.20178   0.00000  Uiso   1.00
H39    H     0.32619   0.24777   0.19382   0.00000  Uiso   1.00
H40    H     0.23889   0.28729   0.47217   0.00000  Uiso   1.00
H41    H     0.24586   0.10437   0.34666   0.00000  Uiso   1.00
H42    H     0.17357   0.07834   0.38569   0.00000  Uiso   1.00
H43    H     0.13624   0.12342   0.35708   0.00000  Uiso   1.00
H44    H     0.19130   0.13487   0.40177   0.00000  Uiso   1.00
H45    H     0.06135   0.39932   0.17596   0.00000  Uiso   1.00
H46    H     0.03446   0.40123   0.25869   0.00000  Uiso   1.00
H47    H     0.06542   0.34818   0.26771   0.00000  Uiso   1.00
H48    H     0.01142   0.35439   0.22093   0.00000  Uiso   1.00
H49    H     0.12281   0.10292   0.13235   0.00000  Uiso   1.00
H50    H     0.00709   0.25428   0.30594   0.00000  Uiso   1.00
H51    H     0.04410   0.09211   0.17302   0.00000  Uiso   1.00
H52    H     0.04710   0.14315   0.14007   0.00000  Uiso   1.00
H53    H     0.06285   0.14331   0.20508   0.00000  Uiso   1.00
H54    H     0.29024   0.39051   0.28658   0.00000  Uiso   1.00
H55    H     0.26319   0.41390   0.36363   0.00000  Uiso   1.00
H56    H     0.28673   0.35799   0.36424   0.00000  Uiso   1.00
H57    H     0.21832   0.36767   0.35742   0.00000  Uiso   1.00
H58    H     0.20363   0.49229   0.15366   0.00000  Uiso   1.00
H59    H     0.19923   0.04826   0.12917   0.00000  Uiso   1.00
H60    H     0.16268   0.00370   0.09838   0.00000  Uiso   1.00
H61    H     0.20540   0.02824   0.32013   0.00000  Uiso   1.00
H62    H     0.29442   0.45177   0.22225   0.00000  Uiso   1.00
H63    H     0.32988   0.49263   0.26021   0.00000  Uiso   1.00
H64    H     0.27261   0.00887   0.22215   0.00000  Uiso   1.00
H65    H     0.17231   0.36078   0.11616   0.00000  Uiso   1.00
H66    H     0.23511   0.36461   0.09434   0.00000  Uiso   1.00
H67    H     0.22887   0.37660   0.15621   0.00000  Uiso   1.00
H68    H     0.02066   0.17703   0.34597   0.00000  Uiso   1.00
H69    H     0.03032   0.21885   0.39203   0.00000  Uiso   1.00
H70    H     0.05589   0.16277   0.40310   0.00000  Uiso   1.00
H71    H     0.09426   0.46977   0.21063   0.00000  Uiso   1.00
H72    H     0.21753   0.30650   0.04226   0.00000  Uiso   1.00
H73    H     0.09857   0.21073   0.45687   0.00000  Uiso   1.00
H74    H     0.11779   0.19395   0.11797   0.00000  Uiso   1.00
H75    H     0.23505   0.28837   0.38421   0.00000  Uiso   1.00
H76    H     0.11973   0.19025   0.03085   0.00000  Uiso   1.00
N77    N     0.16667   0.25001   0.12934   0.00000  Uiso   1.00
N78    N     0.16667   0.24999   0.37065   0.00000  Uiso   1.00
N79    N     0.20886   0.11406   0.33393   0.00000  Uiso   1.00
N80    N     0.08053   0.38337   0.20568   0.00000  Uiso   1.00
N81    N     0.11872   0.11564   0.16606   0.00000  Uiso   1.00
N82    N     0.25503   0.38121   0.29592   0.00000  Uiso   1.00
O83    O     0.16667   0.18572   0.29071   0.00000  Uiso   1.00
O84    O     0.26236   0.47269   0.28380   0.00000  Uiso   1.00
O85    O     0.22535   0.31059   0.13855   0.00000  Uiso   1.00
O86    O     0.09429   0.20218   0.35805   0.00000  Uiso   1.00
O87    O     0.16666   0.31427   0.20928   0.00000  Uiso   1.00
O88    O     0.16667   0.18573   0.20928   0.00000  Uiso   1.00
O89    O     0.16666   0.31427   0.29072   0.00000  Uiso   1.00
O90    O     0.09161   0.24999   0.28132   0.00000  Uiso   1.00
O91    O     0.24172   0.25000   0.21868   0.00000  Uiso   1.00
O92    O     0.09161   0.25000   0.19988   0.00000  Uiso   1.00
O93    O     0.24172   0.25000   0.30011   0.00000  Uiso   1.00
O94    O     0.13523   0.02528   0.16001   0.00000  Uiso   1.00
C95    C     0.49959   0.16480   0.24983   0.00000  Uiso   1.00
C96    C     0.53994   0.27102   0.45076   0.00000  Uiso   1.00
C97    C     0.50115   0.24920   0.02752   0.00000  Uiso   1.00
C98    C     0.50122   0.24926   0.47271   0.00000  Uiso   1.00
C99    C     0.40128   0.25000   0.23761   0.00000  Uiso   1.00
C100   C     0.59872   0.25053   0.26237   0.00000  Uiso   1.00
C101   C     0.34603   0.24979   0.23072   0.00000  Uiso   1.00
C102   C     0.65394   0.25170   0.26913   0.00000  Uiso   1.00
C103   C     0.52388   0.04624   0.28773   0.00000  Uiso   1.00
C104   C     0.46164   0.45191   0.22570   0.00000  Uiso   1.00
C105   C     0.52154   0.09215   0.29016   0.00000  Uiso   1.00
C106   C     0.50040   0.33476   0.25014   0.00000  Uiso   1.00
C107   C     0.45935   0.40596   0.22692   0.00000  Uiso   1.00
C108   C     0.49967   0.11606   0.24905   0.00000  Uiso   1.00
C109   C     0.50166   0.38269   0.25023   0.00000  Uiso   1.00
C110   C     0.47988   0.09298   0.20598   0.00000  Uiso   1.00
C111   C     0.54649   0.40518   0.27100   0.00000  Uiso   1.00
C112   C     0.48624   0.04710   0.20297   0.00000  Uiso   1.00
C113   C     0.55026   0.45115   0.26569   0.00000  Uiso   1.00
C114   C     0.50653   0.02349   0.24467   0.00000  Uiso   1.00
C115   C     0.50668   0.47481   0.24470   0.00000  Uiso   1.00
C116   C     0.50899   0.11249   0.37149   0.00000  Uiso   1.00
C117   C     0.52857   0.28142   0.05768   0.00000  Uiso   1.00
C118   C     0.37958   0.37118   0.24015   0.00000  Uiso   1.00
C119   C     0.39879   0.12388   0.17151   0.00000  Uiso   1.00
C120   C     0.58902   0.38024   0.34799   0.00000  Uiso   1.00
C121   C     0.51081   0.01729   0.13474   0.00000  Uiso   1.00
C122   C     0.62380   0.48163   0.24500   0.00000  Uiso   1.00
C123   C     0.54778   0.35480   0.12503   0.00000  Uiso   1.00
C124   C     0.38189   0.18999   0.37644   0.00000  Uiso   1.00
C125   C     0.46220   0.22741   0.44135   0.00000  Uiso   1.00
C126   C     0.52779   0.28152   0.10858   0.00000  Uiso   1.00
C127   C     0.46223   0.22714   0.39004   0.00000  Uiso   1.00
C128   C     0.47297   0.21854   0.10122   0.00000  Uiso   1.00
C129   C     0.53826   0.27141   0.40005   0.00000  Uiso   1.00
C130   C     0.47360   0.21712   0.05079   0.00000  Uiso   1.00
Cu131  Cu    0.50000   0.24999   0.29821   0.00000  Uiso   1.00
Cu132  Cu    0.50000   0.25000   0.20178   0.00000  Uiso   1.00
H133   H     0.65953   0.24777   0.19382   0.00000  Uiso   1.00
H134   H     0.57222   0.28729   0.47217   0.00000  Uiso   1.00
H135   H     0.57919   0.10437   0.34666   0.00000  Uiso   1.00
H136   H     0.50690   0.07834   0.38569   0.00000  Uiso   1.00
H137   H     0.46957   0.12342   0.35708   0.00000  Uiso   1.00
H138   H     0.52464   0.13487   0.40177   0.00000  Uiso   1.00
H139   H     0.39468   0.39932   0.17596   0.00000  Uiso   1.00
H140   H     0.36779   0.40123   0.25869   0.00000  Uiso   1.00
H141   H     0.39876   0.34818   0.26771   0.00000  Uiso   1.00
H142   H     0.34475   0.35439   0.22093   0.00000  Uiso   1.00
H143   H     0.45614   0.10292   0.13235   0.00000  Uiso   1.00
H144   H     0.34043   0.25428   0.30594   0.00000  Uiso   1.00
H145   H     0.37743   0.09211   0.17302   0.00000  Uiso   1.00
H146   H     0.38043   0.14315   0.14007   0.00000  Uiso   1.00
H147   H     0.39619   0.14331   0.20508   0.00000  Uiso   1.00
H148   H     0.62357   0.39051   0.28658   0.00000  Uiso   1.00
H149   H     0.59652   0.41390   0.36363   0.00000  Uiso   1.00
H150   H     0.62006   0.35799   0.36424   0.00000  Uiso   1.00
H151   H     0.55165   0.36767   0.35742   0.00000  Uiso   1.00
H152   H     0.53696   0.49229   0.15366   0.00000  Uiso   1.00
H153   H     0.53257   0.04826   0.12917   0.00000  Uiso   1.00
H154   H     0.49601   0.00370   0.09838   0.00000  Uiso   1.00
H155   H     0.53873   0.02824   0.32013   0.00000  Uiso   1.00
H156   H     0.62776   0.45177   0.22225   0.00000  Uiso   1.00
H157   H     0.66322   0.49263   0.26021   0.00000  Uiso   1.00
H158   H     0.60595   0.00887   0.22215   0.00000  Uiso   1.00
H159   H     0.50564   0.36078   0.11616   0.00000  Uiso   1.00
H160   H     0.56844   0.36461   0.09434   0.00000  Uiso   1.00
H161   H     0.56221   0.37660   0.15621   0.00000  Uiso   1.00
H162   H     0.35400   0.17703   0.34597   0.00000  Uiso   1.00
H163   H     0.36366   0.21885   0.39203   0.00000  Uiso   1.00
H164   H     0.38922   0.16277   0.40310   0.00000  Uiso   1.00
H165   H     0.42759   0.46977   0.21063   0.00000  Uiso   1.00
H166   H     0.55086   0.30650   0.04226   0.00000  Uiso   1.00
H167   H     0.43190   0.21073   0.45687   0.00000  Uiso   1.00
H168   H     0.45112   0.19395   0.11797   0.00000  Uiso   1.00
H169   H     0.56839   0.28837   0.38421   0.00000  Uiso   1.00
H170   H     0.45307   0.19025   0.03085   0.00000  Uiso   1.00
N171   N     0.50000   0.25001   0.12934   0.00000  Uiso   1.00
N172   N     0.50000   0.24999   0.37065   0.00000  Uiso   1.00
N173   N     0.54220   0.11406   0.33393   0.00000  Uiso   1.00
N174   N     0.41386   0.38337   0.20568   0.00000  Uiso   1.00
N175   N     0.45205   0.11564   0.16606   0.00000  Uiso   1.00
N176   N     0.58836   0.38121   0.29592   0.00000  Uiso   1.00
O177   O     0.50000   0.18572   0.29071   0.00000  Uiso   1.00
O178   O     0.59569   0.47269   0.28380   0.00000  Uiso   1.00
O179   O     0.55868   0.31059   0.13855   0.00000  Uiso   1.00
O180   O     0.42762   0.20218   0.35805   0.00000  Uiso   1.00
O181   O     0.50000   0.31427   0.20928   0.00000  Uiso   1.00
O182   O     0.50000   0.18573   0.20928   0.00000  Uiso   1.00
O183   O     0.50000   0.31427   0.29072   0.00000  Uiso   1.00
O184   O     0.42495   0.24999   0.28132   0.00000  Uiso   1.00
O185   O     0.57505   0.25000   0.21868   0.00000  Uiso   1.00
O186   O     0.42495   0.25000   0.19988   0.00000  Uiso   1.00
O187   O     0.57505   0.25000   0.30011   0.00000  Uiso   1.00
O188   O     0.46857   0.02528   0.16001   0.00000  Uiso   1.00
C189   C     0.83292   0.16480   0.24983   0.00000  Uiso   1.00
C190   C     0.87328   0.27102   0.45076   0.00000  Uiso   1.00
C191   C     0.83448   0.24920   0.02752   0.00000  Uiso   1.00
C192   C     0.83455   0.24926   0.47271   0.00000  Uiso   1.00
C193   C     0.73461   0.25000   0.23761   0.00000  Uiso   1.00
C194   C     0.93205   0.25053   0.26237   0.00000  Uiso   1.00
C195   C     0.67936   0.24979   0.23072   0.00000  Uiso   1.00
C196   C     0.98727   0.25170   0.26913   0.00000  Uiso   1.00
C197   C     0.85721   0.04624   0.28773   0.00000  Uiso   1.00
C198   C     0.79497   0.45191   0.22570   0.00000  Uiso   1.00
C199   C     0.85487   0.09215   0.29016   0.00000  Uiso   1.00
C200   C     0.83374   0.33476   0.25014   0.00000  Uiso   1.00
C201   C     0.79268   0.40596   0.22692   0.00000  Uiso   1.00
C202   C     0.83301   0.11606   0.24905   0.00000  Uiso   1.00
C203   C     0.83499   0.38269   0.25023   0.00000  Uiso   1.00
C204   C     0.81321   0.09298   0.20598   0.00000  Uiso   1.00
C205   C     0.87982   0.40518   0.27100   0.00000  Uiso   1.00
C206   C     0.81957   0.04710   0.20297   0.00000  Uiso   1.00
C207   C     0.88359   0.45115   0.26569   0.00000  Uiso   1.00
C208   C     0.83987   0.02349   0.24467   0.00000  Uiso   1.00
C209   C     0.84002   0.47481   0.24470   0.00000  Uiso   1.00
C210   C     0.84233   0.11249   0.37149   0.00000  Uiso   1.00
C211   C     0.86190   0.28142   0.05768   0.00000  Uiso   1.00
C212   C     0.71292   0.37118   0.24015   0.00000  Uiso   1.00
C213   C     0.73213   0.12388   0.17151   0.00000  Uiso   1.00
C214   C     0.92235   0.38024   0.34799   0.00000  Uiso   1.00
C215   C     0.84414   0.01729   0.13474   0.00000  Uiso   1.00
C216   C     0.95713   0.48163   0.24500   0.00000  Uiso   1.00
C217   C     0.88111   0.35480   0.12503   0.00000  Uiso   1.00
C218   C     0.71522   0.18999   0.37644   0.00000  Uiso   1.00
C219   C     0.79553   0.22741   0.44135   0.00000  Uiso   1.00
C220   C     0.86112   0.28152   0.10858   0.00000  Uiso   1.00
C221   C     0.79557   0.22714   0.39004   0.00000  Uiso   1.00
C222   C     0.80630   0.21854   0.10122   0.00000  Uiso   1.00
C223   C     0.87159   0.27141   0.40005   0.00000  Uiso   1.00
C224   C     0.80693   0.21712   0.05079   0.00000  Uiso   1.00
Cu225  Cu    0.83333   0.24999   0.29821   0.00000  Uiso   1.00
Cu226  Cu    0.83333   0.25000   0.20178   0.00000  Uiso   1.00
H227   H     0.99286   0.24777   0.19382   0.00000  Uiso   1.00
H228   H     0.90555   0.28729   0.47217   0.00000  Uiso   1.00
H229   H     0.91252   0.10437   0.34666   0.00000  Uiso   1.00
H230   H     0.84023   0.07834   0.38569   0.00000  Uiso   1.00
H231   H     0.80290   0.12342   0.35708   0.00000  Uiso   1.00
H232   H     0.85797   0.13487   0.40177   0.00000  Uiso   1.00
H233   H     0.72801   0.39932   0.17596   0.00000  Uiso   1.00
H234   H     0.70112   0.40123   0.25869   0.00000  Uiso   1.00
H235   H     0.73209   0.34818   0.26771   0.00000  Uiso   1.00
H236   H     0.67809   0.35439   0.22093   0.00000  Uiso   1.00
H237   H     0.78947   0.10292   0.13235   0.00000  Uiso   1.00
H238   H     0.67376   0.25428   0.30594   0.00000  Uiso   1.00
H239   H     0.71076   0.09211   0.17302   0.00000  Uiso   1.00
H240   H     0.71377   0.14315   0.14007   0.00000  Uiso   1.00
H241   H     0.72952   0.14331   0.20508   0.00000  Uiso   1.00
H242   H     0.95690   0.39051   0.28658   0.00000  Uiso   1.00
H243   H     0.92986   0.41390   0.36363   0.00000  Uiso   1.00
H244   H     0.95339   0.35799   0.36424   0.00000  Uiso   1.00
H245   H     0.88499   0.36767   0.35742   0.00000  Uiso   1.00
H246   H     0.87029   0.49229   0.15366   0.00000  Uiso   1.00
H247   H     0.86590   0.04826   0.12917   0.00000  Uiso   1.00
H248   H     0.82934   0.00370   0.09838   0.00000  Uiso   1.00
H249   H     0.87207   0.02824   0.32013   0.00000  Uiso   1.00
H250   H     0.96109   0.45177   0.22225   0.00000  Uiso   1.00
H251   H     0.99655   0.49263   0.26021   0.00000  Uiso   1.00
H252   H     0.93928   0.00887   0.22215   0.00000  Uiso   1.00
H253   H     0.83897   0.36078   0.11616   0.00000  Uiso   1.00
H254   H     0.90178   0.36461   0.09434   0.00000  Uiso   1.00
H255   H     0.89554   0.37660   0.15621   0.00000  Uiso   1.00
H256   H     0.68733   0.17703   0.34597   0.00000  Uiso   1.00
H257   H     0.69699   0.21885   0.39203   0.00000  Uiso   1.00
H258   H     0.72256   0.16277   0.40310   0.00000  Uiso   1.00
H259   H     0.76092   0.46977   0.21063   0.00000  Uiso   1.00
H260   H     0.88420   0.30650   0.04226   0.00000  Uiso   1.00
H261   H     0.76524   0.21073   0.45687   0.00000  Uiso   1.00
H262   H     0.78446   0.19395   0.11797   0.00000  Uiso   1.00
H263   H     0.90172   0.28837   0.38421   0.00000  Uiso   1.00
H264   H     0.78640   0.19025   0.03085   0.00000  Uiso   1.00
N265   N     0.83333   0.25001   0.12934   0.00000  Uiso   1.00
N266   N     0.83333   0.24999   0.37065   0.00000  Uiso   1.00
N267   N     0.87553   0.11406   0.33393   0.00000  Uiso   1.00
N268   N     0.74720   0.38337   0.20568   0.00000  Uiso   1.00
N269   N     0.78539   0.11564   0.16606   0.00000  Uiso   1.00
N270   N     0.92169   0.38121   0.29592   0.00000  Uiso   1.00
O271   O     0.83334   0.18572   0.29071   0.00000  Uiso   1.00
O272   O     0.92903   0.47269   0.28380   0.00000  Uiso   1.00
O273   O     0.89201   0.31059   0.13855   0.00000  Uiso   1.00
O274   O     0.76096   0.20218   0.35805   0.00000  Uiso   1.00
O275   O     0.83333   0.31427   0.20928   0.00000  Uiso   1.00
O276   O     0.83334   0.18573   0.20928   0.00000  Uiso   1.00
O277   O     0.83333   0.31427   0.29072   0.00000  Uiso   1.00
O278   O     0.75828   0.24999   0.28132   0.00000  Uiso   1.00
O279   O     0.90839   0.25000   0.21868   0.00000  Uiso   1.00
O280   O     0.75828   0.25000   0.19988   0.00000  Uiso   1.00
O281   O     0.90839   0.25000   0.30011   0.00000  Uiso   1.00
O282   O     0.80190   0.02528   0.16001   0.00000  Uiso   1.00
C283   C     0.16625   0.66480   0.24983   0.00000  Uiso   1.00
C284   C     0.20661   0.77102   0.45076   0.00000  Uiso   1.00
C285   C     0.16781   0.74920   0.02752   0.00000  Uiso   1.00
C286   C     0.16788   0.74926   0.47271   0.00000  Uiso   1.00
C287   C     0.06794   0.75000   0.23761   0.00000  Uiso   1.00
C288   C     0.26538   0.75053   0.26237   0.00000  Uiso   1.00
C289   C     0.01270   0.74979   0.23072   0.00000  Uiso   1.00
C290   C     0.32060   0.75170   0.26913   0.00000  Uiso   1.00
C291   C     0.19054   0.54624   0.28773   0.00000  Uiso   1.00
C292   C     0.12831   0.95191   0.22570   0.00000  Uiso   1.00
C293   C     0.18821   0.59215   0.29016   0.00000  Uiso   1.00
C294   C     0.16707   0.83476   0.25014   0.00000  Uiso   1.00
C295   C     0.12602   0.90596   0.22692   0.00000  Uiso   1.00
C296   C     0.16634   0.61606   0.24905   0.00000  Uiso   1.00
C297   C     0.16832   0.88269   0.25023   0.00000  Uiso   1.00
C298   C     0.14655   0.59298   0.20598   0.00000  Uiso   1.00
C299   C     0.21316   0.90518   0.27100   0.00000  Uiso   1.00
C300   C     0.15290   0.54710   0.20297   0.00000  Uiso   1.00
C301   C     0.21692   0.95115   0.26569   0.00000  Uiso   1.00
C302   C     0.17320   0.52349   0.24467   0.00000  Uiso   1.00
C303   C     0.17335   0.97481   0.24470   0.00000  Uiso   1.00
C304   C     0.17566   0.61249   0.37149   0.00000  Uiso   1.00
C305   C     0.19523   0.78142   0.05768   0.00000  Uiso   1.00
C306   C     0.04625   0.87118   0.24015   0.00000  Uiso   1.00
C307   C     0.06546   0.62388   0.17151   0.00000  Uiso   1.00
C308   C     0.25569   0.88024   0.34799   0.00000  Uiso   1.00
C309   C     0.17748   0.51729   0.13474   0.00000  Uiso   1.00
C310   C     0.29047   0.98163   0.24500   0.00000  Uiso   1.00
C311   C     0.21445   0.85480   0.12503   0.00000  Uiso   1.00
C312   C     0.04856   0.68999   0.37644   0.00000  Uiso   1.00
C313   C     0.12886   0.72741   0.44135   0.00000  Uiso   1.00
C314   C     0.19445   0.78152   0.10858   0.00000  Uiso   1.00
C315   C     0.12890   0.72714   0.39004   0.00000  Uiso   1.00
C316   C     0.13963   0.71854   0.10122   0.00000  Uiso   1.00
C317   C     0.20493   0.77141   0.40005   0.00000  Uiso   1.00
C318   C     0.14027   0.71712   0.05079   0.00000  Uiso   1.00
Cu319  Cu    0.16667   0.74999   0.29821   0.00000  Uiso   1.00
Cu320  Cu    0.16667   0.75000   0.20178   0.00000  Uiso   1.00
H321   H     0.32619   0.74777   0.19382   0.00000  Uiso   1.00
H322   H     0.23889   0.78729   0.47217   0.00000  Uiso   1.00
H323   H     0.24586   0.60437   0.34666   0.00000  Uiso   1.00
H324   H     0.17357   0.57834   0.38569   0.00000  Uiso   1.00
H325   H     0.13624   0.62342   0.35708   0.00000  Uiso   1.00
H326   H     0.19130   0.63487   0.40177   0.00000  Uiso   1.00
H327   H     0.06135   0.89932   0.17596   0.00000  Uiso   1.00
H328   H     0.03446   0.90123   0.25869   0.00000  Uiso   1.00
H329   H     0.06542   0.84818   0.26771   0.00000  Uiso   1.00
H330   H     0.01142   0.85439   0.22093   0.00000  Uiso   1.00
H331   H     0.12281   0.60292   0.13235   0.00000  Uiso   1.00
H332   H     0.00709   0.75428   0.30594   0.00000  Uiso   1.00
H333   H     0.04410   0.59211   0.17302   0.00000  Uiso   1.00
H334   H     0.04710   0.64315   0.14007   0.00000  Uiso   1.00
H335   H     0.06285   0.64331   0.20508   0.00000  Uiso   1.00
H336   H     0.29024   0.89051   0.28658   0.00000  Uiso   1.00
H337   H     0.26319   0.91390   0.36363   0.00000  Uiso   1.00
H338   H     0.28673   0.85799   0.36424   0.00000  Uiso   1.00
H339   H     0.21832   0.86767   0.35742   0.00000  Uiso   1.00
H340   H     0.20363   0.99229   0.15366   0.00000  Uiso   1.00
H341   H     0.19923   0.54826   0.12917   0.00000  Uiso   1.00
H342   H     0.16268   0.50370   0.09838   0.00000  Uiso   1.00
H343   H     0.20540   0.52824   0.32013   0.00000  Uiso   1.00
H344   H     0.29442   0.95177   0.22225   0.00000  Uiso   1.00
H345   H     0.32988   0.99263   0.26021   0.00000  Uiso   1.00
H346   H     0.27261   0.50887   0.22215   0.00000  Uiso   1.00
H347   H     0.17231   0.86078   0.11616   0.00000  Uiso   1.00
H348   H     0.23511   0.86461   0.09434   0.00000  Uiso   1.00
H349   H     0.22887   0.87660   0.15621   0.00000  Uiso   1.00
H350   H     0.02066   0.67703   0.34597   0.00000  Uiso   1.00
H351   H     0.03032   0.71885   0.39203   0.00000  Uiso   1.00
H352   H     0.05589   0.66277   0.40310   0.00000  Uiso   1.00
H353   H     0.09426   0.96977   0.21063   0.00000  Uiso   1.00
H354   H     0.21753   0.80650   0.04226   0.00000  Uiso   1.00
H355   H     0.09857   0.71073   0.45687   0.00000  Uiso   1.00
H356   H     0.11779   0.69395   0.11797   0.00000  Uiso   1.00
H357   H     0.23505   0.78837   0.38421   0.00000  Uiso   1.00
H358   H     0.11973   0.69025   0.03085   0.00000  Uiso   1.00
N359   N     0.16667   0.75001   0.12934   0.00000  Uiso   1.00
N360   N     0.16667   0.74999   0.37065   0.00000  Uiso   1.00
N361   N     0.20886   0.61406   0.33393   0.00000  Uiso   1.00
N362   N     0.08053   0.88337   0.20568   0.00000  Uiso   1.00
N363   N     0.11872   0.61564   0.16606   0.00000  Uiso   1.00
N364   N     0.25503   0.88121   0.29592   0.00000  Uiso   1.00
O365   O     0.16667   0.68572   0.29071   0.00000  Uiso   1.00
O366   O     0.26236   0.97269   0.28380   0.00000  Uiso   1.00
O367   O     0.22535   0.81059   0.13855   0.00000  Uiso   1.00
O368   O     0.09429   0.70218   0.35805   0.00000  Uiso   1.00
O369   O     0.16666   0.81427   0.20928   0.00000  Uiso   1.00
O370   O     0.16667   0.68573   0.20928   0.00000  Uiso   1.00
O371   O     0.16666   0.81427   0.29072   0.00000  Uiso   1.00
O372   O     0.09161   0.74999   0.28132   0.00000  Uiso   1.00
O373   O     0.24172   0.75000   0.21868   0.00000  Uiso   1.00
O374   O     0.09161   0.75000   0.19988   0.00000  Uiso   1.00
O375   O     0.24172   0.75000   0.30011   0.00000  Uiso   1.00
O376   O     0.13523   0.52528   0.16001   0.00000  Uiso   1.00
C377   C     0.49959   0.66480   0.24983   0.00000  Uiso   1.00
C378   C     0.53994   0.77102   0.45076   0.00000  Uiso   1.00
C379   C     0.50115   0.74920   0.02752   0.00000  Uiso   1.00
C380   C     0.50122   0.74926   0.47271   0.00000  Uiso   1.00
C381   C     0.40128   0.75000   0.23761   0.00000  Uiso   1.00
C382   C     0.59872   0.75053   0.26237   0.00000  Uiso   1.00
C383   C     0.34603   0.74979   0.23072   0.00000  Uiso   1.00
C384   C     0.65394   0.75170   0.26913   0.00000  Uiso   1.00
C385   C     0.52388   0.54624   0.28773   0.00000  Uiso   1.00
C386   C     0.46164   0.95191   0.22570   0.00000  Uiso   1.00
C387   C     0.52154   0.59215   0.29016   0.00000  Uiso   1.00
C388   C     0.50040   0.83476   0.25014   0.00000  Uiso   1.00
C389   C     0.45935   0.90596   0.22692   0.00000  Uiso   1.00
C390   C     0.49967   0.61606   0.24905   0.00000  Uiso   1.00
C391   C     0.50166   0.88269   0.25023   0.00000  Uiso   1.00
C392   C     0.47988   0.59298   0.20598   0.00000  Uiso   1.00
C393   C     0.54649   0.90518   0.27100   0.00000  Uiso   1.00
C394   C     0.48624   0.54710   0.20297   0.00000  Uiso   1.00
C395   C     0.55026   0.95115   0.26569   0.00000  Uiso   1.00
C396   C     0.50653   0.52349   0.24467   0.00000  Uiso   1.00
C397   C     0.50668   0.97481   0.24470   0.00000  Uiso   1.00
C398   C     0.50899   0.61249   0.37149   0.00000  Uiso   1.00
C399   C     0.52857   0.78142   0.05768   0.00000  Uiso   1.00
C400   C     0.37958   0.87118   0.24015   0.00000  Uiso   1.00
C401   C     0.39879   0.62388   0.17151   0.00000  Uiso   1.00
C402   C     0.58902   0.88024   0.34799   0.00000  Uiso   1.00
C403   C     0.51081   0.51729   0.13474   0.00000  Uiso   1.00
C404   C     0.62380   0.98163   0.24500   0.00000  Uiso   1.00
C405   C     0.54778   0.85480   0.12503   0.00000  Uiso   1.00
C406   C     0.38189   0.68999   0.37644   0.00000  Uiso   1.00
C407   C     0.46220   0.72741   0.44135   0.00000  Uiso   1.00
C408   C     0.52779   0.78152   0.10858   0.00000  Uiso   1.00
C409   C     0.46223   0.72714   0.39004   0.00000  Uiso   1.00
C410   C     0.47297   0.71854   0.10122   0.00000  Uiso   1.00
C411   C     0.53826   0.77141   0.40005   0.00000  Uiso   1.00
C412   C     0.47360   0.71712   0.05079   0.00000  Uiso   1.00
Cu413  Cu    0.50000   0.74999   0.29821   0.00000  Uiso   1.00
Cu414  Cu    0.50000   0.75000   0.20178   0.00000  Uiso   1.00
H415   H     0.65953   0.74777   0.19382   0.00000  Uiso   1.00
H416   H     0.57222   0.78729   0.47217   0.00000  Uiso   1.00
H417   H     0.57919   0.60437   0.34666   0.00000  Uiso   1.00
H418   H     0.50690   0.57834   0.38569   0.00000  Uiso   1.00
H419   H     0.46957   0.62342   0.35708   0.00000  Uiso   1.00
H420   H     0.52464   0.63487   0.40177   0.00000  Uiso   1.00
H421   H     0.39468   0.89932   0.17596   0.00000  Uiso   1.00
H422   H     0.36779   0.90123   0.25869   0.00000  Uiso   1.00
H423   H     0.39876   0.84818   0.26771   0.00000  Uiso   1.00
H424   H     0.34475   0.85439   0.22093   0.00000  Uiso   1.00
H425   H     0.45614   0.60292   0.13235   0.00000  Uiso   1.00
H426   H     0.34043   0.75428   0.30594   0.00000  Uiso   1.00
H427   H     0.37743   0.59211   0.17302   0.00000  Uiso   1.00
H428   H     0.38043   0.64315   0.14007   0.00000  Uiso   1.00
H429   H     0.39619   0.64331   0.20508   0.00000  Uiso   1.00
H430   H     0.62357   0.89051   0.28658   0.00000  Uiso   1.00
H431   H     0.59652   0.91390   0.36363   0.00000  Uiso   1.00
H432   H     0.62006   0.85799   0.36424   0.00000  Uiso   1.00
H433   H     0.55165   0.86767   0.35742   0.00000  Uiso   1.00
H434   H     0.53696   0.99229   0.15366   0.00000  Uiso   1.00
H435   H     0.53257   0.54826   0.12917   0.00000  Uiso   1.00
H436   H     0.49601   0.50370   0.09838   0.00000  Uiso   1.00
H437   H     0.53873   0.52824   0.32013   0.00000  Uiso   1.00
H438   H     0.62776   0.95177   0.22225   0.00000  Uiso   1.00
H439   H     0.66322   0.99263   0.26021   0.00000  Uiso   1.00
H440   H     0.60595   0.50887   0.22215   0.00000  Uiso   1.00
H441   H     0.50564   0.86078   0.11616   0.00000  Uiso   1.00
H442   H     0.56844   0.86461   0.09434   0.00000  Uiso   1.00
H443   H     0.56221   0.87660   0.15621   0.00000  Uiso   1.00
H444   H     0.35400   0.67703   0.34597   0.00000  Uiso   1.00
H445   H     0.36366   0.71885   0.39203   0.00000  Uiso   1.00
H446   H     0.38922   0.66277   0.40310   0.00000  Uiso   1.00
H447   H     0.42759   0.96977   0.21063   0.00000  Uiso   1.00
H448   H     0.55086   0.80650   0.04226   0.00000  Uiso   1.00
H449   H     0.43190   0.71073   0.45687   0.00000  Uiso   1.00
H450   H     0.45112   0.69395   0.11797   0.00000  Uiso   1.00
H451   H     0.56839   0.78837   0.38421   0.00000  Uiso   1.00
H452   H     0.45307   0.69025   0.03085   0.00000  Uiso   1.00
N453   N     0.50000   0.75001   0.12934   0.00000  Uiso   1.00
N454   N     0.50000   0.74999   0.37065   0.00000  Uiso   1.00
N455   N     0.54220   0.61406   0.33393   0.00000  Uiso   1.00
N456   N     0.41386   0.88337   0.20568   0.00000  Uiso   1.00
N457   N     0.45205   0.61564   0.16606   0.00000  Uiso   1.00
N458   N     0.58836   0.88121   0.29592   0.00000  Uiso   1.00
O459   O     0.50000   0.68572   0.29071   0.00000  Uiso   1.00
O460   O     0.59569   0.97269   0.28380   0.00000  Uiso   1.00
O461   O     0.55868   0.81059   0.13855   0.00000  Uiso   1.00
O462   O     0.42762   0.70218   0.35805   0.00000  Uiso   1.00
O463   O     0.50000   0.81427   0.20928   0.00000  Uiso   1.00
O464   O     0.50000   0.68573   0.20928   0.00000  Uiso   1.00
O465   O     0.50000   0.81427   0.29072   0.00000  Uiso   1.00
O466   O     0.42495   0.74999   0.28132   0.00000  Uiso   1.00
O467   O     0.57505   0.75000   0.21868   0.00000  Uiso   1.00
O468   O     0.42495   0.75000   0.19988   0.00000  Uiso   1.00
O469   O     0.57505   0.75000   0.30011   0.00000  Uiso   1.00
O470   O     0.46857   0.52528   0.16001   0.00000  Uiso   1.00
C471   C     0.83292   0.66480   0.24983   0.00000  Uiso   1.00
C472   C     0.87328   0.77102   0.45076   0.00000  Uiso   1.00
C473   C     0.83448   0.74920   0.02752   0.00000  Uiso   1.00
C474   C     0.83455   0.74926   0.47271   0.00000  Uiso   1.00
C475   C     0.73461   0.75000   0.23761   0.00000  Uiso   1.00
C476   C     0.93205   0.75053   0.26237   0.00000  Uiso   1.00
C477   C     0.67936   0.74979   0.23072   0.00000  Uiso   1.00
C478   C     0.98727   0.75170   0.26913   0.00000  Uiso   1.00
C479   C     0.85721   0.54624   0.28773   0.00000  Uiso   1.00
C480   C     0.79497   0.95191   0.22570   0.00000  Uiso   1.00
C481   C     0.85487   0.59215   0.29016   0.00000  Uiso   1.00
C482   C     0.83374   0.83476   0.25014   0.00000  Uiso   1.00
C483   C     0.79268   0.90596   0.22692   0.00000  Uiso   1.00
C484   C     0.83301   0.61606   0.24905   0.00000  Uiso   1.00
C485   C     0.83499   0.88269   0.25023   0.00000  Uiso   1.00
C486   C     0.81321   0.59298   0.20598   0.00000  Uiso   1.00
C487   C     0.87982   0.90518   0.27100   0.00000  Uiso   1.00
C488   C     0.81957   0.54710   0.20297   0.00000  Uiso   1.00
C489   C     0.88359   0.95115   0.26569   0.00000  Uiso   1.00
C490   C     0.83987   0.52349   0.24467   0.00000  Uiso   1.00
C491   C     0.84002   0.97481   0.24470   0.00000  Uiso   1.00
C492   C     0.84233   0.61249   0.37149   0.00000  Uiso   1.00
C493   C     0.86190   0.78142   0.05768   0.00000  Uiso   1.00
C494   C     0.71292   0.87118   0.24015   0.00000  Uiso   1.00
C495   C     0.73213   0.62388   0.17151   0.00000  Uiso   1.00
C496   C     0.92235   0.88024   0.34799   0.00000  Uiso   1.00
C497   C     0.84414   0.51729   0.13474   0.00000  Uiso   1.00
C498   C     0.95713   0.98163   0.24500   0.00000  Uiso   1.00
C499   C     0.88111   0.85480   0.12503   0.00000  Uiso   1.00
C500   C     0.71522   0.68999   0.37644   0.00000  Uiso   1.00
C501   C     0.79553   0.72741   0.44135   0.00000  Uiso   1.00
C502   C     0.86112   0.78152   0.10858   0.00000  Uiso   1.00
C503   C     0.79557   0.72714   0.39004   0.00000  Uiso   1.00
C504   C     0.80630   0.71854   0.10122   0.00000  Uiso   1.00
C505   C     0.87159   0.77141   0.40005   0.00000  Uiso   1.00
C506   C     0.80693   0.71712   0.05079   0.00000  Uiso   1.00
Cu507  Cu    0.83333   0.74999   0.29821   0.00000  Uiso   1.00
Cu508  Cu    0.83333   0.75000   0.20178   0.00000  Uiso   1.00
H509   H     0.99286   0.74777   0.19382   0.00000  Uiso   1.00
H510   H     0.90555   0.78729   0.47217   0.00000  Uiso   1.00
H511   H     0.91252   0.60437   0.34666   0.00000  Uiso   1.00
H512   H     0.84023   0.57834   0.38569   0.00000  Uiso   1.00
H513   H     0.80290   0.62342   0.35708   0.00000  Uiso   1.00
H514   H     0.85797   0.63487   0.40177   0.00000  Uiso   1.00
H515   H     0.72801   0.89932   0.17596   0.00000  Uiso   1.00
H516   H     0.70112   0.90123   0.25869   0.00000  Uiso   1.00
H517   H     0.73209   0.84818   0.26771   0.00000  Uiso   1.00
H518   H     0.67809   0.85439   0.22093   0.00000  Uiso   1.00
H519   H     0.78947   0.60292   0.13235   0.00000  Uiso   1.00
H520   H     0.67376   0.75428   0.30594   0.00000  Uiso   1.00
H521   H     0.71076   0.59211   0.17302   0.00000  Uiso   1.00
H522   H     0.71377   0.64315   0.14007   0.00000  Uiso   1.00
H523   H     0.72952   0.64331   0.20508   0.00000  Uiso   1.00
H524   H     0.95690   0.89051   0.28658   0.00000  Uiso   1.00
H525   H     0.92986   0.91390   0.36363   0.00000  Uiso   1.00
H526   H     0.95339   0.85799   0.36424   0.00000  Uiso   1.00
H527   H     0.88499   0.86767   0.35742   0.00000  Uiso   1.00
H528   H     0.87029   0.99229   0.15366   0.00000  Uiso   1.00
H529   H     0.86590   0.54826   0.12917   0.00000  Uiso   1.00
H530   H     0.82934   0.50370   0.09838   0.00000  Uiso   1.00
H531   H     0.87207   0.52824   0.32013   0.00000  Uiso   1.00
H532   H     0.96109   0.95177   0.22225   0.00000  Uiso   1.00
H533   H     0.99655   0.99263   0.26021   0.00000  Uiso   1.00
H534   H     0.93928   0.50887   0.22215   0.00000  Uiso   1.00
H535   H     0.83897   0.86078   0.11616   0.00000  Uiso   1.00
H536   H     0.90178   0.86461   0.09434   0.00000  Uiso   1.00
H537   H     0.89554   0.87660   0.15621   0.00000  Uiso   1.00
H538   H     0.68733   0.67703   0.34597   0.00000  Uiso   1.00
H539   H     0.69699   0.71885   0.39203   0.00000  Uiso   1.00
H540   H     0.72256   0.66277   0.40310   0.00000  Uiso   1.00
H541   H     0.76092   0.96977   0.21063   0.00000  Uiso   1.00
H542   H     0.88420   0.80650   0.04226   0.00000  Uiso   1.00
H543   H     0.76524   0.71073   0.45687   0.00000  Uiso   1.00
H544   H     0.78446   0.69395   0.11797   0.00000  Uiso   1.00
H545   H     0.90172   0.78837   0.38421   0.00000  Uiso   1.00
H546   H     0.78640   0.69025   0.03085   0.00000  Uiso   1.00
N547   N     0.83333   0.75001   0.12934   0.00000  Uiso   1.00
N548   N     0.83333   0.74999   0.37065   0.00000  Uiso   1.00
N549   N     0.87553   0.61406   0.33393   0.00000  Uiso   1.00
N550   N     0.74720   0.88337   0.20568   0.00000  Uiso   1.00
N551   N     0.78539   0.61564   0.16606   0.00000  Uiso   1.00
N552   N     0.92169   0.88121   0.29592   0.00000  Uiso   1.00
O553   O     0.83334   0.68572   0.29071   0.00000  Uiso   1.00
O554   O     0.92903   0.97269   0.28380   0.00000  Uiso   1.00
O555   O     0.89201   0.81059   0.13855   0.00000  Uiso   1.00
O556   O     0.76096   0.70218   0.35805   0.00000  Uiso   1.00
O557   O     0.83333   0.81427   0.20928   0.00000  Uiso   1.00
O558   O     0.83334   0.68573   0.20928   0.00000  Uiso   1.00
O559   O     0.83333   0.81427   0.29072   0.00000  Uiso   1.00
O560   O     0.75828   0.74999   0.28132   0.00000  Uiso   1.00
O561   O     0.90839   0.75000   0.21868   0.00000  Uiso   1.00
O562   O     0.75828   0.75000   0.19988   0.00000  Uiso   1.00
O563   O     0.90839   0.75000   0.30011   0.00000  Uiso   1.00
O564   O     0.80190   0.52528   0.16001   0.00000  Uiso   1.00
C565   C     0.16625   0.16480   0.74983   0.00000  Uiso   1.00
C566   C     0.20661   0.27102   0.95076   0.00000  Uiso   1.00
C567   C     0.16781   0.24920   0.52752   0.00000  Uiso   1.00
C568   C     0.16788   0.24926   0.97271   0.00000  Uiso   1.00
C569   C     0.06794   0.25000   0.73761   0.00000  Uiso   1.00
C570   C     0.26538   0.25053   0.76237   0.00000  Uiso   1.00
C571   C     0.01270   0.24979   0.73072   0.00000  Uiso   1.00
C572   C     0.32060   0.25170   0.76913   0.00000  Uiso   1.00
C573   C     0.19054   0.04624   0.78773   0.00000  Uiso   1.00
C574   C     0.12831   0.45191   0.72570   0.00000  Uiso   1.00
C575   C     0.18821   0.09215   0.79016   0.00000  Uiso   1.00
C576   C     0.16707   0.33476   0.75014   0.00000  Uiso   1.00
C577   C     0.12602   0.40596   0.72692   0.00000  Uiso   1.00
C578   C     0.16634   0.11606   0.74905   0.00000  Uiso   1.00
C579   C     0.16832   0.38269   0.75023   0.00000  Uiso   1.00
C580   C     0.14655   0.09298   0.70598   0.00000  Uiso   1.00
C581   C     0.21316   0.40518   0.77100   0.00000  Uiso   1.00
C582   C     0.15290   0.04710   0.70297   0.00000  Uiso   1.00
C583   C     0.21692   0.45115   0.76569   0.00000  Uiso   1.00
C584   C     0.17320   0.02349   0.74467   0.00000  Uiso   1.00
C585   C     0.17335   0.47481   0.74470   0.00000  Uiso   1.00
C586   C     0.17566   0.11249   0.87149   0.00000  Uiso   1.00
C587   C     0.19523   0.28142   0.55768   0.00000  Uiso   1.00
C588   C     0.04625   0.37118   0.74015   0.00000  Uiso   1.00
C589   C     0.06546   0.12388   0.67151   0.00000  Uiso   1.00
C590   C     0.25569   0.38024   0.84799   0.00000  Uiso   1.00
C591   C     0.17748   0.01729   0.63474   0.00000  Uiso   1.00
C592   C     0.29047   0.48163   0.74500   0.00000  Uiso   1.00
C593   C     0.21445   0.35480   0.62503   0.00000  Uiso   1.00
C594   C     0.04856   0.18999   0.87644   0.00000  Uiso   1.00
C595   C     0.12886   0.22741   0.94135   0.00000  Uiso   1.00
C596   C     0.19445   0.28152   0.60858   0.00000  Uiso   1.00
C597   C     0.12890   0.22714   0.89004   0.00000  Uiso   1.00
C598   C     0.13963   0.21854   0.60122   0.00000  Uiso   1.00
C599   C     0.20493   0.27141   0.90005   0.00000  Uiso   1.00
C600   C     0.14027   0.21712   0.55079   0.00000  Uiso   1.00
Cu601  Cu    0.16667   0.24999   0.79821   0.00000  Uiso   1.00
Cu602  Cu    0.16667   0.25000   0.70178   0.00000  Uiso   1.00
H603   H     0.32619   0.24777   0.69382   0.00000  Uiso   1.00
H604   H     0.23889   0.28729   0.97217   0.00000  Uiso   1.00
H605   H     0.24586   0.10437   0.84666   0.00000  Uiso   1.00
H606   H     0.17357   0.07834   0.88569   0.00000  Uiso   1.00
H607   H     0.13624   0.12342   0.85708   0.00000  Uiso   1.00
H608   H     0.19130   0.13487   0.90177   0.00000  Uiso   1.00
H609   H     0.06135   0.39932   0.67596   0.00000  Uiso   1.00
H610   H     0.03446   0.40123   0.75869   0.00000  Uiso   1.00
H611   H     0.06542   0.34818   0.76771   0.00000  Uiso   1.00
H612   H     0.01142   0.35439   0.72093   0.00000  Uiso   1.00
H613   H     0.12281   0.10292   0.63235   0.00000  Uiso   1.00
H614   H     0.00709   0.25428   0.80594   0.00000  Uiso   1.00
H615   H     0.04410   0.09211   0.67302   0.00000  Uiso   1.00
H616   H     0.04710   0.14315   0.64007   0.00000  Uiso   1.00
H617   H     0.06285   0.14331   0.70508   0.00000  Uiso   1.00
H618   H     0.29024   0.39051   0.78658   0.00000  Uiso   1.00
H619   H     0.26319   0.41390   0.86363   0.00000  Uiso   1.00
H620   H     0.28673   0.35799   0.86424   0.00000  Uiso   1.00
H621   H     0.21832   0.36767   0.85742   0.00000  Uiso   1.00
H622   H     0.20363   0.49229   0.65366   0.00000  Uiso   1.00
H623   H     0.19923   0.04826   0.62917   0.00000  Uiso   1.00
H624   H     0.16268   0.00370   0.59838   0.00000  Uiso   1.00
H625   H     0.20540   0.02824   0.82013   0.00000  Uiso   1.00
H626   H     0.29442   0.45177   0.72225   0.00000  Uiso   1.00
H627   H     0.32988   0.49263   0.76021   0.00000  Uiso   1.00
H628   H     0.27261   0.00887   0.72215   0.00000  Uiso   1.00
H629   H     0.17231   0.36078   0.61616   0.00000  Uiso   1.00
H630   H     0.23511   0.36461   0.59434   0.00000  Uiso   1.00
H631   H     0.22887   0.37660   0.65621   0.00000  Uiso   1.00
H632   H     0.02066   0.17703   0.84597   0.00000  Uiso   1.00
H633   H     0.03032   0.21885   0.89203   0.00000  Uiso   1.00
H634   H     0.05589   0.16277   0.90310   0.00000  Uiso   1.00
H635   H     0.09426   0.46977   0.71063   0.00000  Uiso   1.00
H636   H     0.21753   0.30650   0.54226   0.00000  Uiso   1.00
H637   H     0.09857   0.21073   0.95687   0.00000  Uiso   1.00
H638   H     0.11779   0.19395   0.61797   0.00000  Uiso   1.00
H639   H     0.23505   0.28837   0.88421   0.00000  Uiso   1.00
H640   H     0.11973   0.19025   0.53085   0.00000  Uiso   1.00
N641   N     0.16667   0.25001   0.62934   0.00000  Uiso   1.00
N642   N     0.16667   0.24999   0.87065   0.00000  Uiso   1.00
N643   N     0.20886   0.11406   0.83393   0.00000  Uiso   1.00
N644   N     0.08053   0.38337   0.70568   0.00000  Uiso   1.00
N645   N     0.11872   0.11564   0.66606   0.00000  Uiso   1.00
N646   N     0.25503   0.38121   0.79592   0.00000  Uiso   1.00
O647   O     0.16667   0.18572   0.79071   0.00000  Uiso   1.00
O648   O     0.26236   0.47269   0.78380   0.00000  Uiso   1.00
O649   O     0.22535   0.31059   0.63855   0.00000  Uiso   1.00
O650   O     0.09429   0.20218   0.85805   0.00000  Uiso   1.00
O651   O     0.16666   0.31427   0.70928   0.00000  Uiso   1.00
O652   O     0.16667   0.18573   0.70928   0.00000  Uiso   1.00
O653   O     0.16666   0.31427   0.79072   0.00000  Uiso   1.00
O654   O     0.09161   0.24999   0.78132   0.00000  Uiso   1.00
O655   O     0.24172   0.25000   0.71868   0.00000  Uiso   1.00
O656   O     0.09161   0.25000   0.69988   0.00000  Uiso   1.00
O657   O     0.24172   0.25000   0.80011   0.00000  Uiso   1.00
O658   O     0.13523   0.02528   0.66001   0.00000  Uiso   1.00
C659   C     0.49959   0.16480   0.74983   0.00000  Uiso   1.00
C660   C     0.53994   0.27102   0.95076   0.00000  Uiso   1.00
C661   C     0.50115   0.24920   0.52752   0.00000  Uiso   1.00
C662   C     0.50122   0.24926   0.97271   0.00000  Uiso   1.00
C663   C     0.40128   0.25000   0.73761   0.00000  Uiso   1.00
C664   C     0.59872   0.25053   0.76237   0.00000  Uiso   1.00
C665   C     0.34603   0.24979   0.73072   0.00000  Uiso   1.00
C666   C     0.65394   0.25170   0.76913   0.00000  Uiso   1.00
C667   C     0.52388   0.04624   0.78773   0.00000  Uiso   1.00
C668   C     0.46164   0.45191   0.72570   0.00000  Uiso   1.00
C669   C     0.52154   0.09215   0.79016   0.00000  Uiso   1.00
C670   C     0.50040   0.33476   0.75014   0.00000  Uiso   1.00
C671   C     0.45935   0.40596   0.72692   0.00000  Uiso   1.00
C672   C     0.49967   0.11606   0.74905   0.00000  Uiso   1.00
C673   C     0.50166   0.38269   0.75023   0.00000  Uiso   1.00
C674   C     0.47988   0.09298   0.70598   0.00000  Uiso   1.00
C675   C     0.54649   0.40518   0.77100   0.00000  Uiso   1.00
C676   C     0.48624   0.04710   0.70297   0.00000  Uiso   1.00
C677   C     0.55026   0.45115   0.76569   0.00000  Uiso   1.00
C678   C     0.50653   0.02349   0.74467   0.00000  Uiso   1.00
C679   C     0.50668   0.47481   0.74470   0.00000  Uiso   1.00
C680   C     0.50899   0.11249   0.87149   0.00000  Uiso   1.00
C681   C     0.52857   0.28142   0.55768   0.00000  Uiso   1.00
C682   C     0.37958   0.37118   0.74015   0.00000  Uiso   1.00
C683   C     0.39879   0.12388   0.67151   0.00000  Uiso   1.00
C684   C     0.58902   0.38024   0.84799   0.00000  Uiso   1.00
C685   C     0.51081   0.01729   0.63474   0.00000  Uiso   1.00
C686   C     0.62380   0.48163   0.74500   0.00000  Uiso   1.00
C687   C     0.54778   0.35480   0.62503   0.00000  Uiso   1.00
C688   C     0.38189   0.18999   0.87644   0.00000  Uiso   1.00
C689   C     0.46220   0.22741   0.94135   0.00000  Uiso   1.00
C690   C     0.52779   0.28152   0.60858   0.00000  Uiso   1.00
C691   C     0.46223   0.22714   0.89004   0.00000  Uiso   1.00
C692   C     0.47297   0.21854   0.60122   0.00000  Uiso   1.00
C693   C     0.53826   0.27141   0.90005   0.00000  Uiso   1.00
C694   C     0.47360   0.21712   0.55079   0.00000  Uiso   1.00
Cu695  Cu    0.50000   0.24999   0.79821   0.00000  Uiso   1.00
Cu696  Cu    0.50000   0.25000   0.70178   0.00000  Uiso   1.00
H697   H     0.65953   0.24777   0.69382   0.00000  Uiso   1.00
H698   H     0.57222   0.28729   0.97217   0.00000  Uiso   1.00
H699   H     0.57919   0.10437   0.84666   0.00000  Uiso   1.00
H700   H     0.50690   0.07834   0.88569   0.00000  Uiso   1.00
H701   H     0.46957   0.12342   0.85708   0.00000  Uiso   1.00
H702   H     0.52464   0.13487   0.90177   0.00000  Uiso   1.00
H703   H     0.39468   0.39932   0.67596   0.00000  Uiso   1.00
H704   H     0.36779   0.40123   0.75869   0.00000  Uiso   1.00
H705   H     0.39876   0.34818   0.76771   0.00000  Uiso   1.00
H706   H     0.34475   0.35439   0.72093   0.00000  Uiso   1.00
H707   H     0.45614   0.10292   0.63235   0.00000  Uiso   1.00
H708   H     0.34043   0.25428   0.80594   0.00000  Uiso   1.00
H709   H     0.37743   0.09211   0.67302   0.00000  Uiso   1.00
H710   H     0.38043   0.14315   0.64007   0.00000  Uiso   1.00
H711   H     0.39619   0.14331   0.70508   0.00000  Uiso   1.00
H712   H     0.62357   0.39051   0.78658   0.00000  Uiso   1.00
H713   H     0.59652   0.41390   0.86363   0.00000  Uiso   1.00
H714   H     0.62006   0.35799   0.86424   0.00000  Uiso   1.00
H715   H     0.55165   0.36767   0.85742   0.00000  Uiso   1.00
H716   H     0.53696   0.49229   0.65366   0.00000  Uiso   1.00
H717   H     0.53257   0.04826   0.62917   0.00000  Uiso   1.00
H718   H     0.49601   0.00370   0.59838   0.00000  Uiso   1.00
H719   H     0.53873   0.02824   0.82013   0.00000  Uiso   1.00
H720   H     0.62776   0.45177   0.72225   0.00000  Uiso   1.00
H721   H     0.66322   0.49263   0.76021   0.00000  Uiso   1.00
H722   H     0.60595   0.00887   0.72215   0.00000  Uiso   1.00
H723   H     0.50564   0.36078   0.61616   0.00000  Uiso   1.00
H724   H     0.56844   0.36461   0.59434   0.00000  Uiso   1.00
H725   H     0.56221   0.37660   0.65621   0.00000  Uiso   1.00
H726   H     0.35400   0.17703   0.84597   0.00000  Uiso   1.00
H727   H     0.36366   0.21885   0.89203   0.00000  Uiso   1.00
H728   H     0.38922   0.16277   0.90310   0.00000  Uiso   1.00
H729   H     0.42759   0.46977   0.71063   0.00000  Uiso   1.00
H730   H     0.55086   0.30650   0.54226   0.00000  Uiso   1.00
H731   H     0.43190   0.21073   0.95687   0.00000  Uiso   1.00
H732   H     0.45112   0.19395   0.61797   0.00000  Uiso   1.00
H733   H     0.56839   0.28837   0.88421   0.00000  Uiso   1.00
H734   H     0.45307   0.19025   0.53085   0.00000  Uiso   1.00
N735   N     0.50000   0.25001   0.62934   0.00000  Uiso   1.00
N736   N     0.50000   0.24999   0.87065   0.00000  Uiso   1.00
N737   N     0.54220   0.11406   0.83393   0.00000  Uiso   1.00
N738   N     0.41386   0.38337   0.70568   0.00000  Uiso   1.00
N739   N     0.45205   0.11564   0.66606   0.00000  Uiso   1.00
N740   N     0.58836   0.38121   0.79592   0.00000  Uiso   1.00
O741   O     0.50000   0.18572   0.79071   0.00000  Uiso   1.00
O742   O     0.59569   0.47269   0.78380   0.00000  Uiso   1.00
O743   O     0.55868   0.31059   0.63855   0.00000  Uiso   1.00
O744   O     0.42762   0.20218   0.85805   0.00000  Uiso   1.00
O745   O     0.50000   0.31427   0.70928   0.00000  Uiso   1.00
O746   O     0.50000   0.18573   0.70928   0.00000  Uiso   1.00
O747   O     0.50000   0.31427   0.79072   0.00000  Uiso   1.00
O748   O     0.42495   0.24999   0.78132   0.00000  Uiso   1.00
O749   O     0.57505   0.25000   0.71868   0.00000  Uiso   1.00
O750   O     0.42495   0.25000   0.69988   0.00000  Uiso   1.00
O751   O     0.57505   0.25000   0.80011   0.00000  Uiso   1.00
O752   O     0.46857   0.02528   0.66001   0.00000  Uiso   1.00
C753   C     0.83292   0.16480   0.74983   0.00000  Uiso   1.00
C754   C     0.87328   0.27102   0.95076   0.00000  Uiso   1.00
C755   C     0.83448   0.24920   0.52752   0.00000  Uiso   1.00
C756   C     0.83455   0.24926   0.97271   0.00000  Uiso   1.00
C757   C     0.73461   0.25000   0.73761   0.00000  Uiso   1.00
C758   C     0.93205   0.25053   0.76237   0.00000  Uiso   1.00
C759   C     0.67936   0.24979   0.73072   0.00000  Uiso   1.00
C760   C     0.98727   0.25170   0.76913   0.00000  Uiso   1.00
C761   C     0.85721   0.04624   0.78773   0.00000  Uiso   1.00
C762   C     0.79497   0.45191   0.72570   0.00000  Uiso   1.00
C763   C     0.85487   0.09215   0.79016   0.00000  Uiso   1.00
C764   C     0.83374   0.33476   0.75014   0.00000  Uiso   1.00
C765   C     0.79268   0.40596   0.72692   0.00000  Uiso   1.00
C766   C     0.83301   0.11606   0.74905   0.00000  Uiso   1.00
C767   C     0.83499   0.38269   0.75023   0.00000  Uiso   1.00
C768   C     0.81321   0.09298   0.70598   0.00000  Uiso   1.00
C769   C     0.87982   0.40518   0.77100   0.00000  Uiso   1.00
C770   C     0.81957   0.04710   0.70297   0.00000  Uiso   1.00
C771   C     0.88359   0.45115   0.76569   0.00000  Uiso   1.00
C772   C     0.83987   0.02349   0.74467   0.00000  Uiso   1.00
C773   C     0.84002   0.47481   0.74470   0.00000  Uiso   1.00
C774   C     0.84233   0.11249   0.87149   0.00000  Uiso   1.00
C775   C     0.86190   0.28142   0.55768   0.00000  Uiso   1.00
C776   C     0.71292   0.37118   0.74015   0.00000  Uiso   1.00
C777   C     0.73213   0.12388   0.67151   0.00000  Uiso   1.00
C778   C     0.92235   0.38024   0.84799   0.00000  Uiso   1.00
C779   C     0.84414   0.01729   0.63474   0.00000  Uiso   1.00
C780   C     0.95713   0.48163   0.74500   0.00000  Uiso   1.00
C781   C     0.88111   0.35480   0.62503   0.00000  Uiso   1.00
C782   C     0.71522   0.18999   0.87644   0.00000  Uiso   1.00
C783   C     0.79553   0.22741   0.94135   0.00000  Uiso   1.00
C784   C     0.86112   0.28152   0.60858   0.00000  Uiso   1.00
C785   C     0.79557   0.22714   0.89004   0.00000  Uiso   1.00
C786   C     0.80630   0.21854   0.60122   0.00000  Uiso   1.00
C787   C     0.87159   0.27141   0.90005   0.00000  Uiso   1.00
C788   C     0.80693   0.21712   0.55079   0.00000  Uiso   1.00
Cu789  Cu    0.83333   0.24999   0.79821   0.00000  Uiso   1.00
Cu790  Cu    0.83333   0.25000   0.70178   0.00000  Uiso   1.00
H791   H     0.99286   0.24777   0.69382   0.00000  Uiso   1.00
H792   H     0.90555   0.28729   0.97217   0.00000  Uiso   1.00
H793   H     0.91252   0.10437   0.84666   0.00000  Uiso   1.00
H794   H     0.84023   0.07834   0.88569   0.00000  Uiso   1.00
H795   H     0.80290   0.12342   0.85708   0.00000  Uiso   1.00
H796   H     0.85797   0.13487   0.90177   0.00000  Uiso   1.00
H797   H     0.72801   0.39932   0.67596   0.00000  Uiso   1.00
H798   H     0.70112   0.40123   0.75869   0.00000  Uiso   1.00
H799   H     0.73209   0.34818   0.76771   0.00000  Uiso   1.00
H800   H     0.67809   0.35439   0.72093   0.00000  Uiso   1.00
H801   H     0.78947   0.10292   0.63235   0.00000  Uiso   1.00
H802   H     0.67376   0.25428   0.80594   0.00000  Uiso   1.00
H803   H     0.71076   0.09211   0.67302   0.00000  Uiso   1.00
H804   H     0.71377   0.14315   0.64007   0.00000  Uiso   1.00
H805   H     0.72952   0.14331   0.70508   0.00000  Uiso   1.00
H806   H     0.95690   0.39051   0.78658   0.00000  Uiso   1.00
H807   H     0.92986   0.41390   0.86363   0.00000  Uiso   1.00
H808   H     0.95339   0.35799   0.86424   0.00000  Uiso   1.00
H809   H     0.88499   0.36767   0.85742   0.00000  Uiso   1.00
H810   H     0.87029   0.49229   0.65366   0.00000  Uiso   1.00
H811   H     0.86590   0.04826   0.62917   0.00000  Uiso   1.00
H812   H     0.82934   0.00370   0.59838   0.00000  Uiso   1.00
H813   H     0.87207   0.02824   0.82013   0.00000  Uiso   1.00
H814   H     0.96109   0.45177   0.72225   0.00000  Uiso   1.00
H815   H     0.99655   0.49263   0.76021   0.00000  Uiso   1.00
H816   H     0.93928   0.00887   0.72215   0.00000  Uiso   1.00
H817   H     0.83897   0.36078   0.61616   0.00000  Uiso   1.00
H818   H     0.90178   0.36461   0.59434   0.00000  Uiso   1.00
H819   H     0.89554   0.37660   0.65621   0.00000  Uiso   1.00
H820   H     0.68733   0.17703   0.84597   0.00000  Uiso   1.00
H821   H     0.69699   0.21885   0.89203   0.00000  Uiso   1.00
H822   H     0.72256   0.16277   0.90310   0.00000  Uiso   1.00
H823   H     0.76092   0.46977   0.71063   0.00000  Uiso   1.00
H824   H     0.88420   0.30650   0.54226   0.00000  Uiso   1.00
H825   H     0.76524   0.21073   0.95687   0.00000  Uiso   1.00
H826   H     0.78446   0.19395   0.61797   0.00000  Uiso   1.00
H827   H     0.90172   0.28837   0.88421   0.00000  Uiso   1.00
H828   H     0.78640   0.19025   0.53085   0.00000  Uiso   1.00
N829   N     0.83333   0.25001   0.62934   0.00000  Uiso   1.00
N830   N     0.83333   0.24999   0.87065   0.00000  Uiso   1.00
N831   N     0.87553   0.11406   0.83393   0.00000  Uiso   1.00
N832   N     0.74720   0.38337   0.70568   0.00000  Uiso   1.00
N833   N     0.78539   0.11564   0.66606   0.00000  Uiso   1.00
N834   N     0.92169   0.38121   0.79592   0.00000  Uiso   1.00
O835   O     0.83334   0.18572   0.79071   0.00000  Uiso   1.00
O836   O     0.92903   0.47269   0.78380   0.00000  Uiso   1.00
O837   O     0.89201   0.31059   0.63855   0.00000  Uiso   1.00
O838   O     0.76096   0.20218   0.85805   0.00000  Uiso   1.00
O839   O     0.83333   0.31427   0.70928   0.00000  Uiso   1.00
O840   O     0.83334   0.18573   0.70928   0.00000  Uiso   1.00
O841   O     0.83333   0.31427   0.79072   0.00000  Uiso   1.00
O842   O     0.75828   0.24999   0.78132   0.00000  Uiso   1.00
O843   O     0.90839   0.25000   0.71868   0.00000  Uiso   1.00
O844   O     0.75828   0.25000   0.69988   0.00000  Uiso   1.00
O845   O     0.90839   0.25000   0.80011   0.00000  Uiso   1.00
O846   O     0.80190   0.02528   0.66001   0.00000  Uiso   1.00
C847   C     0.16625   0.66480   0.74983   0.00000  Uiso   1.00
C848   C     0.20661   0.77102   0.95076   0.00000  Uiso   1.00
C849   C     0.16781   0.74920   0.52752   0.00000  Uiso   1.00
C850   C     0.16788   0.74926   0.97271   0.00000  Uiso   1.00
C851   C     0.06794   0.75000   0.73761   0.00000  Uiso   1.00
C852   C     0.26538   0.75053   0.76237   0.00000  Uiso   1.00
C853   C     0.01270   0.74979   0.73072   0.00000  Uiso   1.00
C854   C     0.32060   0.75170   0.76913   0.00000  Uiso   1.00
C855   C     0.19054   0.54624   0.78773   0.00000  Uiso   1.00
C856   C     0.12831   0.95191   0.72570   0.00000  Uiso   1.00
C857   C     0.18821   0.59215   0.79016   0.00000  Uiso   1.00
C858   C     0.16707   0.83476   0.75014   0.00000  Uiso   1.00
C859   C     0.12602   0.90596   0.72692   0.00000  Uiso   1.00
C860   C     0.16634   0.61606   0.74905   0.00000  Uiso   1.00
C861   C     0.16832   0.88269   0.75023   0.00000  Uiso   1.00
C862   C     0.14655   0.59298   0.70598   0.00000  Uiso   1.00
C863   C     0.21316   0.90518   0.77100   0.00000  Uiso   1.00
C864   C     0.15290   0.54710   0.70297   0.00000  Uiso   1.00
C865   C     0.21692   0.95115   0.76569   0.00000  Uiso   1.00
C866   C     0.17320   0.52349   0.74467   0.00000  Uiso   1.00
C867   C     0.17335   0.97481   0.74470   0.00000  Uiso   1.00
C868   C     0.17566   0.61249   0.87149   0.00000  Uiso   1.00
C869   C     0.19523   0.78142   0.55768   0.00000  Uiso   1.00
C870   C     0.04625   0.87118   0.74015   0.00000  Uiso   1.00
C871   C     0.06546   0.62388   0.67151   0.00000  Uiso   1.00
C872   C     0.25569   0.88024   0.84799   0.00000  Uiso   1.00
C873   C     0.17748   0.51729   0.63474   0.00000  Uiso   1.00
C874   C     0.29047   0.98163   0.74500   0.00000  Uiso   1.00
C875   C     0.21445   0.85480   0.62503   0.00000  Uiso   1.00
C876   C     0.04856   0.68999   0.87644   0.00000  Uiso   1.00
C877   C     0.12886   0.72741   0.94135   0.00000  Uiso   1.00
C878   C     0.19445   0.78152   0.60858   0.00000  Uiso   1.00
C879   C     0.12890   0.72714   0.89004   0.00000  Uiso   1.00
C880   C     0.13963   0.71854   0.60122   0.00000  Uiso   1.00
C881   C     0.20493   0.77141   0.90005   0.00000  Uiso   1.00
C882   C     0.14027   0.71712   0.55079   0.00000  Uiso   1.00
Cu883  Cu    0.16667   0.74999   0.79821   0.00000  Uiso   1.00
Cu884  Cu    0.16667   0.75000   0.70178   0.00000  Uiso   1.00
H885   H     0.32619   0.74777   0.69382   0.00000  Uiso   1.00
H886   H     0.23889   0.78729   0.97217   0.00000  Uiso   1.00
H887   H     0.24586   0.60437   0.84666   0.00000  Uiso   1.00
H888   H     0.17357   0.57834   0.88569   0.00000  Uiso   1.00
H889   H     0.13624   0.62342   0.85708   0.00000  Uiso   1.00
H890   H     0.19130   0.63487   0.90177   0.00000  Uiso   1.00
H891   H     0.06135   0.89932   0.67596   0.00000  Uiso   1.00
H892   H     0.03446   0.90123   0.75869   0.00000  Uiso   1.00
H893   H     0.06542   0.84818   0.76771   0.00000  Uiso   1.00
H894   H     0.01142   0.85439   0.72093   0.00000  Uiso   1.00
H895   H     0.12281   0.60292   0.63235   0.00000  Uiso   1.00
H896   H     0.00709   0.75428   0.80594   0.00000  Uiso   1.00
H897   H     0.04410   0.59211   0.67302   0.00000  Uiso   1.00
H898   H     0.04710   0.64315   0.64007   0.00000  Uiso   1.00
H899   H     0.06285   0.64331   0.70508   0.00000  Uiso   1.00
H900   H     0.29024   0.89051   0.78658   0.00000  Uiso   1.00
H901   H     0.26319   0.91390   0.86363   0.00000  Uiso   1.00
H902   H     0.28673   0.85799   0.86424   0.00000  Uiso   1.00
H903   H     0.21832   0.86767   0.85742   0.00000  Uiso   1.00
H904   H     0.20363   0.99229   0.65366   0.00000  Uiso   1.00
H905   H     0.19923   0.54826   0.62917   0.00000  Uiso   1.00
H906   H     0.16268   0.50370   0.59838   0.00000  Uiso   1.00
H907   H     0.20540   0.52824   0.82013   0.00000  Uiso   1.00
H908   H     0.29442   0.95177   0.72225   0.00000  Uiso   1.00
H909   H     0.32988   0.99263   0.76021   0.00000  Uiso   1.00
H910   H     0.27261   0.50887   0.72215   0.00000  Uiso   1.00
H911   H     0.17231   0.86078   0.61616   0.00000  Uiso   1.00
H912   H     0.23511   0.86461   0.59434   0.00000  Uiso   1.00
H913   H     0.22887   0.87660   0.65621   0.00000  Uiso   1.00
H914   H     0.02066   0.67703   0.84597   0.00000  Uiso   1.00
H915   H     0.03032   0.71885   0.89203   0.00000  Uiso   1.00
H916   H     0.05589   0.66277   0.90310   0.00000  Uiso   1.00
H917   H     0.09426   0.96977   0.71063   0.00000  Uiso   1.00
H918   H     0.21753   0.80650   0.54226   0.00000  Uiso   1.00
H919   H     0.09857   0.71073   0.95687   0.00000  Uiso   1.00
H920   H     0.11779   0.69395   0.61797   0.00000  Uiso   1.00
H921   H     0.23505   0.78837   0.88421   0.00000  Uiso   1.00
H922   H     0.11973   0.69025   0.53085   0.00000  Uiso   1.00
N923   N     0.16667   0.75001   0.62934   0.00000  Uiso   1.00
N924   N     0.16667   0.74999   0.87065   0.00000  Uiso   1.00
N925   N     0.20886   0.61406   0.83393   0.00000  Uiso   1.00
N926   N     0.08053   0.88337   0.70568   0.00000  Uiso   1.00
N927   N     0.11872   0.61564   0.66606   0.00000  Uiso   1.00
N928   N     0.25503   0.88121   0.79592   0.00000  Uiso   1.00
O929   O     0.16667   0.68572   0.79071   0.00000  Uiso   1.00
O930   O     0.26236   0.97269   0.78380   0.00000  Uiso   1.00
O931   O     0.22535   0.81059   0.63855   0.00000  Uiso   1.00
O932   O     0.09429   0.70218   0.85805   0.00000  Uiso   1.00
O933   O     0.16666   0.81427   0.70928   0.00000  Uiso   1.00
O934   O     0.16667   0.68573   0.70928   0.00000  Uiso   1.00
O935   O     0.16666   0.81427   0.79072   0.00000  Uiso   1.00
O936   O     0.09161   0.74999   0.78132   0.00000  Uiso   1.00
O937   O     0.24172   0.75000   0.71868   0.00000  Uiso   1.00
O938   O     0.09161   0.75000   0.69988   0.00000  Uiso   1.00
O939   O     0.24172   0.75000   0.80011   0.00000  Uiso   1.00
O940   O     0.13523   0.52528   0.66001   0.00000  Uiso   1.00
C941   C     0.49959   0.66480   0.74983   0.00000  Uiso   1.00
C942   C     0.53994   0.77102   0.95076   0.00000  Uiso   1.00
C943   C     0.50115   0.74920   0.52752   0.00000  Uiso   1.00
C944   C     0.50122   0.74926   0.97271   0.00000  Uiso   1.00
C945   C     0.40128   0.75000   0.73761   0.00000  Uiso   1.00
C946   C     0.59872   0.75053   0.76237   0.00000  Uiso   1.00
C947   C     0.34603   0.74979   0.73072   0.00000  Uiso   1.00
C948   C     0.65394   0.75170   0.76913   0.00000  Uiso   1.00
C949   C     0.52388   0.54624   0.78773   0.00000  Uiso   1.00
C950   C     0.46164   0.95191   0.72570   0.00000  Uiso   1.00
C951   C     0.52154   0.59215   0.79016   0.00000  Uiso   1.00
C952   C     0.50040   0.83476   0.75014   0.00000  Uiso   1.00
C953   C     0.45935   0.90596   0.72692   0.00000  Uiso   1.00
C954   C     0.49967   0.61606   0.74905   0.00000  Uiso   1.00
C955   C     0.50166   0.88269   0.75023   0.00000  Uiso   1.00
C956   C     0.47988   0.59298   0.70598   0.00000  Uiso   1.00
C957   C     0.54649   0.90518   0.77100   0.00000  Uiso   1.00
C958   C     0.48624   0.54710   0.70297   0.00000  Uiso   1.00
C959   C     0.55026   0.95115   0.76569   0.00000  Uiso   1.00
C960   C     0.50653   0.52349   0.74467   0.00000  Uiso   1.00
C961   C     0.50668   0.97481   0.74470   0.00000  Uiso   1.00
C962   C     0.50899   0.61249   0.87149   0.00000  Uiso   1.00
C963   C     0.52857   0.78142   0.55768   0.00000  Uiso   1.00
C964   C     0.37958   0.87118   0.74015   0.00000  Uiso   1.00
C965   C     0.39879   0.62388   0.67151   0.00000  Uiso   1.00
C966   C     0.58902   0.88024   0.84799   0.00000  Uiso   1.00
C967   C     0.51081   0.51729   0.63474   0.00000  Uiso   1.00
C968   C     0.62380   0.98163   0.74500   0.00000  Uiso   1.00
C969   C     0.54778   0.85480   0.62503   0.00000  Uiso   1.00
C970   C     0.38189   0.68999   0.87644   0.00000  Uiso   1.00
C971   C     0.46220   0.72741   0.94135   0.00000  Uiso   1.00
C972   C     0.52779   0.78152   0.60858   0.00000  Uiso   1.00
C973   C     0.46223   0.72714   0.89004   0.00000  Uiso   1.00
C974   C     0.47297   0.71854   0.60122   0.00000  Uiso   1.00
C975   C     0.53826   0.77141   0.90005   0.00000  Uiso   1.00
C976   C     0.47360   0.71712   0.55079   0.00000  Uiso   1.00
Cu977  Cu    0.50000   0.74999   0.79821   0.00000  Uiso   1.00
Cu978  Cu    0.50000   0.75000   0.70178   0.00000  Uiso   1.00
H979   H     0.65953   0.74777   0.69382   0.00000  Uiso   1.00
H980   H     0.57222   0.78729   0.97217   0.00000  Uiso   1.00
H981   H     0.57919   0.60437   0.84666   0.00000  Uiso   1.00
H982   H     0.50690   0.57834   0.88569   0.00000  Uiso   1.00
H983   H     0.46957   0.62342   0.85708   0.00000  Uiso   1.00
H984   H     0.52464   0.63487   0.90177   0.00000  Uiso   1.00
H985   H     0.39468   0.89932   0.67596   0.00000  Uiso   1.00
H986   H     0.36779   0.90123   0.75869   0.00000  Uiso   1.00
H987   H     0.39876   0.84818   0.76771   0.00000  Uiso   1.00
H988   H     0.34475   0.85439   0.72093   0.00000  Uiso   1.00
H989   H     0.45614   0.60292   0.63235   0.00000  Uiso   1.00
H990   H     0.34043   0.75428   0.80594   0.00000  Uiso   1.00
H991   H     0.37743   0.59211   0.67302   0.00000  Uiso   1.00
H992   H     0.38043   0.64315   0.64007   0.00000  Uiso   1.00
H993   H     0.39619   0.64331   0.70508   0.00000  Uiso   1.00
H994   H     0.62357   0.89051   0.78658   0.00000  Uiso   1.00
H995   H     0.59652   0.91390   0.86363   0.00000  Uiso   1.00
H996   H     0.62006   0.85799   0.86424   0.00000  Uiso   1.00
H997   H     0.55165   0.86767   0.85742   0.00000  Uiso   1.00
H998   H     0.53696   0.99229   0.65366   0.00000  Uiso   1.00
H999   H     0.53257   0.54826   0.62917   0.00000  Uiso   1.00
H1000  H     0.49601   0.50370   0.59838   0.00000  Uiso   1.00
H1001  H     0.53873   0.52824   0.82013   0.00000  Uiso   1.00
H1002  H     0.62776   0.95177   0.72225   0.00000  Uiso   1.00
H1003  H     0.66322   0.99263   0.76021   0.00000  Uiso   1.00
H1004  H     0.60595   0.50887   0.72215   0.00000  Uiso   1.00
H1005  H     0.50564   0.86078   0.61616   0.00000  Uiso   1.00
H1006  H     0.56844   0.86461   0.59434   0.00000  Uiso   1.00
H1007  H     0.56221   0.87660   0.65621   0.00000  Uiso   1.00
H1008  H     0.35400   0.67703   0.84597   0.00000  Uiso   1.00
H1009  H     0.36366   0.71885   0.89203   0.00000  Uiso   1.00
H1010  H     0.38922   0.66277   0.90310   0.00000  Uiso   1.00
H1011  H     0.42759   0.96977   0.71063   0.00000  Uiso   1.00
H1012  H     0.55086   0.80650   0.54226   0.00000  Uiso   1.00
H1013  H     0.43190   0.71073   0.95687   0.00000  Uiso   1.00
H1014  H     0.45112   0.69395   0.61797   0.00000  Uiso   1.00
H1015  H     0.56839   0.78837   0.88421   0.00000  Uiso   1.00
H1016  H     0.45307   0.69025   0.53085   0.00000  Uiso   1.00
N1017  N     0.50000   0.75001   0.62934   0.00000  Uiso   1.00
N1018  N     0.50000   0.74999   0.87065   0.00000  Uiso   1.00
N1019  N     0.54220   0.61406   0.83393   0.00000  Uiso   1.00
N1020  N     0.41386   0.88337   0.70568   0.00000  Uiso   1.00
N1021  N     0.45205   0.61564   0.66606   0.00000  Uiso   1.00
N1022  N     0.58836   0.88121   0.79592   0.00000  Uiso   1.00
O1023  O     0.50000   0.68572   0.79071   0.00000  Uiso   1.00
O1024  O     0.59569   0.97269   0.78380   0.00000  Uiso   1.00
O1025  O     0.55868   0.81059   0.63855   0.00000  Uiso   1.00
O1026  O     0.42762   0.70218   0.85805   0.00000  Uiso   1.00
O1027  O     0.50000   0.81427   0.70928   0.00000  Uiso   1.00
O1028  O     0.50000   0.68573   0.70928   0.00000  Uiso   1.00
O1029  O     0.50000   0.81427   0.79072   0.00000  Uiso   1.00
O1030  O     0.42495   0.74999   0.78132   0.00000  Uiso   1.00
O1031  O     0.57505   0.75000   0.71868   0.00000  Uiso   1.00
O1032  O     0.42495   0.75000   0.69988   0.00000  Uiso   1.00
O1033  O     0.57505   0.75000   0.80011   0.00000  Uiso   1.00
O1034  O     0.46857   0.52528   0.66001   0.00000  Uiso   1.00
C1035  C     0.83292   0.66480   0.74983   0.00000  Uiso   1.00
C1036  C     0.87328   0.77102   0.95076   0.00000  Uiso   1.00
C1037  C     0.83448   0.74920   0.52752   0.00000  Uiso   1.00
C1038  C     0.83455   0.74926   0.97271   0.00000  Uiso   1.00
C1039  C     0.73461   0.75000   0.73761   0.00000  Uiso   1.00
C1040  C     0.93205   0.75053   0.76237   0.00000  Uiso   1.00
C1041  C     0.67936   0.74979   0.73072   0.00000  Uiso   1.00
C1042  C     0.98727   0.75170   0.76913   0.00000  Uiso   1.00
C1043  C     0.85721   0.54624   0.78773   0.00000  Uiso   1.00
C1044  C     0.79497   0.95191   0.72570   0.00000  Uiso   1.00
C1045  C     0.85487   0.59215   0.79016   0.00000  Uiso   1.00
C1046  C     0.83374   0.83476   0.75014   0.00000  Uiso   1.00
C1047  C     0.79268   0.90596   0.72692   0.00000  Uiso   1.00
C1048  C     0.83301   0.61606   0.74905   0.00000  Uiso   1.00
C1049  C     0.83499   0.88269   0.75023   0.00000  Uiso   1.00
C1050  C     0.81321   0.59298   0.70598   0.00000  Uiso   1.00
C1051  C     0.87982   0.90518   0.77100   0.00000  Uiso   1.00
C1052  C     0.81957   0.54710   0.70297   0.00000  Uiso   1.00
C1053  C     0.88359   0.95115   0.76569   0.00000  Uiso   1.00
C1054  C     0.83987   0.52349   0.74467   0.00000  Uiso   1.00
C1055  C     0.84002   0.97481   0.74470   0.00000  Uiso   1.00
C1056  C     0.84233   0.61249   0.87149   0.00000  Uiso   1.00
C1057  C     0.86190   0.78142   0.55768   0.00000  Uiso   1.00
C1058  C     0.71292   0.87118   0.74015   0.00000  Uiso   1.00
C1059  C     0.73213   0.62388   0.67151   0.00000  Uiso   1.00
C1060  C     0.92235   0.88024   0.84799   0.00000  Uiso   1.00
C1061  C     0.84414   0.51729   0.63474   0.00000  Uiso   1.00
C1062  C     0.95713   0.98163   0.74500   0.00000  Uiso   1.00
C1063  C     0.88111   0.85480   0.62503   0.00000  Uiso   1.00
C1064  C     0.71522   0.68999   0.87644   0.00000  Uiso   1.00
C1065  C     0.79553   0.72741   0.94135   0.00000  Uiso   1.00
C1066  C     0.86112   0.78152   0.60858   0.00000  Uiso   1.00
C1067  C     0.79557   0.72714   0.89004   0.00000  Uiso   1.00
C1068  C     0.80630   0.71854   0.60122   0.00000  Uiso   1.00
C1069  C     0.87159   0.77141   0.90005   0.00000  Uiso   1.00
C1070  C     0.80693   0.71712   0.55079   0.00000  Uiso   1.00
Cu1071 Cu    0.83333   0.74999   0.79821   0.00000  Uiso   1.00
Cu1072 Cu    0.83333   0.75000   0.70178   0.00000  Uiso   1.00
H1073  H     0.99286   0.74777   0.69382   0.00000  Uiso   1.00
H1074  H     0.90555   0.78729   0.97217   0.00000  Uiso   1.00
H1075  H     0.91252   0.60437   0.84666   0.00000  Uiso   1.00
H1076  H     0.84023   0.57834   0.88569   0.00000  Uiso   1.00
H1077  H     0.80290   0.62342   0.85708   0.00000  Uiso   1.00
H1078  H     0.85797   0.63487   0.90177   0.00000  Uiso   1.00
H1079  H     0.72801   0.89932   0.67596   0.00000  Uiso   1.00
H1080  H     0.70112   0.90123   0.75869   0.00000  Uiso   1.00
H1081  H     0.73209   0.84818   0.76771   0.00000  Uiso   1.00
H1082  H     0.67809   0.85439   0.72093   0.00000  Uiso   1.00
H1083  H     0.78947   0.60292   0.63235   0.00000  Uiso   1.00
H1084  H     0.67376   0.75428   0.80594   0.00000  Uiso   1.00
H1085  H     0.71076   0.59211   0.67302   0.00000  Uiso   1.00
H1086  H     0.71377   0.64315   0.64007   0.00000  Uiso   1.00
H1087  H     0.72952   0.64331   0.70508   0.00000  Uiso   1.00
H1088  H     0.95690   0.89051   0.78658   0.00000  Uiso   1.00
H1089  H     0.92986   0.91390   0.86363   0.00000  Uiso   1.00
H1090  H     0.95339   0.85799   0.86424   0.00000  Uiso   1.00
H1091  H     0.88499   0.86767   0.85742   0.00000  Uiso   1.00
H1092  H     0.87029   0.99229   0.65366   0.00000  Uiso   1.00
H1093  H     0.86590   0.54826   0.62917   0.00000  Uiso   1.00
H1094  H     0.82934   0.50370   0.59838   0.00000  Uiso   1.00
H1095  H     0.87207   0.52824   0.82013   0.00000  Uiso   1.00
H1096  H     0.96109   0.95177   0.72225   0.00000  Uiso   1.00
H1097  H     0.99655   0.99263   0.76021   0.00000  Uiso   1.00
H1098  H     0.93928   0.50887   0.72215   0.00000  Uiso   1.00
H1099  H     0.83897   0.86078   0.61616   0.00000  Uiso   1.00
H1100  H     0.90178   0.86461   0.59434   0.00000  Uiso   1.00
H1101  H     0.89554   0.87660   0.65621   0.00000  Uiso   1.00
H1102  H     0.68733   0.67703   0.84597   0.00000  Uiso   1.00
H1103  H     0.69699   0.71885   0.89203   0.00000  Uiso   1.00
H1104  H     0.72256   0.66277   0.90310   0.00000  Uiso   1.00
H1105  H     0.76092   0.96977   0.71063   0.00000  Uiso   1.00
H1106  H     0.88420   0.80650   0.54226   0.00000  Uiso   1.00
H1107  H     0.76524   0.71073   0.95687   0.00000  Uiso   1.00
H1108  H     0.78446   0.69395   0.61797   0.00000  Uiso   1.00
H1109  H     0.90172   0.78837   0.88421   0.00000  Uiso   1.00
H1110  H     0.78640   0.69025   0.53085   0.00000  Uiso   1.00
N1111  N     0.83333   0.75001   0.62934   0.00000  Uiso   1.00
N1112  N     0.83333   0.74999   0.87065   0.00000  Uiso   1.00
N1113  N     0.87553   0.61406   0.83393   0.00000  Uiso   1.00
N1114  N     0.74720   0.88337   0.70568   0.00000  Uiso   1.00
N1115  N     0.78539   0.61564   0.66606   0.00000  Uiso   1.00
N1116  N     0.92169   0.88121   0.79592   0.00000  Uiso   1.00
O1117  O     0.83334   0.68572   0.79071   0.00000  Uiso   1.00
O1118  O     0.92903   0.97269   0.78380   0.00000  Uiso   1.00
O1119  O     0.89201   0.81059   0.63855   0.00000  Uiso   1.00
O1120  O     0.76096   0.70218   0.85805   0.00000  Uiso   1.00
O1121  O     0.83333   0.81427   0.70928   0.00000  Uiso   1.00
O1122  O     0.83334   0.68573   0.70928   0.00000  Uiso   1.00
O1123  O     0.83333   0.81427   0.79072   0.00000  Uiso   1.00
O1124  O     0.75828   0.74999   0.78132   0.00000  Uiso   1.00
O1125  O     0.90839   0.75000   0.71868   0.00000  Uiso   1.00
O1126  O     0.75828   0.75000   0.69988   0.00000  Uiso   1.00
O1127  O     0.90839   0.75000   0.80011   0.00000  Uiso   1.00
O1128  O     0.80190   0.52528   0.66001   0.00000  Uiso   1.00
loop_
_geom_bond_atom_site_label_1
_geom_bond_atom_site_label_2
_geom_bond_distance
_geom_bond_site_symmetry_2
_ccdc_geom_bond_type
C1     O88     1.297   .     A
C1     O83     1.298   .     A
C1     C14     1.475   .     S
C2     C35     1.405   .     A
C2     C4      1.411   .     A
C2     H40     1.080   .     S
C3     C23     1.410   .     A
C3     C36     1.414   .     A
C3     C568    1.524   1_554 S
C4     C31     1.409   .     A
C4     C567    1.524   .     S
C5     O92     1.288   .     A
C5     O90     1.288   .     A
C5     C7      1.434   .     S
C6     O91     1.287   .     A
C6     C8      1.433   .     S
C6     O93     1.289   .     A
C7     C196    1.333   1_455 S
C7     H227    1.087   1_455 S
C8     C101    1.333   .     S
C8     H144    1.086   .     S
C9     H61     1.083   .     S
C9     C20     1.398   .     A
C9     C11     1.393   .     A
C10    H71     1.083   .     S
C10    C21     1.402   .     A
C10    C13     1.392   .     A
C11    C14     1.413   .     A
C11    N79     1.422   .     S
C12    O89     1.291   .     A
C12    C15     1.451   .     S
C12    O87     1.290   .     A
C13    N80     1.424   .     S
C13    C15     1.403   .     A
C14    C16     1.417   .     A
C15    C17     1.405   .     A
C16    N81     1.426   .     S
C16    C18     1.403   .     A
C17    N82     1.423   .     S
C17    C19     1.404   .     A
C18    C20     1.409   .     A
C18    O94     1.384   .     S
C19    C21     1.413   .     A
C19    O84     1.384   .     S
C20    C303    1.473   1_545 S
C21    C302    1.473   .     S
C22    N79     1.447   .     S
C22    H44     1.110   .     S
C22    H43     1.110   .     S
C22    H42     1.111   .     S
C23    H72     1.078   .     S
C23    C32     1.418   .     A
C24    N80     1.445   .     S
C24    H48     1.111   .     S
C24    H47     1.110   .     S
C24    H46     1.110   .     S
C25    H53     1.111   .     S
C25    N81     1.447   .     S
C25    H51     1.112   .     S
C25    H52     1.110   .     S
C26    H55     1.111   .     S
C26    N82     1.446   .     S
C26    H56     1.110   .     S
C26    H57     1.111   .     S
C27    H60     1.109   .     S
C27    H59     1.114   .     S
C27    O94     1.410   .     S
C27    H340    1.111   1_545 S
C28    O84     1.411   .     S
C28    H63     1.109   .     S
C28    H62     1.115   .     S
C28    H346    1.111   .     S
C29    H67     1.110   .     S
C29    O85     1.413   .     S
C29    H65     1.115   .     S
C29    H66     1.110   .     S
C30    O86     1.411   .     S
C30    H70     1.111   .     S
C30    H69     1.113   .     S
C30    H68     1.109   .     S
C31    H73     1.075   .     S
C31    C33     1.427   .     A
C32    N77     1.370   .     A
C32    O85     1.386   .     S
C33    N78     1.371   .     A
C33    O86     1.396   .     S
C34    N77     1.361   .     A
C34    H74     1.079   .     S
C34    C36     1.405   .     A
C35    H75     1.080   .     S
C35    N78     1.362   .     A
C36    H76     1.080   .     S
Cu37   O90     1.959   .     S
Cu37   Cu38    2.681   .     S
Cu37   O93     1.959   .     S
Cu37   N78     2.014   .     S
Cu37   O89     1.957   .     S
Cu37   O83     1.955   .     S
Cu38   O92     1.959   .     S
Cu38   O91     1.959   .     S
Cu38   O88     1.957   .     S
Cu38   N77     2.014   .     S
Cu38   O87     1.955   .     S
H39    C101    1.087   .     S
H41    N79     1.032   .     S
H45    N80     1.032   .     S
H49    N81     1.031   .     S
H50    C196    1.086   1_455 S
H54    N82     1.028   .     S
H58    C309    1.111   .     S
H64    C310    1.111   1_545 S
C95    O182    1.297   .     A
C95    O177    1.298   .     A
C95    C108    1.475   .     S
C96    C129    1.405   .     A
C96    C98     1.411   .     A
C96    H134    1.080   .     S
C97    C117    1.410   .     A
C97    C130    1.414   .     A
C97    C662    1.524   1_554 S
C98    C125    1.409   .     A
C98    C661    1.524   .     S
C99    O186    1.288   .     A
C99    O184    1.288   .     A
C99    C101    1.434   .     S
C100   O185    1.287   .     A
C100   C102    1.433   .     S
C100   O187    1.289   .     A
C102   C195    1.333   .     S
C102   H238    1.086   .     S
C103   H155    1.083   .     S
C103   C114    1.398   .     A
C103   C105    1.393   .     A
C104   H165    1.083   .     S
C104   C115    1.402   .     A
C104   C107    1.392   .     A
C105   C108    1.413   .     A
C105   N173    1.422   .     S
C106   O183    1.291   .     A
C106   C109    1.451   .     S
C106   O181    1.290   .     A
C107   N174    1.424   .     S
C107   C109    1.403   .     A
C108   C110    1.417   .     A
C109   C111    1.405   .     A
C110   N175    1.426   .     S
C110   C112    1.403   .     A
C111   N176    1.423   .     S
C111   C113    1.404   .     A
C112   C114    1.409   .     A
C112   O188    1.384   .     S
C113   C115    1.413   .     A
C113   O178    1.384   .     S
C114   C397    1.473   1_545 S
C115   C396    1.473   .     S
C116   N173    1.447   .     S
C116   H138    1.110   .     S
C116   H137    1.110   .     S
C116   H136    1.111   .     S
C117   H166    1.078   .     S
C117   C126    1.418   .     A
C118   N174    1.445   .     S
C118   H142    1.111   .     S
C118   H141    1.110   .     S
C118   H140    1.110   .     S
C119   H147    1.111   .     S
C119   N175    1.447   .     S
C119   H145    1.112   .     S
C119   H146    1.110   .     S
C120   H149    1.111   .     S
C120   N176    1.446   .     S
C120   H150    1.110   .     S
C120   H151    1.111   .     S
C121   H154    1.109   .     S
C121   H153    1.114   .     S
C121   O188    1.410   .     S
C121   H434    1.111   1_545 S
C122   O178    1.411   .     S
C122   H157    1.109   .     S
C122   H156    1.115   .     S
C122   H440    1.111   .     S
C123   H161    1.110   .     S
C123   O179    1.413   .     S
C123   H159    1.115   .     S
C123   H160    1.110   .     S
C124   O180    1.411   .     S
C124   H164    1.111   .     S
C124   H163    1.113   .     S
C124   H162    1.109   .     S
C125   H167    1.075   .     S
C125   C127    1.427   .     A
C126   N171    1.370   .     A
C126   O179    1.386   .     S
C127   N172    1.371   .     A
C127   O180    1.396   .     S
C128   N171    1.361   .     A
C128   H168    1.079   .     S
C128   C130    1.405   .     A
C129   H169    1.080   .     S
C129   N172    1.362   .     A
C130   H170    1.080   .     S
Cu131  O184    1.959   .     S
Cu131  Cu132   2.681   .     S
Cu131  O187    1.959   .     S
Cu131  N172    2.014   .     S
Cu131  O183    1.957   .     S
Cu131  O177    1.955   .     S
Cu132  O186    1.959   .     S
Cu132  O185    1.959   .     S
Cu132  O182    1.957   .     S
Cu132  N171    2.014   .     S
Cu132  O181    1.955   .     S
H133   C195    1.087   .     S
H135   N173    1.032   .     S
H139   N174    1.032   .     S
H143   N175    1.031   .     S
H148   N176    1.028   .     S
H152   C403    1.111   .     S
H158   C404    1.111   1_545 S
C189   O276    1.297   .     A
C189   O271    1.298   .     A
C189   C202    1.475   .     S
C190   C223    1.405   .     A
C190   C192    1.411   .     A
C190   H228    1.080   .     S
C191   C211    1.410   .     A
C191   C224    1.414   .     A
C191   C756    1.524   1_554 S
C192   C219    1.409   .     A
C192   C755    1.524   .     S
C193   O280    1.288   .     A
C193   O278    1.288   .     A
C193   C195    1.434   .     S
C194   O279    1.287   .     A
C194   C196    1.433   .     S
C194   O281    1.289   .     A
C196   C7      1.333   1_655 S
C196   H50     1.086   1_655 S
C197   H249    1.083   .     S
C197   C208    1.398   .     A
C197   C199    1.393   .     A
C198   H259    1.083   .     S
C198   C209    1.402   .     A
C198   C201    1.392   .     A
C199   C202    1.413   .     A
C199   N267    1.422   .     S
C200   O277    1.291   .     A
C200   C203    1.451   .     S
C200   O275    1.290   .     A
C201   N268    1.424   .     S
C201   C203    1.403   .     A
C202   C204    1.417   .     A
C203   C205    1.405   .     A
C204   N269    1.426   .     S
C204   C206    1.403   .     A
C205   N270    1.423   .     S
C205   C207    1.404   .     A
C206   C208    1.409   .     A
C206   O282    1.384   .     S
C207   C209    1.413   .     A
C207   O272    1.384   .     S
C208   C491    1.473   1_545 S
C209   C490    1.473   .     S
C210   N267    1.447   .     S
C210   H232    1.110   .     S
C210   H231    1.110   .     S
C210   H230    1.111   .     S
C211   H260    1.078   .     S
C211   C220    1.418   .     A
C212   N268    1.445   .     S
C212   H236    1.111   .     S
C212   H235    1.110   .     S
C212   H234    1.110   .     S
C213   H241    1.111   .     S
C213   N269    1.447   .     S
C213   H239    1.112   .     S
C213   H240    1.110   .     S
C214   H243    1.111   .     S
C214   N270    1.446   .     S
C214   H244    1.110   .     S
C214   H245    1.111   .     S
C215   H248    1.109   .     S
C215   H247    1.114   .     S
C215   O282    1.410   .     S
C215   H528    1.111   1_545 S
C216   O272    1.411   .     S
C216   H251    1.109   .     S
C216   H250    1.115   .     S
C216   H534    1.111   .     S
C217   H255    1.110   .     S
C217   O273    1.413   .     S
C217   H253    1.115   .     S
C217   H254    1.110   .     S
C218   O274    1.411   .     S
C218   H258    1.111   .     S
C218   H257    1.113   .     S
C218   H256    1.109   .     S
C219   H261    1.075   .     S
C219   C221    1.427   .     A
C220   N265    1.370   .     A
C220   O273    1.386   .     S
C221   N266    1.371   .     A
C221   O274    1.396   .     S
C222   N265    1.361   .     A
C222   H262    1.079   .     S
C222   C224    1.405   .     A
C223   H263    1.080   .     S
C223   N266    1.362   .     A
C224   H264    1.080   .     S
Cu225  O278    1.959   .     S
Cu225  Cu226   2.681   .     S
Cu225  O281    1.959   .     S
Cu225  N266    2.014   .     S
Cu225  O277    1.957   .     S
Cu225  O271    1.955   .     S
Cu226  O280    1.959   .     S
Cu226  O279    1.959   .     S
Cu226  O276    1.957   .     S
Cu226  N265    2.014   .     S
Cu226  O275    1.955   .     S
H227   C7      1.087   1_655 S
H229   N267    1.032   .     S
H233   N268    1.032   .     S
H237   N269    1.031   .     S
H242   N270    1.028   .     S
H246   C497    1.111   .     S
H252   C498    1.111   1_545 S
C283   O370    1.297   .     A
C283   O365    1.298   .     A
C283   C296    1.475   .     S
C284   C317    1.405   .     A
C284   C286    1.411   .     A
C284   H322    1.080   .     S
C285   C305    1.410   .     A
C285   C318    1.414   .     A
C285   C850    1.524   1_554 S
C286   C313    1.409   .     A
C286   C849    1.524   .     S
C287   O374    1.288   .     A
C287   O372    1.288   .     A
C287   C289    1.434   .     S
C288   O373    1.287   .     A
C288   C290    1.433   .     S
C288   O375    1.289   .     A
C289   C478    1.333   1_455 S
C289   H509    1.087   1_455 S
C290   C383    1.333   .     S
C290   H426    1.086   .     S
C291   H343    1.083   .     S
C291   C302    1.398   .     A
C291   C293    1.393   .     A
C292   H353    1.083   .     S
C292   C303    1.402   .     A
C292   C295    1.392   .     A
C293   C296    1.413   .     A
C293   N361    1.422   .     S
C294   O371    1.291   .     A
C294   C297    1.451   .     S
C294   O369    1.290   .     A
C295   N362    1.424   .     S
C295   C297    1.403   .     A
C296   C298    1.417   .     A
C297   C299    1.405   .     A
C298   N363    1.426   .     S
C298   C300    1.403   .     A
C299   N364    1.423   .     S
C299   C301    1.404   .     A
C300   C302    1.409   .     A
C300   O376    1.384   .     S
C301   C303    1.413   .     A
C301   O366    1.384   .     S
C303   C20     1.473   1_565 S
C304   N361    1.447   .     S
C304   H326    1.110   .     S
C304   H325    1.110   .     S
C304   H324    1.111   .     S
C305   H354    1.078   .     S
C305   C314    1.418   .     A
C306   N362    1.445   .     S
C306   H330    1.111   .     S
C306   H329    1.110   .     S
C306   H328    1.110   .     S
C307   H335    1.111   .     S
C307   N363    1.447   .     S
C307   H333    1.112   .     S
C307   H334    1.110   .     S
C308   H337    1.111   .     S
C308   N364    1.446   .     S
C308   H338    1.110   .     S
C308   H339    1.111   .     S
C309   H342    1.109   .     S
C309   H341    1.114   .     S
C309   O376    1.410   .     S
C310   O366    1.411   .     S
C310   H345    1.109   .     S
C310   H344    1.115   .     S
C310   H64     1.111   1_565 S
C311   H349    1.110   .     S
C311   O367    1.413   .     S
C311   H347    1.115   .     S
C311   H348    1.110   .     S
C312   O368    1.411   .     S
C312   H352    1.111   .     S
C312   H351    1.113   .     S
C312   H350    1.109   .     S
C313   H355    1.075   .     S
C313   C315    1.427   .     A
C314   N359    1.370   .     A
C314   O367    1.386   .     S
C315   N360    1.371   .     A
C315   O368    1.396   .     S
C316   N359    1.361   .     A
C316   H356    1.079   .     S
C316   C318    1.405   .     A
C317   H357    1.080   .     S
C317   N360    1.362   .     A
C318   H358    1.080   .     S
Cu319  O372    1.959   .     S
Cu319  Cu320   2.681   .     S
Cu319  O375    1.959   .     S
Cu319  N360    2.014   .     S
Cu319  O371    1.957   .     S
Cu319  O365    1.955   .     S
Cu320  O374    1.959   .     S
Cu320  O373    1.959   .     S
Cu320  O370    1.957   .     S
Cu320  N359    2.014   .     S
Cu320  O369    1.955   .     S
H321   C383    1.087   .     S
H323   N361    1.032   .     S
H327   N362    1.032   .     S
H331   N363    1.031   .     S
H332   C478    1.086   1_455 S
H336   N364    1.028   .     S
H340   C27     1.111   1_565 S
C377   O464    1.297   .     A
C377   O459    1.298   .     A
C377   C390    1.475   .     S
C378   C411    1.405   .     A
C378   C380    1.411   .     A
C378   H416    1.080   .     S
C379   C399    1.410   .     A
C379   C412    1.414   .     A
C379   C944    1.524   1_554 S
C380   C407    1.409   .     A
C380   C943    1.524   .     S
C381   O468    1.288   .     A
C381   O466    1.288   .     A
C381   C383    1.434   .     S
C382   O467    1.287   .     A
C382   C384    1.433   .     S
C382   O469    1.289   .     A
C384   C477    1.333   .     S
C384   H520    1.086   .     S
C385   H437    1.083   .     S
C385   C396    1.398   .     A
C385   C387    1.393   .     A
C386   H447    1.083   .     S
C386   C397    1.402   .     A
C386   C389    1.392   .     A
C387   C390    1.413   .     A
C387   N455    1.422   .     S
C388   O465    1.291   .     A
C388   C391    1.451   .     S
C388   O463    1.290   .     A
C389   N456    1.424   .     S
C389   C391    1.403   .     A
C390   C392    1.417   .     A
C391   C393    1.405   .     A
C392   N457    1.426   .     S
C392   C394    1.403   .     A
C393   N458    1.423   .     S
C393   C395    1.404   .     A
C394   C396    1.409   .     A
C394   O470    1.384   .     S
C395   C397    1.413   .     A
C395   O460    1.384   .     S
C397   C114    1.473   1_565 S
C398   N455    1.447   .     S
C398   H420    1.110   .     S
C398   H419    1.110   .     S
C398   H418    1.111   .     S
C399   H448    1.078   .     S
C399   C408    1.418   .     A
C400   N456    1.445   .     S
C400   H424    1.111   .     S
C400   H423    1.110   .     S
C400   H422    1.110   .     S
C401   H429    1.111   .     S
C401   N457    1.447   .     S
C401   H427    1.112   .     S
C401   H428    1.110   .     S
C402   H431    1.111   .     S
C402   N458    1.446   .     S
C402   H432    1.110   .     S
C402   H433    1.111   .     S
C403   H436    1.109   .     S
C403   H435    1.114   .     S
C403   O470    1.410   .     S
C404   O460    1.411   .     S
C404   H439    1.109   .     S
C404   H438    1.115   .     S
C404   H158    1.111   1_565 S
C405   H443    1.110   .     S
C405   O461    1.413   .     S
C405   H441    1.115   .     S
C405   H442    1.110   .     S
C406   O462    1.411   .     S
C406   H446    1.111   .     S
C406   H445    1.113   .     S
C406   H444    1.109   .     S
C407   H449    1.075   .     S
C407   C409    1.427   .     A
C408   N453    1.370   .     A
C408   O461    1.386   .     S
C409   N454    1.371   .     A
C409   O462    1.396   .     S
C410   N453    1.361   .     A
C410   H450    1.079   .     S
C410   C412    1.405   .     A
C411   H451    1.080   .     S
C411   N454    1.362   .     A
C412   H452    1.080   .     S
Cu413  O466    1.959   .     S
Cu413  Cu414   2.681   .     S
Cu413  O469    1.959   .     S
Cu413  N454    2.014   .     S
Cu413  O465    1.957   .     S
Cu413  O459    1.955   .     S
Cu414  O468    1.959   .     S
Cu414  O467    1.959   .     S
Cu414  O464    1.957   .     S
Cu414  N453    2.014   .     S
Cu414  O463    1.955   .     S
H415   C477    1.087   .     S
H417   N455    1.032   .     S
H421   N456    1.032   .     S
H425   N457    1.031   .     S
H430   N458    1.028   .     S
H434   C121    1.111   1_565 S
C471   O558    1.297   .     A
C471   O553    1.298   .     A
C471   C484    1.475   .     S
C472   C505    1.405   .     A
C472   C474    1.411   .     A
C472   H510    1.080   .     S
C473   C493    1.410   .     A
C473   C506    1.414   .     A
C473   C1038   1.524   1_554 S
C474   C501    1.409   .     A
C474   C1037   1.524   .     S
C475   O562    1.288   .     A
C475   O560    1.288   .     A
C475   C477    1.434   .     S
C476   O561    1.287   .     A
C476   C478    1.433   .     S
C476   O563    1.289   .     A
C478   C289    1.333   1_655 S
C478   H332    1.086   1_655 S
C479   H531    1.083   .     S
C479   C490    1.398   .     A
C479   C481    1.393   .     A
C480   H541    1.083   .     S
C480   C491    1.402   .     A
C480   C483    1.392   .     A
C481   C484    1.413   .     A
C481   N549    1.422   .     S
C482   O559    1.291   .     A
C482   C485    1.451   .     S
C482   O557    1.290   .     A
C483   N550    1.424   .     S
C483   C485    1.403   .     A
C484   C486    1.417   .     A
C485   C487    1.405   .     A
C486   N551    1.426   .     S
C486   C488    1.403   .     A
C487   N552    1.423   .     S
C487   C489    1.404   .     A
C488   C490    1.409   .     A
C488   O564    1.384   .     S
C489   C491    1.413   .     A
C489   O554    1.384   .     S
C491   C208    1.473   1_565 S
C492   N549    1.447   .     S
C492   H514    1.110   .     S
C492   H513    1.110   .     S
C492   H512    1.111   .     S
C493   H542    1.078   .     S
C493   C502    1.418   .     A
C494   N550    1.445   .     S
C494   H518    1.111   .     S
C494   H517    1.110   .     S
C494   H516    1.110   .     S
C495   H523    1.111   .     S
C495   N551    1.447   .     S
C495   H521    1.112   .     S
C495   H522    1.110   .     S
C496   H525    1.111   .     S
C496   N552    1.446   .     S
C496   H526    1.110   .     S
C496   H527    1.111   .     S
C497   H530    1.109   .     S
C497   H529    1.114   .     S
C497   O564    1.410   .     S
C498   O554    1.411   .     S
C498   H533    1.109   .     S
C498   H532    1.115   .     S
C498   H252    1.111   1_565 S
C499   H537    1.110   .     S
C499   O555    1.413   .     S
C499   H535    1.115   .     S
C499   H536    1.110   .     S
C500   O556    1.411   .     S
C500   H540    1.111   .     S
C500   H539    1.113   .     S
C500   H538    1.109   .     S
C501   H543    1.075   .     S
C501   C503    1.427   .     A
C502   N547    1.370   .     A
C502   O555    1.386   .     S
C503   N548    1.371   .     A
C503   O556    1.396   .     S
C504   N547    1.361   .     A
C504   H544    1.079   .     S
C504   C506    1.405   .     A
C505   H545    1.080   .     S
C505   N548    1.362   .     A
C506   H546    1.080   .     S
Cu507  O560    1.959   .     S
Cu507  Cu508   2.681   .     S
Cu507  O563    1.959   .     S
Cu507  N548    2.014   .     S
Cu507  O559    1.957   .     S
Cu507  O553    1.955   .     S
Cu508  O562    1.959   .     S
Cu508  O561    1.959   .     S
Cu508  O558    1.957   .     S
Cu508  N547    2.014   .     S
Cu508  O557    1.955   .     S
H509   C289    1.087   1_655 S
H511   N549    1.032   .     S
H515   N550    1.032   .     S
H519   N551    1.031   .     S
H524   N552    1.028   .     S
H528   C215    1.111   1_565 S
C565   O652    1.297   .     A
C565   O647    1.298   .     A
C565   C578    1.475   .     S
C566   C599    1.405   .     A
C566   C568    1.411   .     A
C566   H604    1.080   .     S
C567   C587    1.410   .     A
C567   C600    1.414   .     A
C568   C595    1.409   .     A
C568   C3      1.524   1_556 S
C569   O656    1.288   .     A
C569   O654    1.288   .     A
C569   C571    1.434   .     S
C570   O655    1.287   .     A
C570   C572    1.433   .     S
C570   O657    1.289   .     A
C571   C760    1.333   1_455 S
C571   H791    1.087   1_455 S
C572   C665    1.333   .     S
C572   H708    1.086   .     S
C573   H625    1.083   .     S
C573   C584    1.398   .     A
C573   C575    1.393   .     A
C574   H635    1.083   .     S
C574   C585    1.402   .     A
C574   C577    1.392   .     A
C575   C578    1.413   .     A
C575   N643    1.422   .     S
C576   O653    1.291   .     A
C576   C579    1.451   .     S
C576   O651    1.290   .     A
C577   N644    1.424   .     S
C577   C579    1.403   .     A
C578   C580    1.417   .     A
C579   C581    1.405   .     A
C580   N645    1.426   .     S
C580   C582    1.403   .     A
C581   N646    1.423   .     S
C581   C583    1.404   .     A
C582   C584    1.409   .     A
C582   O658    1.384   .     S
C583   C585    1.413   .     A
C583   O648    1.384   .     S
C584   C867    1.473   1_545 S
C585   C866    1.473   .     S
C586   N643    1.447   .     S
C586   H608    1.110   .     S
C586   H607    1.110   .     S
C586   H606    1.111   .     S
C587   H636    1.078   .     S
C587   C596    1.418   .     A
C588   N644    1.445   .     S
C588   H612    1.111   .     S
C588   H611    1.110   .     S
C588   H610    1.110   .     S
C589   H617    1.111   .     S
C589   N645    1.447   .     S
C589   H615    1.112   .     S
C589   H616    1.110   .     S
C590   H619    1.111   .     S
C590   N646    1.446   .     S
C590   H620    1.110   .     S
C590   H621    1.111   .     S
C591   H624    1.109   .     S
C591   H623    1.114   .     S
C591   O658    1.410   .     S
C591   H904    1.111   1_545 S
C592   O648    1.411   .     S
C592   H627    1.109   .     S
C592   H626    1.115   .     S
C592   H910    1.111   .     S
C593   H631    1.110   .     S
C593   O649    1.413   .     S
C593   H629    1.115   .     S
C593   H630    1.110   .     S
C594   O650    1.411   .     S
C594   H634    1.111   .     S
C594   H633    1.113   .     S
C594   H632    1.109   .     S
C595   H637    1.075   .     S
C595   C597    1.427   .     A
C596   N641    1.370   .     A
C596   O649    1.386   .     S
C597   N642    1.371   .     A
C597   O650    1.396   .     S
C598   N641    1.361   .     A
C598   H638    1.079   .     S
C598   C600    1.405   .     A
C599   H639    1.080   .     S
C599   N642    1.362   .     A
C600   H640    1.080   .     S
Cu601  O654    1.959   .     S
Cu601  Cu602   2.681   .     S
Cu601  O657    1.959   .     S
Cu601  N642    2.014   .     S
Cu601  O653    1.957   .     S
Cu601  O647    1.955   .     S
Cu602  O656    1.959   .     S
Cu602  O655    1.959   .     S
Cu602  O652    1.957   .     S
Cu602  N641    2.014   .     S
Cu602  O651    1.955   .     S
H603   C665    1.087   .     S
H605   N643    1.032   .     S
H609   N644    1.032   .     S
H613   N645    1.031   .     S
H614   C760    1.086   1_455 S
H618   N646    1.028   .     S
H622   C873    1.111   .     S
H628   C874    1.111   1_545 S
C659   O746    1.297   .     A
C659   O741    1.298   .     A
C659   C672    1.475   .     S
C660   C693    1.405   .     A
C660   C662    1.411   .     A
C660   H698    1.080   .     S
C661   C681    1.410   .     A
C661   C694    1.414   .     A
C662   C689    1.409   .     A
C662   C97     1.524   1_556 S
C663   O750    1.288   .     A
C663   O748    1.288   .     A
C663   C665    1.434   .     S
C664   O749    1.287   .     A
C664   C666    1.433   .     S
C664   O751    1.289   .     A
C666   C759    1.333   .     S
C666   H802    1.086   .     S
C667   H719    1.083   .     S
C667   C678    1.398   .     A
C667   C669    1.393   .     A
C668   H729    1.083   .     S
C668   C679    1.402   .     A
C668   C671    1.392   .     A
C669   C672    1.413   .     A
C669   N737    1.422   .     S
C670   O747    1.291   .     A
C670   C673    1.451   .     S
C670   O745    1.290   .     A
C671   N738    1.424   .     S
C671   C673    1.403   .     A
C672   C674    1.417   .     A
C673   C675    1.405   .     A
C674   N739    1.426   .     S
C674   C676    1.403   .     A
C675   N740    1.423   .     S
C675   C677    1.404   .     A
C676   C678    1.409   .     A
C676   O752    1.384   .     S
C677   C679    1.413   .     A
C677   O742    1.384   .     S
C678   C961    1.473   1_545 S
C679   C960    1.473   .     S
C680   N737    1.447   .     S
C680   H702    1.110   .     S
C680   H701    1.110   .     S
C680   H700    1.111   .     S
C681   H730    1.078   .     S
C681   C690    1.418   .     A
C682   N738    1.445   .     S
C682   H706    1.111   .     S
C682   H705    1.110   .     S
C682   H704    1.110   .     S
C683   H711    1.111   .     S
C683   N739    1.447   .     S
C683   H709    1.112   .     S
C683   H710    1.110   .     S
C684   H713    1.111   .     S
C684   N740    1.446   .     S
C684   H714    1.110   .     S
C684   H715    1.111   .     S
C685   H718    1.109   .     S
C685   H717    1.114   .     S
C685   O752    1.410   .     S
C685   H998    1.111   1_545 S
C686   O742    1.411   .     S
C686   H721    1.109   .     S
C686   H720    1.115   .     S
C686   H1004   1.111   .     S
C687   H725    1.110   .     S
C687   O743    1.413   .     S
C687   H723    1.115   .     S
C687   H724    1.110   .     S
C688   O744    1.411   .     S
C688   H728    1.111   .     S
C688   H727    1.113   .     S
C688   H726    1.109   .     S
C689   H731    1.075   .     S
C689   C691    1.427   .     A
C690   N735    1.370   .     A
C690   O743    1.386   .     S
C691   N736    1.371   .     A
C691   O744    1.396   .     S
C692   N735    1.361   .     A
C692   H732    1.079   .     S
C692   C694    1.405   .     A
C693   H733    1.080   .     S
C693   N736    1.362   .     A
C694   H734    1.080   .     S
Cu695  O748    1.959   .     S
Cu695  Cu696   2.681   .     S
Cu695  O751    1.959   .     S
Cu695  N736    2.014   .     S
Cu695  O747    1.957   .     S
Cu695  O741    1.955   .     S
Cu696  O750    1.959   .     S
Cu696  O749    1.959   .     S
Cu696  O746    1.957   .     S
Cu696  N735    2.014   .     S
Cu696  O745    1.955   .     S
H697   C759    1.087   .     S
H699   N737    1.032   .     S
H703   N738    1.032   .     S
H707   N739    1.031   .     S
H712   N740    1.028   .     S
H716   C967    1.111   .     S
H722   C968    1.111   1_545 S
C753   O840    1.297   .     A
C753   O835    1.298   .     A
C753   C766    1.475   .     S
C754   C787    1.405   .     A
C754   C756    1.411   .     A
C754   H792    1.080   .     S
C755   C775    1.410   .     A
C755   C788    1.414   .     A
C756   C783    1.409   .     A
C756   C191    1.524   1_556 S
C757   O844    1.288   .     A
C757   O842    1.288   .     A
C757   C759    1.434   .     S
C758   O843    1.287   .     A
C758   C760    1.433   .     S
C758   O845    1.289   .     A
C760   C571    1.333   1_655 S
C760   H614    1.086   1_655 S
C761   H813    1.083   .     S
C761   C772    1.398   .     A
C761   C763    1.393   .     A
C762   H823    1.083   .     S
C762   C773    1.402   .     A
C762   C765    1.392   .     A
C763   C766    1.413   .     A
C763   N831    1.422   .     S
C764   O841    1.291   .     A
C764   C767    1.451   .     S
C764   O839    1.290   .     A
C765   N832    1.424   .     S
C765   C767    1.403   .     A
C766   C768    1.417   .     A
C767   C769    1.405   .     A
C768   N833    1.426   .     S
C768   C770    1.403   .     A
C769   N834    1.423   .     S
C769   C771    1.404   .     A
C770   C772    1.409   .     A
C770   O846    1.384   .     S
C771   C773    1.413   .     A
C771   O836    1.384   .     S
C772   C1055   1.473   1_545 S
C773   C1054   1.473   .     S
C774   N831    1.447   .     S
C774   H796    1.110   .     S
C774   H795    1.110   .     S
C774   H794    1.111   .     S
C775   H824    1.078   .     S
C775   C784    1.418   .     A
C776   N832    1.445   .     S
C776   H800    1.111   .     S
C776   H799    1.110   .     S
C776   H798    1.110   .     S
C777   H805    1.111   .     S
C777   N833    1.447   .     S
C777   H803    1.112   .     S
C777   H804    1.110   .     S
C778   H807    1.111   .     S
C778   N834    1.446   .     S
C778   H808    1.110   .     S
C778   H809    1.111   .     S
C779   H812    1.109   .     S
C779   H811    1.114   .     S
C779   O846    1.410   .     S
C779   H1092   1.111   1_545 S
C780   O836    1.411   .     S
C780   H815    1.109   .     S
C780   H814    1.115   .     S
C780   H1098   1.111   .     S
C781   H819    1.110   .     S
C781   O837    1.413   .     S
C781   H817    1.115   .     S
C781   H818    1.110   .     S
C782   O838    1.411   .     S
C782   H822    1.111   .     S
C782   H821    1.113   .     S
C782   H820    1.109   .     S
C783   H825    1.075   .     S
C783   C785    1.427   .     A
C784   N829    1.370   .     A
C784   O837    1.386   .     S
C785   N830    1.371   .     A
C785   O838    1.396   .     S
C786   N829    1.361   .     A
C786   H826    1.079   .     S
C786   C788    1.405   .     A
C787   H827    1.080   .     S
C787   N830    1.362   .     A
C788   H828    1.080   .     S
Cu789  O842    1.959   .     S
Cu789  Cu790   2.681   .     S
Cu789  O845    1.959   .     S
Cu789  N830    2.014   .     S
Cu789  O841    1.957   .     S
Cu789  O835    1.955   .     S
Cu790  O844    1.959   .     S
Cu790  O843    1.959   .     S
Cu790  O840    1.957   .     S
Cu790  N829    2.014   .     S
Cu790  O839    1.955   .     S
H791   C571    1.087   1_655 S
H793   N831    1.032   .     S
H797   N832    1.032   .     S
H801   N833    1.031   .     S
H806   N834    1.028   .     S
H810   C1061   1.111   .     S
H816   C1062   1.111   1_545 S
C847   O934    1.297   .     A
C847   O929    1.298   .     A
C847   C860    1.475   .     S
C848   C881    1.405   .     A
C848   C850    1.411   .     A
C848   H886    1.080   .     S
C849   C869    1.410   .     A
C849   C882    1.414   .     A
C850   C877    1.409   .     A
C850   C285    1.524   1_556 S
C851   O938    1.288   .     A
C851   O936    1.288   .     A
C851   C853    1.434   .     S
C852   O937    1.287   .     A
C852   C854    1.433   .     S
C852   O939    1.289   .     A
C853   C1042   1.333   1_455 S
C853   H1073   1.087   1_455 S
C854   C947    1.333   .     S
C854   H990    1.086   .     S
C855   H907    1.083   .     S
C855   C866    1.398   .     A
C855   C857    1.393   .     A
C856   H917    1.083   .     S
C856   C867    1.402   .     A
C856   C859    1.392   .     A
C857   C860    1.413   .     A
C857   N925    1.422   .     S
C858   O935    1.291   .     A
C858   C861    1.451   .     S
C858   O933    1.290   .     A
C859   N926    1.424   .     S
C859   C861    1.403   .     A
C860   C862    1.417   .     A
C861   C863    1.405   .     A
C862   N927    1.426   .     S
C862   C864    1.403   .     A
C863   N928    1.423   .     S
C863   C865    1.404   .     A
C864   C866    1.409   .     A
C864   O940    1.384   .     S
C865   C867    1.413   .     A
C865   O930    1.384   .     S
C867   C584    1.473   1_565 S
C868   N925    1.447   .     S
C868   H890    1.110   .     S
C868   H889    1.110   .     S
C868   H888    1.111   .     S
C869   H918    1.078   .     S
C869   C878    1.418   .     A
C870   N926    1.445   .     S
C870   H894    1.111   .     S
C870   H893    1.110   .     S
C870   H892    1.110   .     S
C871   H899    1.111   .     S
C871   N927    1.447   .     S
C871   H897    1.112   .     S
C871   H898    1.110   .     S
C872   H901    1.111   .     S
C872   N928    1.446   .     S
C872   H902    1.110   .     S
C872   H903    1.111   .     S
C873   H906    1.109   .     S
C873   H905    1.114   .     S
C873   O940    1.410   .     S
C874   O930    1.411   .     S
C874   H909    1.109   .     S
C874   H908    1.115   .     S
C874   H628    1.111   1_565 S
C875   H913    1.110   .     S
C875   O931    1.413   .     S
C875   H911    1.115   .     S
C875   H912    1.110   .     S
C876   O932    1.411   .     S
C876   H916    1.111   .     S
C876   H915    1.113   .     S
C876   H914    1.109   .     S
C877   H919    1.075   .     S
C877   C879    1.427   .     A
C878   N923    1.370   .     A
C878   O931    1.386   .     S
C879   N924    1.371   .     A
C879   O932    1.396   .     S
C880   N923    1.361   .     A
C880   H920    1.079   .     S
C880   C882    1.405   .     A
C881   H921    1.080   .     S
C881   N924    1.362   .     A
C882   H922    1.080   .     S
Cu883  O936    1.959   .     S
Cu883  Cu884   2.681   .     S
Cu883  O939    1.959   .     S
Cu883  N924    2.014   .     S
Cu883  O935    1.957   .     S
Cu883  O929    1.955   .     S
Cu884  O938    1.959   .     S
Cu884  O937    1.959   .     S
Cu884  O934    1.957   .     S
Cu884  N923    2.014   .     S
Cu884  O933    1.955   .     S
H885   C947    1.087   .     S
H887   N925    1.032   .     S
H891   N926    1.032   .     S
H895   N927    1.031   .     S
H896   C1042   1.086   1_455 S
H900   N928    1.028   .     S
H904   C591    1.111   1_565 S
C941   O1028   1.297   .     A
C941   O1023   1.298   .     A
C941   C954    1.475   .     S
C942   C975    1.405   .     A
C942   C944    1.411   .     A
C942   H980    1.080   .     S
C943   C963    1.410   .     A
C943   C976    1.414   .     A
C944   C971    1.409   .     A
C944   C379    1.524   1_556 S
C945   O1032   1.288   .     A
C945   O1030   1.288   .     A
C945   C947    1.434   .     S
C946   O1031   1.287   .     A
C946   C948    1.433   .     S
C946   O1033   1.289   .     A
C948   C1041   1.333   .     S
C948   H1084   1.086   .     S
C949   H1001   1.083   .     S
C949   C960    1.398   .     A
C949   C951    1.393   .     A
C950   H1011   1.083   .     S
C950   C961    1.402   .     A
C950   C953    1.392   .     A
C951   C954    1.413   .     A
C951   N1019   1.422   .     S
C952   O1029   1.291   .     A
C952   C955    1.451   .     S
C952   O1027   1.290   .     A
C953   N1020   1.424   .     S
C953   C955    1.403   .     A
C954   C956    1.417   .     A
C955   C957    1.405   .     A
C956   N1021   1.426   .     S
C956   C958    1.403   .     A
C957   N1022   1.423   .     S
C957   C959    1.404   .     A
C958   C960    1.409   .     A
C958   O1034   1.384   .     S
C959   C961    1.413   .     A
C959   O1024   1.384   .     S
C961   C678    1.473   1_565 S
C962   N1019   1.447   .     S
C962   H984    1.110   .     S
C962   H983    1.110   .     S
C962   H982    1.111   .     S
C963   H1012   1.078   .     S
C963   C972    1.418   .     A
C964   N1020   1.445   .     S
C964   H988    1.111   .     S
C964   H987    1.110   .     S
C964   H986    1.110   .     S
C965   H993    1.111   .     S
C965   N1021   1.447   .     S
C965   H991    1.112   .     S
C965   H992    1.110   .     S
C966   H995    1.111   .     S
C966   N1022   1.446   .     S
C966   H996    1.110   .     S
C966   H997    1.111   .     S
C967   H1000   1.109   .     S
C967   H999    1.114   .     S
C967   O1034   1.410   .     S
C968   O1024   1.411   .     S
C968   H1003   1.109   .     S
C968   H1002   1.115   .     S
C968   H722    1.111   1_565 S
C969   H1007   1.110   .     S
C969   O1025   1.413   .     S
C969   H1005   1.115   .     S
C969   H1006   1.110   .     S
C970   O1026   1.411   .     S
C970   H1010   1.111   .     S
C970   H1009   1.113   .     S
C970   H1008   1.109   .     S
C971   H1013   1.075   .     S
C971   C973    1.427   .     A
C972   N1017   1.370   .     A
C972   O1025   1.386   .     S
C973   N1018   1.371   .     A
C973   O1026   1.396   .     S
C974   N1017   1.361   .     A
C974   H1014   1.079   .     S
C974   C976    1.405   .     A
C975   H1015   1.080   .     S
C975   N1018   1.362   .     A
C976   H1016   1.080   .     S
Cu977  O1030   1.959   .     S
Cu977  Cu978   2.681   .     S
Cu977  O1033   1.959   .     S
Cu977  N1018   2.014   .     S
Cu977  O1029   1.957   .     S
Cu977  O1023   1.955   .     S
Cu978  O1032   1.959   .     S
Cu978  O1031   1.959   .     S
Cu978  O1028   1.957   .     S
Cu978  N1017   2.014   .     S
Cu978  O1027   1.955   .     S
H979   C1041   1.087   .     S
H981   N1019   1.032   .     S
H985   N1020   1.032   .     S
H989   N1021   1.031   .     S
H994   N1022   1.028   .     S
H998   C685    1.111   1_565 S
C1035  O1122   1.297   .     A
C1035  O1117   1.298   .     A
C1035  C1048   1.475   .     S
C1036  C1069   1.405   .     A
C1036  C1038   1.411   .     A
C1036  H1074   1.080   .     S
C1037  C1057   1.410   .     A
C1037  C1070   1.414   .     A
C1038  C1065   1.409   .     A
C1038  C473    1.524   1_556 S
C1039  O1126   1.288   .     A
C1039  O1124   1.288   .     A
C1039  C1041   1.434   .     S
C1040  O1125   1.287   .     A
C1040  C1042   1.433   .     S
C1040  O1127   1.289   .     A
C1042  C853    1.333   1_655 S
C1042  H896    1.086   1_655 S
C1043  H1095   1.083   .     S
C1043  C1054   1.398   .     A
C1043  C1045   1.393   .     A
C1044  H1105   1.083   .     S
C1044  C1055   1.402   .     A
C1044  C1047   1.392   .     A
C1045  C1048   1.413   .     A
C1045  N1113   1.422   .     S
C1046  O1123   1.291   .     A
C1046  C1049   1.451   .     S
C1046  O1121   1.290   .     A
C1047  N1114   1.424   .     S
C1047  C1049   1.403   .     A
C1048  C1050   1.417   .     A
C1049  C1051   1.405   .     A
C1050  N1115   1.426   .     S
C1050  C1052   1.403   .     A
C1051  N1116   1.423   .     S
C1051  C1053   1.404   .     A
C1052  C1054   1.409   .     A
C1052  O1128   1.384   .     S
C1053  C1055   1.413   .     A
C1053  O1118   1.384   .     S
C1055  C772    1.473   1_565 S
C1056  N1113   1.447   .     S
C1056  H1078   1.110   .     S
C1056  H1077   1.110   .     S
C1056  H1076   1.111   .     S
C1057  H1106   1.078   .     S
C1057  C1066   1.418   .     A
C1058  N1114   1.445   .     S
C1058  H1082   1.111   .     S
C1058  H1081   1.110   .     S
C1058  H1080   1.110   .     S
C1059  H1087   1.111   .     S
C1059  N1115   1.447   .     S
C1059  H1085   1.112   .     S
C1059  H1086   1.110   .     S
C1060  H1089   1.111   .     S
C1060  N1116   1.446   .     S
C1060  H1090   1.110   .     S
C1060  H1091   1.111   .     S
C1061  H1094   1.109   .     S
C1061  H1093   1.114   .     S
C1061  O1128   1.410   .     S
C1062  O1118   1.411   .     S
C1062  H1097   1.109   .     S
C1062  H1096   1.115   .     S
C1062  H816    1.111   1_565 S
C1063  H1101   1.110   .     S
C1063  O1119   1.413   .     S
C1063  H1099   1.115   .     S
C1063  H1100   1.110   .     S
C1064  O1120   1.411   .     S
C1064  H1104   1.111   .     S
C1064  H1103   1.113   .     S
C1064  H1102   1.109   .     S
C1065  H1107   1.075   .     S
C1065  C1067   1.427   .     A
C1066  N1111   1.370   .     A
C1066  O1119   1.386   .     S
C1067  N1112   1.371   .     A
C1067  O1120   1.396   .     S
C1068  N1111   1.361   .     A
C1068  H1108   1.079   .     S
C1068  C1070   1.405   .     A
C1069  H1109   1.080   .     S
C1069  N1112   1.362   .     A
C1070  H1110   1.080   .     S
Cu1071 O1124   1.959   .     S
Cu1071 Cu1072  2.681   .     S
Cu1071 O1127   1.959   .     S
Cu1071 N1112   2.014   .     S
Cu1071 O1123   1.957   .     S
Cu1071 O1117   1.955   .     S
Cu1072 O1126   1.959   .     S
Cu1072 O1125   1.959   .     S
Cu1072 O1122   1.957   .     S
Cu1072 N1111   2.014   .     S
Cu1072 O1121   1.955   .     S
H1073  C853    1.087   1_655 S
H1075  N1113   1.032   .     S
H1079  N1114   1.032   .     S
H1083  N1115   1.031   .     S
H1088  N1116   1.028   .     S
H1092  C779    1.111   1_565 S
