data_str_m2_o10_o16_pcu_sym.161
_audit_creation_date              2020-01-03
_audit_creation_method            'Materials Studio'
_symmetry_space_group_name_H-M    'P1'
_symmetry_Int_Tables_number       1
_symmetry_cell_setting            triclinic
loop_
_symmetry_equiv_pos_as_xyz
  x,y,z
_cell_length_a                    22.3416
_cell_length_b                    26.0637
_cell_length_c                    26.7317
_cell_angle_alpha                 93.9042
_cell_angle_beta                  78.8234
_cell_angle_gamma                 102.9560
loop_
_atom_site_label
_atom_site_type_symbol
_atom_site_fract_x
_atom_site_fract_y
_atom_site_fract_z
_atom_site_U_iso_or_equiv
_atom_site_adp_type
_atom_site_occupancy
C1     C     0.18189   0.26671   0.25105   0.00000  Uiso   1.00
C2     C     0.14334   0.12863   0.48223   0.00000  Uiso   1.00
C3     C     0.16286   0.13504   0.42894   0.00000  Uiso   1.00
C4     C     0.18840   0.14905   0.01420   0.00000  Uiso   1.00
C5     C     0.25180   0.16908   0.49172   0.00000  Uiso   1.00
C6     C     0.27060   0.16528   0.43940   0.00000  Uiso   1.00
C7     C     0.22797   0.14149   0.40921   0.00000  Uiso   1.00
C8     C     0.17227   0.15353   0.06742   0.00000  Uiso   1.00
C9     C     0.28029   0.19007   0.07463   0.00000  Uiso   1.00
C10    C     0.11707   0.13303   0.39778   0.00000  Uiso   1.00
C11    C     0.19082   0.32260   0.25043   0.00000  Uiso   1.00
C12    C     0.13370   0.15493   0.34561   0.00000  Uiso   1.00
C13    C     0.14294   0.01068   0.24803   0.00000  Uiso   1.00
C14    C     0.15164   0.06661   0.24836   0.00000  Uiso   1.00
C15    C     0.19972   0.17038   0.15307   0.00000  Uiso   1.00
C16    C     0.29687   0.18971   0.02187   0.00000  Uiso   1.00
C17    C     0.21810   0.17148   0.09759   0.00000  Uiso   1.00
C18    C     0.05574   0.10771   0.41653   0.00000  Uiso   1.00
C19    C     0.03864   0.08908   0.46599   0.00000  Uiso   1.00
C20    C     0.08140   0.09975   0.00023   0.00000  Uiso   1.00
Cu21   Cu    0.10710   0.16105   0.24436   0.00000  Uiso   1.00
Cu22   Cu    0.22623   0.17228   0.25565   0.00000  Uiso   1.00
H23    H     0.31599   0.20482   0.09740   0.00000  Uiso   1.00
H24    H     0.09663   0.32035   0.24615   0.00000  Uiso   1.00
H25    H     0.00396   0.20621   0.28965   0.00000  Uiso   1.00
H26    H     0.32933   0.12705   0.21041   0.00000  Uiso   1.00
H27    H     0.31936   0.17739   0.42216   0.00000  Uiso   1.00
H28    H     0.01204   0.20413   0.00460   0.00000  Uiso   1.00
H29    H     0.12406   0.14454   0.08612   0.00000  Uiso   1.00
H30    H     0.02150   0.10004   0.39189   0.00000  Uiso   1.00
H31    H     0.32502   0.06606   0.47686   0.00000  Uiso   1.00
H32    H     0.23723   0.01291   0.25182   0.00000  Uiso   1.00
N33    N     0.31574   0.18074   0.26416   0.00000  Uiso   1.00
N34    N     0.01759   0.15259   0.23584   0.00000  Uiso   1.00
O35    O     0.12797   0.23807   0.24633   0.00000  Uiso   1.00
O36    O     0.22858   0.24755   0.25587   0.00000  Uiso   1.00
O37    O     0.09181   0.15960   0.31840   0.00000  Uiso   1.00
O38    O     0.19242   0.16908   0.32793   0.00000  Uiso   1.00
O39    O     0.10476   0.08578   0.24414   0.00000  Uiso   1.00
O40    O     0.20536   0.09526   0.25367   0.00000  Uiso   1.00
O41    O     0.14092   0.16425   0.17207   0.00000  Uiso   1.00
O42    O     0.24152   0.17373   0.18161   0.00000  Uiso   1.00
O43    O     0.06912   0.07455   0.04674   0.00000  Uiso   1.00
C44    C     0.00529   0.06292   0.06954   0.00000  Uiso   1.00
H45    H     0.00163   0.05628   0.11068   0.00000  Uiso   1.00
H46    H     0.31399   0.02594   0.05267   0.00000  Uiso   1.00
H47    H     0.31555   0.09592   0.06692   0.00000  Uiso   1.00
O48    O     0.25170   0.11854   0.36354   0.00000  Uiso   1.00
C49    C     0.23106   0.06329   0.36580   0.00000  Uiso   1.00
H50    H     0.18169   0.05107   0.36051   0.00000  Uiso   1.00
H51    H     0.23669   0.04771   0.40204   0.00000  Uiso   1.00
H52    H     0.26019   0.04516   0.33429   0.00000  Uiso   1.00
C53    C     0.51522   0.26671   0.25105   0.00000  Uiso   1.00
C54    C     0.47668   0.12863   0.48223   0.00000  Uiso   1.00
C55    C     0.49619   0.13504   0.42894   0.00000  Uiso   1.00
C56    C     0.52173   0.14905   0.01420   0.00000  Uiso   1.00
C57    C     0.58514   0.16908   0.49172   0.00000  Uiso   1.00
C58    C     0.60394   0.16528   0.43940   0.00000  Uiso   1.00
C59    C     0.56131   0.14149   0.40921   0.00000  Uiso   1.00
C60    C     0.50560   0.15353   0.06742   0.00000  Uiso   1.00
C61    C     0.61362   0.19007   0.07463   0.00000  Uiso   1.00
C62    C     0.45041   0.13303   0.39778   0.00000  Uiso   1.00
C63    C     0.52415   0.32260   0.25043   0.00000  Uiso   1.00
C64    C     0.46704   0.15493   0.34561   0.00000  Uiso   1.00
C65    C     0.47628   0.01068   0.24803   0.00000  Uiso   1.00
C66    C     0.48497   0.06661   0.24836   0.00000  Uiso   1.00
C67    C     0.53305   0.17038   0.15307   0.00000  Uiso   1.00
C68    C     0.63021   0.18971   0.02187   0.00000  Uiso   1.00
C69    C     0.55143   0.17148   0.09759   0.00000  Uiso   1.00
C70    C     0.38908   0.10771   0.41653   0.00000  Uiso   1.00
C71    C     0.37198   0.08908   0.46599   0.00000  Uiso   1.00
C72    C     0.41473   0.09975   0.00023   0.00000  Uiso   1.00
Cu73   Cu    0.44043   0.16105   0.24436   0.00000  Uiso   1.00
Cu74   Cu    0.55957   0.17228   0.25565   0.00000  Uiso   1.00
H75    H     0.64932   0.20482   0.09740   0.00000  Uiso   1.00
H76    H     0.42997   0.32035   0.24615   0.00000  Uiso   1.00
H77    H     0.33729   0.20621   0.28965   0.00000  Uiso   1.00
H78    H     0.66267   0.12705   0.21041   0.00000  Uiso   1.00
H79    H     0.65269   0.17739   0.42216   0.00000  Uiso   1.00
H80    H     0.34538   0.20413   0.00460   0.00000  Uiso   1.00
H81    H     0.45739   0.14454   0.08612   0.00000  Uiso   1.00
H82    H     0.35483   0.10004   0.39189   0.00000  Uiso   1.00
H83    H     0.65835   0.06606   0.47686   0.00000  Uiso   1.00
H84    H     0.57056   0.01291   0.25182   0.00000  Uiso   1.00
N85    N     0.64908   0.18074   0.26416   0.00000  Uiso   1.00
N86    N     0.35092   0.15259   0.23584   0.00000  Uiso   1.00
O87    O     0.46131   0.23807   0.24633   0.00000  Uiso   1.00
O88    O     0.56191   0.24755   0.25587   0.00000  Uiso   1.00
O89    O     0.42515   0.15960   0.31840   0.00000  Uiso   1.00
O90    O     0.52575   0.16908   0.32793   0.00000  Uiso   1.00
O91    O     0.43809   0.08578   0.24414   0.00000  Uiso   1.00
O92    O     0.53869   0.09526   0.25367   0.00000  Uiso   1.00
O93    O     0.47425   0.16425   0.17207   0.00000  Uiso   1.00
O94    O     0.57485   0.17373   0.18161   0.00000  Uiso   1.00
O95    O     0.40245   0.07455   0.04674   0.00000  Uiso   1.00
C96    C     0.33862   0.06292   0.06954   0.00000  Uiso   1.00
H97    H     0.33496   0.05628   0.11068   0.00000  Uiso   1.00
H98    H     0.64733   0.02594   0.05267   0.00000  Uiso   1.00
H99    H     0.64888   0.09592   0.06692   0.00000  Uiso   1.00
O100   O     0.58503   0.11854   0.36354   0.00000  Uiso   1.00
C101   C     0.56439   0.06329   0.36580   0.00000  Uiso   1.00
H102   H     0.51502   0.05107   0.36051   0.00000  Uiso   1.00
H103   H     0.57002   0.04771   0.40204   0.00000  Uiso   1.00
H104   H     0.59352   0.04516   0.33429   0.00000  Uiso   1.00
C105   C     0.84855   0.26671   0.25105   0.00000  Uiso   1.00
C106   C     0.81001   0.12863   0.48223   0.00000  Uiso   1.00
C107   C     0.82953   0.13504   0.42894   0.00000  Uiso   1.00
C108   C     0.85506   0.14905   0.01420   0.00000  Uiso   1.00
C109   C     0.91847   0.16908   0.49172   0.00000  Uiso   1.00
C110   C     0.93727   0.16528   0.43940   0.00000  Uiso   1.00
C111   C     0.89464   0.14149   0.40921   0.00000  Uiso   1.00
C112   C     0.83894   0.15353   0.06742   0.00000  Uiso   1.00
C113   C     0.94695   0.19007   0.07463   0.00000  Uiso   1.00
C114   C     0.78374   0.13303   0.39778   0.00000  Uiso   1.00
C115   C     0.85748   0.32260   0.25043   0.00000  Uiso   1.00
C116   C     0.80037   0.15493   0.34561   0.00000  Uiso   1.00
C117   C     0.80961   0.01068   0.24803   0.00000  Uiso   1.00
C118   C     0.81830   0.06661   0.24836   0.00000  Uiso   1.00
C119   C     0.86638   0.17038   0.15307   0.00000  Uiso   1.00
C120   C     0.96354   0.18971   0.02187   0.00000  Uiso   1.00
C121   C     0.88477   0.17148   0.09759   0.00000  Uiso   1.00
C122   C     0.72241   0.10771   0.41653   0.00000  Uiso   1.00
C123   C     0.70531   0.08908   0.46599   0.00000  Uiso   1.00
C124   C     0.74806   0.09975   0.00023   0.00000  Uiso   1.00
Cu125  Cu    0.77377   0.16105   0.24436   0.00000  Uiso   1.00
Cu126  Cu    0.89290   0.17228   0.25565   0.00000  Uiso   1.00
H127   H     0.98266   0.20482   0.09740   0.00000  Uiso   1.00
H128   H     0.76330   0.32035   0.24615   0.00000  Uiso   1.00
H129   H     0.67063   0.20621   0.28965   0.00000  Uiso   1.00
H130   H     0.99600   0.12705   0.21041   0.00000  Uiso   1.00
H131   H     0.98603   0.17739   0.42216   0.00000  Uiso   1.00
H132   H     0.67871   0.20413   0.00460   0.00000  Uiso   1.00
H133   H     0.79072   0.14454   0.08612   0.00000  Uiso   1.00
H134   H     0.68817   0.10004   0.39189   0.00000  Uiso   1.00
H135   H     0.99168   0.06606   0.47686   0.00000  Uiso   1.00
H136   H     0.90389   0.01291   0.25182   0.00000  Uiso   1.00
N137   N     0.98241   0.18074   0.26416   0.00000  Uiso   1.00
N138   N     0.68426   0.15259   0.23584   0.00000  Uiso   1.00
O139   O     0.79464   0.23807   0.24633   0.00000  Uiso   1.00
O140   O     0.89524   0.24755   0.25587   0.00000  Uiso   1.00
O141   O     0.75848   0.15960   0.31840   0.00000  Uiso   1.00
O142   O     0.85908   0.16908   0.32793   0.00000  Uiso   1.00
O143   O     0.77142   0.08578   0.24414   0.00000  Uiso   1.00
O144   O     0.87203   0.09526   0.25367   0.00000  Uiso   1.00
O145   O     0.80758   0.16425   0.17207   0.00000  Uiso   1.00
O146   O     0.90819   0.17373   0.18161   0.00000  Uiso   1.00
O147   O     0.73579   0.07455   0.04674   0.00000  Uiso   1.00
C148   C     0.67195   0.06292   0.06954   0.00000  Uiso   1.00
H149   H     0.66829   0.05628   0.11068   0.00000  Uiso   1.00
H150   H     0.98066   0.02594   0.05267   0.00000  Uiso   1.00
H151   H     0.98222   0.09592   0.06692   0.00000  Uiso   1.00
O152   O     0.91836   0.11854   0.36354   0.00000  Uiso   1.00
C153   C     0.89772   0.06329   0.36580   0.00000  Uiso   1.00
H154   H     0.84836   0.05107   0.36051   0.00000  Uiso   1.00
H155   H     0.90335   0.04771   0.40204   0.00000  Uiso   1.00
H156   H     0.92686   0.04516   0.33429   0.00000  Uiso   1.00
C157   C     0.18189   0.60004   0.25105   0.00000  Uiso   1.00
C158   C     0.14334   0.46197   0.48223   0.00000  Uiso   1.00
C159   C     0.16286   0.46838   0.42894   0.00000  Uiso   1.00
C160   C     0.18840   0.48238   0.01420   0.00000  Uiso   1.00
C161   C     0.25180   0.50242   0.49172   0.00000  Uiso   1.00
C162   C     0.27060   0.49862   0.43940   0.00000  Uiso   1.00
C163   C     0.22797   0.47483   0.40921   0.00000  Uiso   1.00
C164   C     0.17227   0.48686   0.06742   0.00000  Uiso   1.00
C165   C     0.28029   0.52340   0.07463   0.00000  Uiso   1.00
C166   C     0.11707   0.46637   0.39778   0.00000  Uiso   1.00
C167   C     0.19082   0.65593   0.25043   0.00000  Uiso   1.00
C168   C     0.13370   0.48827   0.34561   0.00000  Uiso   1.00
C169   C     0.14294   0.34402   0.24803   0.00000  Uiso   1.00
C170   C     0.15164   0.39994   0.24836   0.00000  Uiso   1.00
C171   C     0.19972   0.50372   0.15307   0.00000  Uiso   1.00
C172   C     0.29687   0.52304   0.02187   0.00000  Uiso   1.00
C173   C     0.21810   0.50481   0.09759   0.00000  Uiso   1.00
C174   C     0.05574   0.44104   0.41653   0.00000  Uiso   1.00
C175   C     0.03864   0.42241   0.46599   0.00000  Uiso   1.00
C176   C     0.08140   0.43309   0.00023   0.00000  Uiso   1.00
Cu177  Cu    0.10710   0.49439   0.24436   0.00000  Uiso   1.00
Cu178  Cu    0.22623   0.50561   0.25565   0.00000  Uiso   1.00
H179   H     0.31599   0.53815   0.09740   0.00000  Uiso   1.00
H180   H     0.09663   0.65369   0.24615   0.00000  Uiso   1.00
H181   H     0.00396   0.53954   0.28965   0.00000  Uiso   1.00
H182   H     0.32933   0.46039   0.21041   0.00000  Uiso   1.00
H183   H     0.31936   0.51072   0.42216   0.00000  Uiso   1.00
H184   H     0.01204   0.53746   0.00460   0.00000  Uiso   1.00
H185   H     0.12406   0.47788   0.08612   0.00000  Uiso   1.00
H186   H     0.02150   0.43337   0.39189   0.00000  Uiso   1.00
H187   H     0.32502   0.39940   0.47686   0.00000  Uiso   1.00
H188   H     0.23723   0.34625   0.25182   0.00000  Uiso   1.00
N189   N     0.31574   0.51407   0.26416   0.00000  Uiso   1.00
N190   N     0.01759   0.48593   0.23584   0.00000  Uiso   1.00
O191   O     0.12797   0.57141   0.24633   0.00000  Uiso   1.00
O192   O     0.22858   0.58089   0.25587   0.00000  Uiso   1.00
O193   O     0.09181   0.49293   0.31840   0.00000  Uiso   1.00
O194   O     0.19242   0.50241   0.32793   0.00000  Uiso   1.00
O195   O     0.10476   0.41911   0.24414   0.00000  Uiso   1.00
O196   O     0.20536   0.42859   0.25367   0.00000  Uiso   1.00
O197   O     0.14092   0.49759   0.17207   0.00000  Uiso   1.00
O198   O     0.24152   0.50707   0.18161   0.00000  Uiso   1.00
O199   O     0.06912   0.40788   0.04674   0.00000  Uiso   1.00
C200   C     0.00529   0.39625   0.06954   0.00000  Uiso   1.00
H201   H     0.00163   0.38961   0.11068   0.00000  Uiso   1.00
H202   H     0.31399   0.35927   0.05267   0.00000  Uiso   1.00
H203   H     0.31555   0.42925   0.06692   0.00000  Uiso   1.00
O204   O     0.25170   0.45187   0.36354   0.00000  Uiso   1.00
C205   C     0.23106   0.39663   0.36580   0.00000  Uiso   1.00
H206   H     0.18169   0.38440   0.36051   0.00000  Uiso   1.00
H207   H     0.23669   0.38105   0.40204   0.00000  Uiso   1.00
H208   H     0.26019   0.37849   0.33429   0.00000  Uiso   1.00
C209   C     0.51522   0.60004   0.25105   0.00000  Uiso   1.00
C210   C     0.47668   0.46197   0.48223   0.00000  Uiso   1.00
C211   C     0.49619   0.46838   0.42894   0.00000  Uiso   1.00
C212   C     0.52173   0.48238   0.01420   0.00000  Uiso   1.00
C213   C     0.58514   0.50242   0.49172   0.00000  Uiso   1.00
C214   C     0.60394   0.49862   0.43940   0.00000  Uiso   1.00
C215   C     0.56131   0.47483   0.40921   0.00000  Uiso   1.00
C216   C     0.50560   0.48686   0.06742   0.00000  Uiso   1.00
C217   C     0.61362   0.52340   0.07463   0.00000  Uiso   1.00
C218   C     0.45041   0.46637   0.39778   0.00000  Uiso   1.00
C219   C     0.52415   0.65593   0.25043   0.00000  Uiso   1.00
C220   C     0.46704   0.48827   0.34561   0.00000  Uiso   1.00
C221   C     0.47628   0.34402   0.24803   0.00000  Uiso   1.00
C222   C     0.48497   0.39994   0.24836   0.00000  Uiso   1.00
C223   C     0.53305   0.50372   0.15307   0.00000  Uiso   1.00
C224   C     0.63021   0.52304   0.02187   0.00000  Uiso   1.00
C225   C     0.55143   0.50481   0.09759   0.00000  Uiso   1.00
C226   C     0.38908   0.44104   0.41653   0.00000  Uiso   1.00
C227   C     0.37198   0.42241   0.46599   0.00000  Uiso   1.00
C228   C     0.41473   0.43309   0.00023   0.00000  Uiso   1.00
Cu229  Cu    0.44043   0.49439   0.24436   0.00000  Uiso   1.00
Cu230  Cu    0.55957   0.50561   0.25565   0.00000  Uiso   1.00
H231   H     0.64932   0.53815   0.09740   0.00000  Uiso   1.00
H232   H     0.42997   0.65369   0.24615   0.00000  Uiso   1.00
H233   H     0.33729   0.53954   0.28965   0.00000  Uiso   1.00
H234   H     0.66267   0.46039   0.21041   0.00000  Uiso   1.00
H235   H     0.65269   0.51072   0.42216   0.00000  Uiso   1.00
H236   H     0.34538   0.53746   0.00460   0.00000  Uiso   1.00
H237   H     0.45739   0.47788   0.08612   0.00000  Uiso   1.00
H238   H     0.35483   0.43337   0.39189   0.00000  Uiso   1.00
H239   H     0.65835   0.39940   0.47686   0.00000  Uiso   1.00
H240   H     0.57056   0.34625   0.25182   0.00000  Uiso   1.00
N241   N     0.64908   0.51407   0.26416   0.00000  Uiso   1.00
N242   N     0.35092   0.48593   0.23584   0.00000  Uiso   1.00
O243   O     0.46131   0.57141   0.24633   0.00000  Uiso   1.00
O244   O     0.56191   0.58089   0.25587   0.00000  Uiso   1.00
O245   O     0.42515   0.49293   0.31840   0.00000  Uiso   1.00
O246   O     0.52575   0.50241   0.32793   0.00000  Uiso   1.00
O247   O     0.43809   0.41911   0.24414   0.00000  Uiso   1.00
O248   O     0.53869   0.42859   0.25367   0.00000  Uiso   1.00
O249   O     0.47425   0.49759   0.17207   0.00000  Uiso   1.00
O250   O     0.57485   0.50707   0.18161   0.00000  Uiso   1.00
O251   O     0.40245   0.40788   0.04674   0.00000  Uiso   1.00
C252   C     0.33862   0.39625   0.06954   0.00000  Uiso   1.00
H253   H     0.33496   0.38961   0.11068   0.00000  Uiso   1.00
H254   H     0.64733   0.35927   0.05267   0.00000  Uiso   1.00
H255   H     0.64888   0.42925   0.06692   0.00000  Uiso   1.00
O256   O     0.58503   0.45187   0.36354   0.00000  Uiso   1.00
C257   C     0.56439   0.39663   0.36580   0.00000  Uiso   1.00
H258   H     0.51502   0.38440   0.36051   0.00000  Uiso   1.00
H259   H     0.57002   0.38105   0.40204   0.00000  Uiso   1.00
H260   H     0.59352   0.37849   0.33429   0.00000  Uiso   1.00
C261   C     0.84855   0.60004   0.25105   0.00000  Uiso   1.00
C262   C     0.81001   0.46197   0.48223   0.00000  Uiso   1.00
C263   C     0.82953   0.46838   0.42894   0.00000  Uiso   1.00
C264   C     0.85506   0.48238   0.01420   0.00000  Uiso   1.00
C265   C     0.91847   0.50242   0.49172   0.00000  Uiso   1.00
C266   C     0.93727   0.49862   0.43940   0.00000  Uiso   1.00
C267   C     0.89464   0.47483   0.40921   0.00000  Uiso   1.00
C268   C     0.83894   0.48686   0.06742   0.00000  Uiso   1.00
C269   C     0.94695   0.52340   0.07463   0.00000  Uiso   1.00
C270   C     0.78374   0.46637   0.39778   0.00000  Uiso   1.00
C271   C     0.85748   0.65593   0.25043   0.00000  Uiso   1.00
C272   C     0.80037   0.48827   0.34561   0.00000  Uiso   1.00
C273   C     0.80961   0.34402   0.24803   0.00000  Uiso   1.00
C274   C     0.81830   0.39994   0.24836   0.00000  Uiso   1.00
C275   C     0.86638   0.50372   0.15307   0.00000  Uiso   1.00
C276   C     0.96354   0.52304   0.02187   0.00000  Uiso   1.00
C277   C     0.88477   0.50481   0.09759   0.00000  Uiso   1.00
C278   C     0.72241   0.44104   0.41653   0.00000  Uiso   1.00
C279   C     0.70531   0.42241   0.46599   0.00000  Uiso   1.00
C280   C     0.74806   0.43309   0.00023   0.00000  Uiso   1.00
Cu281  Cu    0.77377   0.49439   0.24436   0.00000  Uiso   1.00
Cu282  Cu    0.89290   0.50561   0.25565   0.00000  Uiso   1.00
H283   H     0.98266   0.53815   0.09740   0.00000  Uiso   1.00
H284   H     0.76330   0.65369   0.24615   0.00000  Uiso   1.00
H285   H     0.67063   0.53954   0.28965   0.00000  Uiso   1.00
H286   H     0.99600   0.46039   0.21041   0.00000  Uiso   1.00
H287   H     0.98603   0.51072   0.42216   0.00000  Uiso   1.00
H288   H     0.67871   0.53746   0.00460   0.00000  Uiso   1.00
H289   H     0.79072   0.47788   0.08612   0.00000  Uiso   1.00
H290   H     0.68817   0.43337   0.39189   0.00000  Uiso   1.00
H291   H     0.99168   0.39940   0.47686   0.00000  Uiso   1.00
H292   H     0.90389   0.34625   0.25182   0.00000  Uiso   1.00
N293   N     0.98241   0.51407   0.26416   0.00000  Uiso   1.00
N294   N     0.68426   0.48593   0.23584   0.00000  Uiso   1.00
O295   O     0.79464   0.57141   0.24633   0.00000  Uiso   1.00
O296   O     0.89524   0.58089   0.25587   0.00000  Uiso   1.00
O297   O     0.75848   0.49293   0.31840   0.00000  Uiso   1.00
O298   O     0.85908   0.50241   0.32793   0.00000  Uiso   1.00
O299   O     0.77142   0.41911   0.24414   0.00000  Uiso   1.00
O300   O     0.87203   0.42859   0.25367   0.00000  Uiso   1.00
O301   O     0.80758   0.49759   0.17207   0.00000  Uiso   1.00
O302   O     0.90819   0.50707   0.18161   0.00000  Uiso   1.00
O303   O     0.73579   0.40788   0.04674   0.00000  Uiso   1.00
C304   C     0.67195   0.39625   0.06954   0.00000  Uiso   1.00
H305   H     0.66829   0.38961   0.11068   0.00000  Uiso   1.00
H306   H     0.98066   0.35927   0.05267   0.00000  Uiso   1.00
H307   H     0.98222   0.42925   0.06692   0.00000  Uiso   1.00
O308   O     0.91836   0.45187   0.36354   0.00000  Uiso   1.00
C309   C     0.89772   0.39663   0.36580   0.00000  Uiso   1.00
H310   H     0.84836   0.38440   0.36051   0.00000  Uiso   1.00
H311   H     0.90335   0.38105   0.40204   0.00000  Uiso   1.00
H312   H     0.92686   0.37849   0.33429   0.00000  Uiso   1.00
C313   C     0.18189   0.93338   0.25105   0.00000  Uiso   1.00
C314   C     0.14334   0.79530   0.48223   0.00000  Uiso   1.00
C315   C     0.16286   0.80171   0.42894   0.00000  Uiso   1.00
C316   C     0.18840   0.81572   0.01420   0.00000  Uiso   1.00
C317   C     0.25180   0.83575   0.49172   0.00000  Uiso   1.00
C318   C     0.27060   0.83195   0.43940   0.00000  Uiso   1.00
C319   C     0.22797   0.80816   0.40921   0.00000  Uiso   1.00
C320   C     0.17227   0.82019   0.06742   0.00000  Uiso   1.00
C321   C     0.28029   0.85674   0.07463   0.00000  Uiso   1.00
C322   C     0.11707   0.79970   0.39778   0.00000  Uiso   1.00
C323   C     0.19082   0.98927   0.25043   0.00000  Uiso   1.00
C324   C     0.13370   0.82160   0.34561   0.00000  Uiso   1.00
C325   C     0.14294   0.67735   0.24803   0.00000  Uiso   1.00
C326   C     0.15164   0.73327   0.24836   0.00000  Uiso   1.00
C327   C     0.19972   0.83705   0.15307   0.00000  Uiso   1.00
C328   C     0.29687   0.85638   0.02187   0.00000  Uiso   1.00
C329   C     0.21810   0.83814   0.09759   0.00000  Uiso   1.00
C330   C     0.05574   0.77438   0.41653   0.00000  Uiso   1.00
C331   C     0.03864   0.75574   0.46599   0.00000  Uiso   1.00
C332   C     0.08140   0.76642   0.00023   0.00000  Uiso   1.00
Cu333  Cu    0.10710   0.82772   0.24436   0.00000  Uiso   1.00
Cu334  Cu    0.22623   0.83895   0.25565   0.00000  Uiso   1.00
H335   H     0.31599   0.87149   0.09740   0.00000  Uiso   1.00
H336   H     0.09663   0.98702   0.24615   0.00000  Uiso   1.00
H337   H     0.00396   0.87288   0.28965   0.00000  Uiso   1.00
H338   H     0.32933   0.79372   0.21041   0.00000  Uiso   1.00
H339   H     0.31936   0.84406   0.42216   0.00000  Uiso   1.00
H340   H     0.01204   0.87080   0.00460   0.00000  Uiso   1.00
H341   H     0.12406   0.81121   0.08612   0.00000  Uiso   1.00
H342   H     0.02150   0.76670   0.39189   0.00000  Uiso   1.00
H343   H     0.32502   0.73273   0.47686   0.00000  Uiso   1.00
H344   H     0.23723   0.67958   0.25182   0.00000  Uiso   1.00
N345   N     0.31574   0.84741   0.26416   0.00000  Uiso   1.00
N346   N     0.01759   0.81926   0.23584   0.00000  Uiso   1.00
O347   O     0.12797   0.90474   0.24633   0.00000  Uiso   1.00
O348   O     0.22858   0.91422   0.25587   0.00000  Uiso   1.00
O349   O     0.09181   0.82627   0.31840   0.00000  Uiso   1.00
O350   O     0.19242   0.83575   0.32793   0.00000  Uiso   1.00
O351   O     0.10476   0.75245   0.24414   0.00000  Uiso   1.00
O352   O     0.20536   0.76193   0.25367   0.00000  Uiso   1.00
O353   O     0.14092   0.83092   0.17207   0.00000  Uiso   1.00
O354   O     0.24152   0.84040   0.18161   0.00000  Uiso   1.00
O355   O     0.06912   0.74122   0.04674   0.00000  Uiso   1.00
C356   C     0.00529   0.72958   0.06954   0.00000  Uiso   1.00
H357   H     0.00163   0.72294   0.11068   0.00000  Uiso   1.00
H358   H     0.31399   0.69261   0.05267   0.00000  Uiso   1.00
H359   H     0.31555   0.76258   0.06692   0.00000  Uiso   1.00
O360   O     0.25170   0.78520   0.36354   0.00000  Uiso   1.00
C361   C     0.23106   0.72996   0.36580   0.00000  Uiso   1.00
H362   H     0.18169   0.71773   0.36051   0.00000  Uiso   1.00
H363   H     0.23669   0.71438   0.40204   0.00000  Uiso   1.00
H364   H     0.26019   0.71183   0.33429   0.00000  Uiso   1.00
C365   C     0.51522   0.93338   0.25105   0.00000  Uiso   1.00
C366   C     0.47668   0.79530   0.48223   0.00000  Uiso   1.00
C367   C     0.49619   0.80171   0.42894   0.00000  Uiso   1.00
C368   C     0.52173   0.81572   0.01420   0.00000  Uiso   1.00
C369   C     0.58514   0.83575   0.49172   0.00000  Uiso   1.00
C370   C     0.60394   0.83195   0.43940   0.00000  Uiso   1.00
C371   C     0.56131   0.80816   0.40921   0.00000  Uiso   1.00
C372   C     0.50560   0.82019   0.06742   0.00000  Uiso   1.00
C373   C     0.61362   0.85674   0.07463   0.00000  Uiso   1.00
C374   C     0.45041   0.79970   0.39778   0.00000  Uiso   1.00
C375   C     0.52415   0.98927   0.25043   0.00000  Uiso   1.00
C376   C     0.46704   0.82160   0.34561   0.00000  Uiso   1.00
C377   C     0.47628   0.67735   0.24803   0.00000  Uiso   1.00
C378   C     0.48497   0.73327   0.24836   0.00000  Uiso   1.00
C379   C     0.53305   0.83705   0.15307   0.00000  Uiso   1.00
C380   C     0.63021   0.85638   0.02187   0.00000  Uiso   1.00
C381   C     0.55143   0.83814   0.09759   0.00000  Uiso   1.00
C382   C     0.38908   0.77438   0.41653   0.00000  Uiso   1.00
C383   C     0.37198   0.75574   0.46599   0.00000  Uiso   1.00
C384   C     0.41473   0.76642   0.00023   0.00000  Uiso   1.00
Cu385  Cu    0.44043   0.82772   0.24436   0.00000  Uiso   1.00
Cu386  Cu    0.55957   0.83895   0.25565   0.00000  Uiso   1.00
H387   H     0.64932   0.87149   0.09740   0.00000  Uiso   1.00
H388   H     0.42997   0.98702   0.24615   0.00000  Uiso   1.00
H389   H     0.33729   0.87288   0.28965   0.00000  Uiso   1.00
H390   H     0.66267   0.79372   0.21041   0.00000  Uiso   1.00
H391   H     0.65269   0.84406   0.42216   0.00000  Uiso   1.00
H392   H     0.34538   0.87080   0.00460   0.00000  Uiso   1.00
H393   H     0.45739   0.81121   0.08612   0.00000  Uiso   1.00
H394   H     0.35483   0.76670   0.39189   0.00000  Uiso   1.00
H395   H     0.65835   0.73273   0.47686   0.00000  Uiso   1.00
H396   H     0.57056   0.67958   0.25182   0.00000  Uiso   1.00
N397   N     0.64908   0.84741   0.26416   0.00000  Uiso   1.00
N398   N     0.35092   0.81926   0.23584   0.00000  Uiso   1.00
O399   O     0.46131   0.90474   0.24633   0.00000  Uiso   1.00
O400   O     0.56191   0.91422   0.25587   0.00000  Uiso   1.00
O401   O     0.42515   0.82627   0.31840   0.00000  Uiso   1.00
O402   O     0.52575   0.83575   0.32793   0.00000  Uiso   1.00
O403   O     0.43809   0.75245   0.24414   0.00000  Uiso   1.00
O404   O     0.53869   0.76193   0.25367   0.00000  Uiso   1.00
O405   O     0.47425   0.83092   0.17207   0.00000  Uiso   1.00
O406   O     0.57485   0.84040   0.18161   0.00000  Uiso   1.00
O407   O     0.40245   0.74122   0.04674   0.00000  Uiso   1.00
C408   C     0.33862   0.72958   0.06954   0.00000  Uiso   1.00
H409   H     0.33496   0.72294   0.11068   0.00000  Uiso   1.00
H410   H     0.64733   0.69261   0.05267   0.00000  Uiso   1.00
H411   H     0.64888   0.76258   0.06692   0.00000  Uiso   1.00
O412   O     0.58503   0.78520   0.36354   0.00000  Uiso   1.00
C413   C     0.56439   0.72996   0.36580   0.00000  Uiso   1.00
H414   H     0.51502   0.71773   0.36051   0.00000  Uiso   1.00
H415   H     0.57002   0.71438   0.40204   0.00000  Uiso   1.00
H416   H     0.59352   0.71183   0.33429   0.00000  Uiso   1.00
C417   C     0.84855   0.93338   0.25105   0.00000  Uiso   1.00
C418   C     0.81001   0.79530   0.48223   0.00000  Uiso   1.00
C419   C     0.82953   0.80171   0.42894   0.00000  Uiso   1.00
C420   C     0.85506   0.81572   0.01420   0.00000  Uiso   1.00
C421   C     0.91847   0.83575   0.49172   0.00000  Uiso   1.00
C422   C     0.93727   0.83195   0.43940   0.00000  Uiso   1.00
C423   C     0.89464   0.80816   0.40921   0.00000  Uiso   1.00
C424   C     0.83894   0.82019   0.06742   0.00000  Uiso   1.00
C425   C     0.94695   0.85674   0.07463   0.00000  Uiso   1.00
C426   C     0.78374   0.79970   0.39778   0.00000  Uiso   1.00
C427   C     0.85748   0.98927   0.25043   0.00000  Uiso   1.00
C428   C     0.80037   0.82160   0.34561   0.00000  Uiso   1.00
C429   C     0.80961   0.67735   0.24803   0.00000  Uiso   1.00
C430   C     0.81830   0.73327   0.24836   0.00000  Uiso   1.00
C431   C     0.86638   0.83705   0.15307   0.00000  Uiso   1.00
C432   C     0.96354   0.85638   0.02187   0.00000  Uiso   1.00
C433   C     0.88477   0.83814   0.09759   0.00000  Uiso   1.00
C434   C     0.72241   0.77438   0.41653   0.00000  Uiso   1.00
C435   C     0.70531   0.75574   0.46599   0.00000  Uiso   1.00
C436   C     0.74806   0.76642   0.00023   0.00000  Uiso   1.00
Cu437  Cu    0.77377   0.82772   0.24436   0.00000  Uiso   1.00
Cu438  Cu    0.89290   0.83895   0.25565   0.00000  Uiso   1.00
H439   H     0.98266   0.87149   0.09740   0.00000  Uiso   1.00
H440   H     0.76330   0.98702   0.24615   0.00000  Uiso   1.00
H441   H     0.67063   0.87288   0.28965   0.00000  Uiso   1.00
H442   H     0.99600   0.79372   0.21041   0.00000  Uiso   1.00
H443   H     0.98603   0.84406   0.42216   0.00000  Uiso   1.00
H444   H     0.67871   0.87080   0.00460   0.00000  Uiso   1.00
H445   H     0.79072   0.81121   0.08612   0.00000  Uiso   1.00
H446   H     0.68817   0.76670   0.39189   0.00000  Uiso   1.00
H447   H     0.99168   0.73273   0.47686   0.00000  Uiso   1.00
H448   H     0.90389   0.67958   0.25182   0.00000  Uiso   1.00
N449   N     0.98241   0.84741   0.26416   0.00000  Uiso   1.00
N450   N     0.68426   0.81926   0.23584   0.00000  Uiso   1.00
O451   O     0.79464   0.90474   0.24633   0.00000  Uiso   1.00
O452   O     0.89524   0.91422   0.25587   0.00000  Uiso   1.00
O453   O     0.75848   0.82627   0.31840   0.00000  Uiso   1.00
O454   O     0.85908   0.83575   0.32793   0.00000  Uiso   1.00
O455   O     0.77142   0.75245   0.24414   0.00000  Uiso   1.00
O456   O     0.87203   0.76193   0.25367   0.00000  Uiso   1.00
O457   O     0.80758   0.83092   0.17207   0.00000  Uiso   1.00
O458   O     0.90819   0.84040   0.18161   0.00000  Uiso   1.00
O459   O     0.73579   0.74122   0.04674   0.00000  Uiso   1.00
C460   C     0.67195   0.72958   0.06954   0.00000  Uiso   1.00
H461   H     0.66829   0.72294   0.11068   0.00000  Uiso   1.00
H462   H     0.98066   0.69261   0.05267   0.00000  Uiso   1.00
H463   H     0.98222   0.76258   0.06692   0.00000  Uiso   1.00
O464   O     0.91836   0.78520   0.36354   0.00000  Uiso   1.00
C465   C     0.89772   0.72996   0.36580   0.00000  Uiso   1.00
H466   H     0.84836   0.71773   0.36051   0.00000  Uiso   1.00
H467   H     0.90335   0.71438   0.40204   0.00000  Uiso   1.00
H468   H     0.92686   0.71183   0.33429   0.00000  Uiso   1.00
C469   C     0.18189   0.26671   0.75105   0.00000  Uiso   1.00
C470   C     0.14334   0.12863   0.98223   0.00000  Uiso   1.00
C471   C     0.16286   0.13504   0.92894   0.00000  Uiso   1.00
C472   C     0.18840   0.14905   0.51420   0.00000  Uiso   1.00
C473   C     0.25180   0.16908   0.99172   0.00000  Uiso   1.00
C474   C     0.27060   0.16528   0.93940   0.00000  Uiso   1.00
C475   C     0.22797   0.14149   0.90921   0.00000  Uiso   1.00
C476   C     0.17227   0.15353   0.56742   0.00000  Uiso   1.00
C477   C     0.28029   0.19007   0.57463   0.00000  Uiso   1.00
C478   C     0.11707   0.13303   0.89778   0.00000  Uiso   1.00
C479   C     0.19082   0.32260   0.75043   0.00000  Uiso   1.00
C480   C     0.13370   0.15493   0.84561   0.00000  Uiso   1.00
C481   C     0.14294   0.01068   0.74803   0.00000  Uiso   1.00
C482   C     0.15164   0.06661   0.74836   0.00000  Uiso   1.00
C483   C     0.19972   0.17038   0.65307   0.00000  Uiso   1.00
C484   C     0.29687   0.18971   0.52187   0.00000  Uiso   1.00
C485   C     0.21810   0.17148   0.59759   0.00000  Uiso   1.00
C486   C     0.05574   0.10771   0.91653   0.00000  Uiso   1.00
C487   C     0.03864   0.08908   0.96599   0.00000  Uiso   1.00
C488   C     0.08140   0.09975   0.50023   0.00000  Uiso   1.00
Cu489  Cu    0.10710   0.16105   0.74436   0.00000  Uiso   1.00
Cu490  Cu    0.22623   0.17228   0.75565   0.00000  Uiso   1.00
H491   H     0.31599   0.20482   0.59740   0.00000  Uiso   1.00
H492   H     0.09663   0.32035   0.74615   0.00000  Uiso   1.00
H493   H     0.00396   0.20621   0.78965   0.00000  Uiso   1.00
H494   H     0.32933   0.12705   0.71041   0.00000  Uiso   1.00
H495   H     0.31936   0.17739   0.92216   0.00000  Uiso   1.00
H496   H     0.01204   0.20413   0.50460   0.00000  Uiso   1.00
H497   H     0.12406   0.14454   0.58612   0.00000  Uiso   1.00
H498   H     0.02150   0.10004   0.89189   0.00000  Uiso   1.00
H499   H     0.32502   0.06606   0.97686   0.00000  Uiso   1.00
H500   H     0.23723   0.01291   0.75182   0.00000  Uiso   1.00
N501   N     0.31574   0.18074   0.76416   0.00000  Uiso   1.00
N502   N     0.01759   0.15259   0.73584   0.00000  Uiso   1.00
O503   O     0.12797   0.23807   0.74633   0.00000  Uiso   1.00
O504   O     0.22858   0.24755   0.75587   0.00000  Uiso   1.00
O505   O     0.09181   0.15960   0.81840   0.00000  Uiso   1.00
O506   O     0.19242   0.16908   0.82793   0.00000  Uiso   1.00
O507   O     0.10476   0.08578   0.74414   0.00000  Uiso   1.00
O508   O     0.20536   0.09526   0.75367   0.00000  Uiso   1.00
O509   O     0.14092   0.16425   0.67207   0.00000  Uiso   1.00
O510   O     0.24152   0.17373   0.68161   0.00000  Uiso   1.00
O511   O     0.06912   0.07455   0.54674   0.00000  Uiso   1.00
C512   C     0.00529   0.06292   0.56954   0.00000  Uiso   1.00
H513   H     0.00163   0.05628   0.61068   0.00000  Uiso   1.00
H514   H     0.31399   0.02594   0.55267   0.00000  Uiso   1.00
H515   H     0.31555   0.09592   0.56692   0.00000  Uiso   1.00
O516   O     0.25170   0.11854   0.86354   0.00000  Uiso   1.00
C517   C     0.23106   0.06329   0.86580   0.00000  Uiso   1.00
H518   H     0.18169   0.05107   0.86051   0.00000  Uiso   1.00
H519   H     0.23669   0.04771   0.90204   0.00000  Uiso   1.00
H520   H     0.26019   0.04516   0.83429   0.00000  Uiso   1.00
C521   C     0.51522   0.26671   0.75105   0.00000  Uiso   1.00
C522   C     0.47668   0.12863   0.98223   0.00000  Uiso   1.00
C523   C     0.49619   0.13504   0.92894   0.00000  Uiso   1.00
C524   C     0.52173   0.14905   0.51420   0.00000  Uiso   1.00
C525   C     0.58514   0.16908   0.99172   0.00000  Uiso   1.00
C526   C     0.60394   0.16528   0.93940   0.00000  Uiso   1.00
C527   C     0.56131   0.14149   0.90921   0.00000  Uiso   1.00
C528   C     0.50560   0.15353   0.56742   0.00000  Uiso   1.00
C529   C     0.61362   0.19007   0.57463   0.00000  Uiso   1.00
C530   C     0.45041   0.13303   0.89778   0.00000  Uiso   1.00
C531   C     0.52415   0.32260   0.75043   0.00000  Uiso   1.00
C532   C     0.46704   0.15493   0.84561   0.00000  Uiso   1.00
C533   C     0.47628   0.01068   0.74803   0.00000  Uiso   1.00
C534   C     0.48497   0.06661   0.74836   0.00000  Uiso   1.00
C535   C     0.53305   0.17038   0.65307   0.00000  Uiso   1.00
C536   C     0.63021   0.18971   0.52187   0.00000  Uiso   1.00
C537   C     0.55143   0.17148   0.59759   0.00000  Uiso   1.00
C538   C     0.38908   0.10771   0.91653   0.00000  Uiso   1.00
C539   C     0.37198   0.08908   0.96599   0.00000  Uiso   1.00
C540   C     0.41473   0.09975   0.50023   0.00000  Uiso   1.00
Cu541  Cu    0.44043   0.16105   0.74436   0.00000  Uiso   1.00
Cu542  Cu    0.55957   0.17228   0.75565   0.00000  Uiso   1.00
H543   H     0.64932   0.20482   0.59740   0.00000  Uiso   1.00
H544   H     0.42997   0.32035   0.74615   0.00000  Uiso   1.00
H545   H     0.33729   0.20621   0.78965   0.00000  Uiso   1.00
H546   H     0.66267   0.12705   0.71041   0.00000  Uiso   1.00
H547   H     0.65269   0.17739   0.92216   0.00000  Uiso   1.00
H548   H     0.34538   0.20413   0.50460   0.00000  Uiso   1.00
H549   H     0.45739   0.14454   0.58612   0.00000  Uiso   1.00
H550   H     0.35483   0.10004   0.89189   0.00000  Uiso   1.00
H551   H     0.65835   0.06606   0.97686   0.00000  Uiso   1.00
H552   H     0.57056   0.01291   0.75182   0.00000  Uiso   1.00
N553   N     0.64908   0.18074   0.76416   0.00000  Uiso   1.00
N554   N     0.35092   0.15259   0.73584   0.00000  Uiso   1.00
O555   O     0.46131   0.23807   0.74633   0.00000  Uiso   1.00
O556   O     0.56191   0.24755   0.75587   0.00000  Uiso   1.00
O557   O     0.42515   0.15960   0.81840   0.00000  Uiso   1.00
O558   O     0.52575   0.16908   0.82793   0.00000  Uiso   1.00
O559   O     0.43809   0.08578   0.74414   0.00000  Uiso   1.00
O560   O     0.53869   0.09526   0.75367   0.00000  Uiso   1.00
O561   O     0.47425   0.16425   0.67207   0.00000  Uiso   1.00
O562   O     0.57485   0.17373   0.68161   0.00000  Uiso   1.00
O563   O     0.40245   0.07455   0.54674   0.00000  Uiso   1.00
C564   C     0.33862   0.06292   0.56954   0.00000  Uiso   1.00
H565   H     0.33496   0.05628   0.61068   0.00000  Uiso   1.00
H566   H     0.64733   0.02594   0.55267   0.00000  Uiso   1.00
H567   H     0.64888   0.09592   0.56692   0.00000  Uiso   1.00
O568   O     0.58503   0.11854   0.86354   0.00000  Uiso   1.00
C569   C     0.56439   0.06329   0.86580   0.00000  Uiso   1.00
H570   H     0.51502   0.05107   0.86051   0.00000  Uiso   1.00
H571   H     0.57002   0.04771   0.90204   0.00000  Uiso   1.00
H572   H     0.59352   0.04516   0.83429   0.00000  Uiso   1.00
C573   C     0.84855   0.26671   0.75105   0.00000  Uiso   1.00
C574   C     0.81001   0.12863   0.98223   0.00000  Uiso   1.00
C575   C     0.82953   0.13504   0.92894   0.00000  Uiso   1.00
C576   C     0.85506   0.14905   0.51420   0.00000  Uiso   1.00
C577   C     0.91847   0.16908   0.99172   0.00000  Uiso   1.00
C578   C     0.93727   0.16528   0.93940   0.00000  Uiso   1.00
C579   C     0.89464   0.14149   0.90921   0.00000  Uiso   1.00
C580   C     0.83894   0.15353   0.56742   0.00000  Uiso   1.00
C581   C     0.94695   0.19007   0.57463   0.00000  Uiso   1.00
C582   C     0.78374   0.13303   0.89778   0.00000  Uiso   1.00
C583   C     0.85748   0.32260   0.75043   0.00000  Uiso   1.00
C584   C     0.80037   0.15493   0.84561   0.00000  Uiso   1.00
C585   C     0.80961   0.01068   0.74803   0.00000  Uiso   1.00
C586   C     0.81830   0.06661   0.74836   0.00000  Uiso   1.00
C587   C     0.86638   0.17038   0.65307   0.00000  Uiso   1.00
C588   C     0.96354   0.18971   0.52187   0.00000  Uiso   1.00
C589   C     0.88477   0.17148   0.59759   0.00000  Uiso   1.00
C590   C     0.72241   0.10771   0.91653   0.00000  Uiso   1.00
C591   C     0.70531   0.08908   0.96599   0.00000  Uiso   1.00
C592   C     0.74806   0.09975   0.50023   0.00000  Uiso   1.00
Cu593  Cu    0.77377   0.16105   0.74436   0.00000  Uiso   1.00
Cu594  Cu    0.89290   0.17228   0.75565   0.00000  Uiso   1.00
H595   H     0.98266   0.20482   0.59740   0.00000  Uiso   1.00
H596   H     0.76330   0.32035   0.74615   0.00000  Uiso   1.00
H597   H     0.67063   0.20621   0.78965   0.00000  Uiso   1.00
H598   H     0.99600   0.12705   0.71041   0.00000  Uiso   1.00
H599   H     0.98603   0.17739   0.92216   0.00000  Uiso   1.00
H600   H     0.67871   0.20413   0.50460   0.00000  Uiso   1.00
H601   H     0.79072   0.14454   0.58612   0.00000  Uiso   1.00
H602   H     0.68817   0.10004   0.89189   0.00000  Uiso   1.00
H603   H     0.99168   0.06606   0.97686   0.00000  Uiso   1.00
H604   H     0.90389   0.01291   0.75182   0.00000  Uiso   1.00
N605   N     0.98241   0.18074   0.76416   0.00000  Uiso   1.00
N606   N     0.68426   0.15259   0.73584   0.00000  Uiso   1.00
O607   O     0.79464   0.23807   0.74633   0.00000  Uiso   1.00
O608   O     0.89524   0.24755   0.75587   0.00000  Uiso   1.00
O609   O     0.75848   0.15960   0.81840   0.00000  Uiso   1.00
O610   O     0.85908   0.16908   0.82793   0.00000  Uiso   1.00
O611   O     0.77142   0.08578   0.74414   0.00000  Uiso   1.00
O612   O     0.87203   0.09526   0.75367   0.00000  Uiso   1.00
O613   O     0.80758   0.16425   0.67207   0.00000  Uiso   1.00
O614   O     0.90819   0.17373   0.68161   0.00000  Uiso   1.00
O615   O     0.73579   0.07455   0.54674   0.00000  Uiso   1.00
C616   C     0.67195   0.06292   0.56954   0.00000  Uiso   1.00
H617   H     0.66829   0.05628   0.61068   0.00000  Uiso   1.00
H618   H     0.98066   0.02594   0.55267   0.00000  Uiso   1.00
H619   H     0.98222   0.09592   0.56692   0.00000  Uiso   1.00
O620   O     0.91836   0.11854   0.86354   0.00000  Uiso   1.00
C621   C     0.89772   0.06329   0.86580   0.00000  Uiso   1.00
H622   H     0.84836   0.05107   0.86051   0.00000  Uiso   1.00
H623   H     0.90335   0.04771   0.90204   0.00000  Uiso   1.00
H624   H     0.92686   0.04516   0.83429   0.00000  Uiso   1.00
C625   C     0.18189   0.60004   0.75105   0.00000  Uiso   1.00
C626   C     0.14334   0.46197   0.98223   0.00000  Uiso   1.00
C627   C     0.16286   0.46838   0.92894   0.00000  Uiso   1.00
C628   C     0.18840   0.48238   0.51420   0.00000  Uiso   1.00
C629   C     0.25180   0.50242   0.99172   0.00000  Uiso   1.00
C630   C     0.27060   0.49862   0.93940   0.00000  Uiso   1.00
C631   C     0.22797   0.47483   0.90921   0.00000  Uiso   1.00
C632   C     0.17227   0.48686   0.56742   0.00000  Uiso   1.00
C633   C     0.28029   0.52340   0.57463   0.00000  Uiso   1.00
C634   C     0.11707   0.46637   0.89778   0.00000  Uiso   1.00
C635   C     0.19082   0.65593   0.75043   0.00000  Uiso   1.00
C636   C     0.13370   0.48827   0.84561   0.00000  Uiso   1.00
C637   C     0.14294   0.34402   0.74803   0.00000  Uiso   1.00
C638   C     0.15164   0.39994   0.74836   0.00000  Uiso   1.00
C639   C     0.19972   0.50372   0.65307   0.00000  Uiso   1.00
C640   C     0.29687   0.52304   0.52187   0.00000  Uiso   1.00
C641   C     0.21810   0.50481   0.59759   0.00000  Uiso   1.00
C642   C     0.05574   0.44104   0.91653   0.00000  Uiso   1.00
C643   C     0.03864   0.42241   0.96599   0.00000  Uiso   1.00
C644   C     0.08140   0.43309   0.50023   0.00000  Uiso   1.00
Cu645  Cu    0.10710   0.49439   0.74436   0.00000  Uiso   1.00
Cu646  Cu    0.22623   0.50561   0.75565   0.00000  Uiso   1.00
H647   H     0.31599   0.53815   0.59740   0.00000  Uiso   1.00
H648   H     0.09663   0.65369   0.74615   0.00000  Uiso   1.00
H649   H     0.00396   0.53954   0.78965   0.00000  Uiso   1.00
H650   H     0.32933   0.46039   0.71041   0.00000  Uiso   1.00
H651   H     0.31936   0.51072   0.92216   0.00000  Uiso   1.00
H652   H     0.01204   0.53746   0.50460   0.00000  Uiso   1.00
H653   H     0.12406   0.47788   0.58612   0.00000  Uiso   1.00
H654   H     0.02150   0.43337   0.89189   0.00000  Uiso   1.00
H655   H     0.32502   0.39940   0.97686   0.00000  Uiso   1.00
H656   H     0.23723   0.34625   0.75182   0.00000  Uiso   1.00
N657   N     0.31574   0.51407   0.76416   0.00000  Uiso   1.00
N658   N     0.01759   0.48593   0.73584   0.00000  Uiso   1.00
O659   O     0.12797   0.57141   0.74633   0.00000  Uiso   1.00
O660   O     0.22858   0.58089   0.75587   0.00000  Uiso   1.00
O661   O     0.09181   0.49293   0.81840   0.00000  Uiso   1.00
O662   O     0.19242   0.50241   0.82793   0.00000  Uiso   1.00
O663   O     0.10476   0.41911   0.74414   0.00000  Uiso   1.00
O664   O     0.20536   0.42859   0.75367   0.00000  Uiso   1.00
O665   O     0.14092   0.49759   0.67207   0.00000  Uiso   1.00
O666   O     0.24152   0.50707   0.68161   0.00000  Uiso   1.00
O667   O     0.06912   0.40788   0.54674   0.00000  Uiso   1.00
C668   C     0.00529   0.39625   0.56954   0.00000  Uiso   1.00
H669   H     0.00163   0.38961   0.61068   0.00000  Uiso   1.00
H670   H     0.31399   0.35927   0.55267   0.00000  Uiso   1.00
H671   H     0.31555   0.42925   0.56692   0.00000  Uiso   1.00
O672   O     0.25170   0.45187   0.86354   0.00000  Uiso   1.00
C673   C     0.23106   0.39663   0.86580   0.00000  Uiso   1.00
H674   H     0.18169   0.38440   0.86051   0.00000  Uiso   1.00
H675   H     0.23669   0.38105   0.90204   0.00000  Uiso   1.00
H676   H     0.26019   0.37849   0.83429   0.00000  Uiso   1.00
C677   C     0.51522   0.60004   0.75105   0.00000  Uiso   1.00
C678   C     0.47668   0.46197   0.98223   0.00000  Uiso   1.00
C679   C     0.49619   0.46838   0.92894   0.00000  Uiso   1.00
C680   C     0.52173   0.48238   0.51420   0.00000  Uiso   1.00
C681   C     0.58514   0.50242   0.99172   0.00000  Uiso   1.00
C682   C     0.60394   0.49862   0.93940   0.00000  Uiso   1.00
C683   C     0.56131   0.47483   0.90921   0.00000  Uiso   1.00
C684   C     0.50560   0.48686   0.56742   0.00000  Uiso   1.00
C685   C     0.61362   0.52340   0.57463   0.00000  Uiso   1.00
C686   C     0.45041   0.46637   0.89778   0.00000  Uiso   1.00
C687   C     0.52415   0.65593   0.75043   0.00000  Uiso   1.00
C688   C     0.46704   0.48827   0.84561   0.00000  Uiso   1.00
C689   C     0.47628   0.34402   0.74803   0.00000  Uiso   1.00
C690   C     0.48497   0.39994   0.74836   0.00000  Uiso   1.00
C691   C     0.53305   0.50372   0.65307   0.00000  Uiso   1.00
C692   C     0.63021   0.52304   0.52187   0.00000  Uiso   1.00
C693   C     0.55143   0.50481   0.59759   0.00000  Uiso   1.00
C694   C     0.38908   0.44104   0.91653   0.00000  Uiso   1.00
C695   C     0.37198   0.42241   0.96599   0.00000  Uiso   1.00
C696   C     0.41473   0.43309   0.50023   0.00000  Uiso   1.00
Cu697  Cu    0.44043   0.49439   0.74436   0.00000  Uiso   1.00
Cu698  Cu    0.55957   0.50561   0.75565   0.00000  Uiso   1.00
H699   H     0.64932   0.53815   0.59740   0.00000  Uiso   1.00
H700   H     0.42997   0.65369   0.74615   0.00000  Uiso   1.00
H701   H     0.33729   0.53954   0.78965   0.00000  Uiso   1.00
H702   H     0.66267   0.46039   0.71041   0.00000  Uiso   1.00
H703   H     0.65269   0.51072   0.92216   0.00000  Uiso   1.00
H704   H     0.34538   0.53746   0.50460   0.00000  Uiso   1.00
H705   H     0.45739   0.47788   0.58612   0.00000  Uiso   1.00
H706   H     0.35483   0.43337   0.89189   0.00000  Uiso   1.00
H707   H     0.65835   0.39940   0.97686   0.00000  Uiso   1.00
H708   H     0.57056   0.34625   0.75182   0.00000  Uiso   1.00
N709   N     0.64908   0.51407   0.76416   0.00000  Uiso   1.00
N710   N     0.35092   0.48593   0.73584   0.00000  Uiso   1.00
O711   O     0.46131   0.57141   0.74633   0.00000  Uiso   1.00
O712   O     0.56191   0.58089   0.75587   0.00000  Uiso   1.00
O713   O     0.42515   0.49293   0.81840   0.00000  Uiso   1.00
O714   O     0.52575   0.50241   0.82793   0.00000  Uiso   1.00
O715   O     0.43809   0.41911   0.74414   0.00000  Uiso   1.00
O716   O     0.53869   0.42859   0.75367   0.00000  Uiso   1.00
O717   O     0.47425   0.49759   0.67207   0.00000  Uiso   1.00
O718   O     0.57485   0.50707   0.68161   0.00000  Uiso   1.00
O719   O     0.40245   0.40788   0.54674   0.00000  Uiso   1.00
C720   C     0.33862   0.39625   0.56954   0.00000  Uiso   1.00
H721   H     0.33496   0.38961   0.61068   0.00000  Uiso   1.00
H722   H     0.64733   0.35927   0.55267   0.00000  Uiso   1.00
H723   H     0.64888   0.42925   0.56692   0.00000  Uiso   1.00
O724   O     0.58503   0.45187   0.86354   0.00000  Uiso   1.00
C725   C     0.56439   0.39663   0.86580   0.00000  Uiso   1.00
H726   H     0.51502   0.38440   0.86051   0.00000  Uiso   1.00
H727   H     0.57002   0.38105   0.90204   0.00000  Uiso   1.00
H728   H     0.59352   0.37849   0.83429   0.00000  Uiso   1.00
C729   C     0.84855   0.60004   0.75105   0.00000  Uiso   1.00
C730   C     0.81001   0.46197   0.98223   0.00000  Uiso   1.00
C731   C     0.82953   0.46838   0.92894   0.00000  Uiso   1.00
C732   C     0.85506   0.48238   0.51420   0.00000  Uiso   1.00
C733   C     0.91847   0.50242   0.99172   0.00000  Uiso   1.00
C734   C     0.93727   0.49862   0.93940   0.00000  Uiso   1.00
C735   C     0.89464   0.47483   0.90921   0.00000  Uiso   1.00
C736   C     0.83894   0.48686   0.56742   0.00000  Uiso   1.00
C737   C     0.94695   0.52340   0.57463   0.00000  Uiso   1.00
C738   C     0.78374   0.46637   0.89778   0.00000  Uiso   1.00
C739   C     0.85748   0.65593   0.75043   0.00000  Uiso   1.00
C740   C     0.80037   0.48827   0.84561   0.00000  Uiso   1.00
C741   C     0.80961   0.34402   0.74803   0.00000  Uiso   1.00
C742   C     0.81830   0.39994   0.74836   0.00000  Uiso   1.00
C743   C     0.86638   0.50372   0.65307   0.00000  Uiso   1.00
C744   C     0.96354   0.52304   0.52187   0.00000  Uiso   1.00
C745   C     0.88477   0.50481   0.59759   0.00000  Uiso   1.00
C746   C     0.72241   0.44104   0.91653   0.00000  Uiso   1.00
C747   C     0.70531   0.42241   0.96599   0.00000  Uiso   1.00
C748   C     0.74806   0.43309   0.50023   0.00000  Uiso   1.00
Cu749  Cu    0.77377   0.49439   0.74436   0.00000  Uiso   1.00
Cu750  Cu    0.89290   0.50561   0.75565   0.00000  Uiso   1.00
H751   H     0.98266   0.53815   0.59740   0.00000  Uiso   1.00
H752   H     0.76330   0.65369   0.74615   0.00000  Uiso   1.00
H753   H     0.67063   0.53954   0.78965   0.00000  Uiso   1.00
H754   H     0.99600   0.46039   0.71041   0.00000  Uiso   1.00
H755   H     0.98603   0.51072   0.92216   0.00000  Uiso   1.00
H756   H     0.67871   0.53746   0.50460   0.00000  Uiso   1.00
H757   H     0.79072   0.47788   0.58612   0.00000  Uiso   1.00
H758   H     0.68817   0.43337   0.89189   0.00000  Uiso   1.00
H759   H     0.99168   0.39940   0.97686   0.00000  Uiso   1.00
H760   H     0.90389   0.34625   0.75182   0.00000  Uiso   1.00
N761   N     0.98241   0.51407   0.76416   0.00000  Uiso   1.00
N762   N     0.68426   0.48593   0.73584   0.00000  Uiso   1.00
O763   O     0.79464   0.57141   0.74633   0.00000  Uiso   1.00
O764   O     0.89524   0.58089   0.75587   0.00000  Uiso   1.00
O765   O     0.75848   0.49293   0.81840   0.00000  Uiso   1.00
O766   O     0.85908   0.50241   0.82793   0.00000  Uiso   1.00
O767   O     0.77142   0.41911   0.74414   0.00000  Uiso   1.00
O768   O     0.87203   0.42859   0.75367   0.00000  Uiso   1.00
O769   O     0.80758   0.49759   0.67207   0.00000  Uiso   1.00
O770   O     0.90819   0.50707   0.68161   0.00000  Uiso   1.00
O771   O     0.73579   0.40788   0.54674   0.00000  Uiso   1.00
C772   C     0.67195   0.39625   0.56954   0.00000  Uiso   1.00
H773   H     0.66829   0.38961   0.61068   0.00000  Uiso   1.00
H774   H     0.98066   0.35927   0.55267   0.00000  Uiso   1.00
H775   H     0.98222   0.42925   0.56692   0.00000  Uiso   1.00
O776   O     0.91836   0.45187   0.86354   0.00000  Uiso   1.00
C777   C     0.89772   0.39663   0.86580   0.00000  Uiso   1.00
H778   H     0.84836   0.38440   0.86051   0.00000  Uiso   1.00
H779   H     0.90335   0.38105   0.90204   0.00000  Uiso   1.00
H780   H     0.92686   0.37849   0.83429   0.00000  Uiso   1.00
C781   C     0.18189   0.93338   0.75105   0.00000  Uiso   1.00
C782   C     0.14334   0.79530   0.98223   0.00000  Uiso   1.00
C783   C     0.16286   0.80171   0.92894   0.00000  Uiso   1.00
C784   C     0.18840   0.81572   0.51420   0.00000  Uiso   1.00
C785   C     0.25180   0.83575   0.99172   0.00000  Uiso   1.00
C786   C     0.27060   0.83195   0.93940   0.00000  Uiso   1.00
C787   C     0.22797   0.80816   0.90921   0.00000  Uiso   1.00
C788   C     0.17227   0.82019   0.56742   0.00000  Uiso   1.00
C789   C     0.28029   0.85674   0.57463   0.00000  Uiso   1.00
C790   C     0.11707   0.79970   0.89778   0.00000  Uiso   1.00
C791   C     0.19082   0.98927   0.75043   0.00000  Uiso   1.00
C792   C     0.13370   0.82160   0.84561   0.00000  Uiso   1.00
C793   C     0.14294   0.67735   0.74803   0.00000  Uiso   1.00
C794   C     0.15164   0.73327   0.74836   0.00000  Uiso   1.00
C795   C     0.19972   0.83705   0.65307   0.00000  Uiso   1.00
C796   C     0.29687   0.85638   0.52187   0.00000  Uiso   1.00
C797   C     0.21810   0.83814   0.59759   0.00000  Uiso   1.00
C798   C     0.05574   0.77438   0.91653   0.00000  Uiso   1.00
C799   C     0.03864   0.75574   0.96599   0.00000  Uiso   1.00
C800   C     0.08140   0.76642   0.50023   0.00000  Uiso   1.00
Cu801  Cu    0.10710   0.82772   0.74436   0.00000  Uiso   1.00
Cu802  Cu    0.22623   0.83895   0.75565   0.00000  Uiso   1.00
H803   H     0.31599   0.87149   0.59740   0.00000  Uiso   1.00
H804   H     0.09663   0.98702   0.74615   0.00000  Uiso   1.00
H805   H     0.00396   0.87288   0.78965   0.00000  Uiso   1.00
H806   H     0.32933   0.79372   0.71041   0.00000  Uiso   1.00
H807   H     0.31936   0.84406   0.92216   0.00000  Uiso   1.00
H808   H     0.01204   0.87080   0.50460   0.00000  Uiso   1.00
H809   H     0.12406   0.81121   0.58612   0.00000  Uiso   1.00
H810   H     0.02150   0.76670   0.89189   0.00000  Uiso   1.00
H811   H     0.32502   0.73273   0.97686   0.00000  Uiso   1.00
H812   H     0.23723   0.67958   0.75182   0.00000  Uiso   1.00
N813   N     0.31574   0.84741   0.76416   0.00000  Uiso   1.00
N814   N     0.01759   0.81926   0.73584   0.00000  Uiso   1.00
O815   O     0.12797   0.90474   0.74633   0.00000  Uiso   1.00
O816   O     0.22858   0.91422   0.75587   0.00000  Uiso   1.00
O817   O     0.09181   0.82627   0.81840   0.00000  Uiso   1.00
O818   O     0.19242   0.83575   0.82793   0.00000  Uiso   1.00
O819   O     0.10476   0.75245   0.74414   0.00000  Uiso   1.00
O820   O     0.20536   0.76193   0.75367   0.00000  Uiso   1.00
O821   O     0.14092   0.83092   0.67207   0.00000  Uiso   1.00
O822   O     0.24152   0.84040   0.68161   0.00000  Uiso   1.00
O823   O     0.06912   0.74122   0.54674   0.00000  Uiso   1.00
C824   C     0.00529   0.72958   0.56954   0.00000  Uiso   1.00
H825   H     0.00163   0.72294   0.61068   0.00000  Uiso   1.00
H826   H     0.31399   0.69261   0.55267   0.00000  Uiso   1.00
H827   H     0.31555   0.76258   0.56692   0.00000  Uiso   1.00
O828   O     0.25170   0.78520   0.86354   0.00000  Uiso   1.00
C829   C     0.23106   0.72996   0.86580   0.00000  Uiso   1.00
H830   H     0.18169   0.71773   0.86051   0.00000  Uiso   1.00
H831   H     0.23669   0.71438   0.90204   0.00000  Uiso   1.00
H832   H     0.26019   0.71183   0.83429   0.00000  Uiso   1.00
C833   C     0.51522   0.93338   0.75105   0.00000  Uiso   1.00
C834   C     0.47668   0.79530   0.98223   0.00000  Uiso   1.00
C835   C     0.49619   0.80171   0.92894   0.00000  Uiso   1.00
C836   C     0.52173   0.81572   0.51420   0.00000  Uiso   1.00
C837   C     0.58514   0.83575   0.99172   0.00000  Uiso   1.00
C838   C     0.60394   0.83195   0.93940   0.00000  Uiso   1.00
C839   C     0.56131   0.80816   0.90921   0.00000  Uiso   1.00
C840   C     0.50560   0.82019   0.56742   0.00000  Uiso   1.00
C841   C     0.61362   0.85674   0.57463   0.00000  Uiso   1.00
C842   C     0.45041   0.79970   0.89778   0.00000  Uiso   1.00
C843   C     0.52415   0.98927   0.75043   0.00000  Uiso   1.00
C844   C     0.46704   0.82160   0.84561   0.00000  Uiso   1.00
C845   C     0.47628   0.67735   0.74803   0.00000  Uiso   1.00
C846   C     0.48497   0.73327   0.74836   0.00000  Uiso   1.00
C847   C     0.53305   0.83705   0.65307   0.00000  Uiso   1.00
C848   C     0.63021   0.85638   0.52187   0.00000  Uiso   1.00
C849   C     0.55143   0.83814   0.59759   0.00000  Uiso   1.00
C850   C     0.38908   0.77438   0.91653   0.00000  Uiso   1.00
C851   C     0.37198   0.75574   0.96599   0.00000  Uiso   1.00
C852   C     0.41473   0.76642   0.50023   0.00000  Uiso   1.00
Cu853  Cu    0.44043   0.82772   0.74436   0.00000  Uiso   1.00
Cu854  Cu    0.55957   0.83895   0.75565   0.00000  Uiso   1.00
H855   H     0.64932   0.87149   0.59740   0.00000  Uiso   1.00
H856   H     0.42997   0.98702   0.74615   0.00000  Uiso   1.00
H857   H     0.33729   0.87288   0.78965   0.00000  Uiso   1.00
H858   H     0.66267   0.79372   0.71041   0.00000  Uiso   1.00
H859   H     0.65269   0.84406   0.92216   0.00000  Uiso   1.00
H860   H     0.34538   0.87080   0.50460   0.00000  Uiso   1.00
H861   H     0.45739   0.81121   0.58612   0.00000  Uiso   1.00
H862   H     0.35483   0.76670   0.89189   0.00000  Uiso   1.00
H863   H     0.65835   0.73273   0.97686   0.00000  Uiso   1.00
H864   H     0.57056   0.67958   0.75182   0.00000  Uiso   1.00
N865   N     0.64908   0.84741   0.76416   0.00000  Uiso   1.00
N866   N     0.35092   0.81926   0.73584   0.00000  Uiso   1.00
O867   O     0.46131   0.90474   0.74633   0.00000  Uiso   1.00
O868   O     0.56191   0.91422   0.75587   0.00000  Uiso   1.00
O869   O     0.42515   0.82627   0.81840   0.00000  Uiso   1.00
O870   O     0.52575   0.83575   0.82793   0.00000  Uiso   1.00
O871   O     0.43809   0.75245   0.74414   0.00000  Uiso   1.00
O872   O     0.53869   0.76193   0.75367   0.00000  Uiso   1.00
O873   O     0.47425   0.83092   0.67207   0.00000  Uiso   1.00
O874   O     0.57485   0.84040   0.68161   0.00000  Uiso   1.00
O875   O     0.40245   0.74122   0.54674   0.00000  Uiso   1.00
C876   C     0.33862   0.72958   0.56954   0.00000  Uiso   1.00
H877   H     0.33496   0.72294   0.61068   0.00000  Uiso   1.00
H878   H     0.64733   0.69261   0.55267   0.00000  Uiso   1.00
H879   H     0.64888   0.76258   0.56692   0.00000  Uiso   1.00
O880   O     0.58503   0.78520   0.86354   0.00000  Uiso   1.00
C881   C     0.56439   0.72996   0.86580   0.00000  Uiso   1.00
H882   H     0.51502   0.71773   0.86051   0.00000  Uiso   1.00
H883   H     0.57002   0.71438   0.90204   0.00000  Uiso   1.00
H884   H     0.59352   0.71183   0.83429   0.00000  Uiso   1.00
C885   C     0.84855   0.93338   0.75105   0.00000  Uiso   1.00
C886   C     0.81001   0.79530   0.98223   0.00000  Uiso   1.00
C887   C     0.82953   0.80171   0.92894   0.00000  Uiso   1.00
C888   C     0.85506   0.81572   0.51420   0.00000  Uiso   1.00
C889   C     0.91847   0.83575   0.99172   0.00000  Uiso   1.00
C890   C     0.93727   0.83195   0.93940   0.00000  Uiso   1.00
C891   C     0.89464   0.80816   0.90921   0.00000  Uiso   1.00
C892   C     0.83894   0.82019   0.56742   0.00000  Uiso   1.00
C893   C     0.94695   0.85674   0.57463   0.00000  Uiso   1.00
C894   C     0.78374   0.79970   0.89778   0.00000  Uiso   1.00
C895   C     0.85748   0.98927   0.75043   0.00000  Uiso   1.00
C896   C     0.80037   0.82160   0.84561   0.00000  Uiso   1.00
C897   C     0.80961   0.67735   0.74803   0.00000  Uiso   1.00
C898   C     0.81830   0.73327   0.74836   0.00000  Uiso   1.00
C899   C     0.86638   0.83705   0.65307   0.00000  Uiso   1.00
C900   C     0.96354   0.85638   0.52187   0.00000  Uiso   1.00
C901   C     0.88477   0.83814   0.59759   0.00000  Uiso   1.00
C902   C     0.72241   0.77438   0.91653   0.00000  Uiso   1.00
C903   C     0.70531   0.75574   0.96599   0.00000  Uiso   1.00
C904   C     0.74806   0.76642   0.50023   0.00000  Uiso   1.00
Cu905  Cu    0.77377   0.82772   0.74436   0.00000  Uiso   1.00
Cu906  Cu    0.89290   0.83895   0.75565   0.00000  Uiso   1.00
H907   H     0.98266   0.87149   0.59740   0.00000  Uiso   1.00
H908   H     0.76330   0.98702   0.74615   0.00000  Uiso   1.00
H909   H     0.67063   0.87288   0.78965   0.00000  Uiso   1.00
H910   H     0.99600   0.79372   0.71041   0.00000  Uiso   1.00
H911   H     0.98603   0.84406   0.92216   0.00000  Uiso   1.00
H912   H     0.67871   0.87080   0.50460   0.00000  Uiso   1.00
H913   H     0.79072   0.81121   0.58612   0.00000  Uiso   1.00
H914   H     0.68817   0.76670   0.89189   0.00000  Uiso   1.00
H915   H     0.99168   0.73273   0.97686   0.00000  Uiso   1.00
H916   H     0.90389   0.67958   0.75182   0.00000  Uiso   1.00
N917   N     0.98241   0.84741   0.76416   0.00000  Uiso   1.00
N918   N     0.68426   0.81926   0.73584   0.00000  Uiso   1.00
O919   O     0.79464   0.90474   0.74633   0.00000  Uiso   1.00
O920   O     0.89524   0.91422   0.75587   0.00000  Uiso   1.00
O921   O     0.75848   0.82627   0.81840   0.00000  Uiso   1.00
O922   O     0.85908   0.83575   0.82793   0.00000  Uiso   1.00
O923   O     0.77142   0.75245   0.74414   0.00000  Uiso   1.00
O924   O     0.87203   0.76193   0.75367   0.00000  Uiso   1.00
O925   O     0.80758   0.83092   0.67207   0.00000  Uiso   1.00
O926   O     0.90819   0.84040   0.68161   0.00000  Uiso   1.00
O927   O     0.73579   0.74122   0.54674   0.00000  Uiso   1.00
C928   C     0.67195   0.72958   0.56954   0.00000  Uiso   1.00
H929   H     0.66829   0.72294   0.61068   0.00000  Uiso   1.00
H930   H     0.98066   0.69261   0.55267   0.00000  Uiso   1.00
H931   H     0.98222   0.76258   0.56692   0.00000  Uiso   1.00
O932   O     0.91836   0.78520   0.86354   0.00000  Uiso   1.00
C933   C     0.89772   0.72996   0.86580   0.00000  Uiso   1.00
H934   H     0.84836   0.71773   0.86051   0.00000  Uiso   1.00
H935   H     0.90335   0.71438   0.90204   0.00000  Uiso   1.00
H936   H     0.92686   0.71183   0.83429   0.00000  Uiso   1.00
loop_
_geom_bond_atom_site_label_1
_geom_bond_atom_site_label_2
_geom_bond_distance
_geom_bond_site_symmetry_2
_ccdc_geom_bond_type
C1     O35     1.291   .     A
C1     O36     1.284   .     A
C1     C11     1.426   .     S
C2     C3      1.417   .     A
C2     C472    1.435   .     S
C2     C488    1.427   .     S
C3     C10     1.429   .     A
C3     C7      1.424   .     A
C4     C8      1.402   .     A
C4     C470    1.435   1_554 S
C4     C473    1.422   1_554 S
C5     C6      1.384   .     A
C5     C472    1.422   .     S
C5     C484    1.402   .     S
C6     C7      1.381   .     A
C6     H27     1.081   .     S
C7     O48     1.386   .     S
C8     C17     1.404   .     A
C8     H29     1.077   .     S
C9     C17     1.396   .     A
C9     C16     1.387   .     A
C9     H23     1.083   .     S
C10    C12     1.490   .     S
C10    C18     1.392   .     A
C11    C169    1.326   .     S
C11    H188    1.087   .     S
C12    O38     1.283   .     A
C12    O37     1.322   .     A
C13    C14     1.426   .     S
C13    C323    1.326   1_545 S
C13    H336    1.088   1_545 S
C14    O40     1.292   .     A
C14    O39     1.284   .     A
C15    O42     1.301   .     A
C15    O41     1.291   .     A
C15    C17     1.461   .     S
C16    C473    1.402   1_554 S
C16    H80     1.084   .     S
C18    H30     1.081   .     S
C18    C19     1.392   .     A
C19    C488    1.419   .     S
C19    H135    1.081   1_455 S
C20    O43     1.397   .     S
C20    C487    1.419   1_554 S
C20    C470    1.427   1_554 S
Cu21   O35     1.956   .     S
Cu21   O39     1.950   .     S
Cu21   O41     1.934   .     S
Cu21   O37     1.944   .     S
Cu21   N34     2.018   .     S
Cu21   Cu22    2.685   .     S
Cu22   O36     1.950   .     S
Cu22   O40     1.956   .     S
Cu22   O42     1.944   .     S
Cu22   O38     1.934   .     S
Cu22   N33     2.018   .     S
H24    C169    1.088   .     S
H25    N137    1.029   1_455 S
H26    N86     1.029   .     S
H28    C120    1.084   1_455 S
H31    C71     1.081   .     S
H32    C323    1.087   1_545 S
N33    H77     1.029   .     S
N33    N86     1.297   .     S
N34    N137    1.297   1_455 S
N34    H130    1.029   1_455 S
O43    C44     1.411   .     S
C44    H45     1.109   .     S
C44    H150    1.111   1_455 S
C44    H151    1.110   1_455 S
H46    C96     1.111   .     S
H47    C96     1.110   .     S
O48    C49     1.412   .     S
C49    H52     1.108   .     S
C49    H50     1.111   .     S
C49    H51     1.115   .     S
C53    O87     1.291   .     A
C53    O88     1.284   .     A
C53    C63     1.426   .     S
C54    C55     1.417   .     A
C54    C524    1.435   .     S
C54    C540    1.427   .     S
C55    C62     1.429   .     A
C55    C59     1.424   .     A
C56    C60     1.402   .     A
C56    C522    1.435   1_554 S
C56    C525    1.422   1_554 S
C57    C58     1.384   .     A
C57    C524    1.422   .     S
C57    C536    1.402   .     S
C58    C59     1.381   .     A
C58    H79     1.081   .     S
C59    O100    1.386   .     S
C60    C69     1.404   .     A
C60    H81     1.077   .     S
C61    C69     1.396   .     A
C61    C68     1.387   .     A
C61    H75     1.083   .     S
C62    C64     1.490   .     S
C62    C70     1.392   .     A
C63    C221    1.326   .     S
C63    H240    1.087   .     S
C64    O90     1.283   .     A
C64    O89     1.322   .     A
C65    C66     1.426   .     S
C65    C375    1.326   1_545 S
C65    H388    1.088   1_545 S
C66    O92     1.292   .     A
C66    O91     1.284   .     A
C67    O94     1.301   .     A
C67    O93     1.291   .     A
C67    C69     1.461   .     S
C68    C525    1.402   1_554 S
C68    H132    1.084   .     S
C70    H82     1.081   .     S
C70    C71     1.392   .     A
C71    C540    1.419   .     S
C72    O95     1.397   .     S
C72    C539    1.419   1_554 S
C72    C522    1.427   1_554 S
Cu73   O87     1.956   .     S
Cu73   O91     1.950   .     S
Cu73   O93     1.934   .     S
Cu73   O89     1.944   .     S
Cu73   N86     2.018   .     S
Cu73   Cu74    2.685   .     S
Cu74   O88     1.950   .     S
Cu74   O92     1.956   .     S
Cu74   O94     1.944   .     S
Cu74   O90     1.934   .     S
Cu74   N85     2.018   .     S
H76    C221    1.088   .     S
H78    N138    1.029   .     S
H83    C123    1.081   .     S
H84    C375    1.087   1_545 S
N85    H129    1.029   .     S
N85    N138    1.297   .     S
O95    C96     1.411   .     S
C96    H97     1.109   .     S
H98    C148    1.111   .     S
H99    C148    1.110   .     S
O100   C101    1.412   .     S
C101   H104    1.108   .     S
C101   H102    1.111   .     S
C101   H103    1.115   .     S
C105   O139    1.291   .     A
C105   O140    1.284   .     A
C105   C115    1.426   .     S
C106   C107    1.417   .     A
C106   C576    1.435   .     S
C106   C592    1.427   .     S
C107   C114    1.429   .     A
C107   C111    1.424   .     A
C108   C112    1.402   .     A
C108   C574    1.435   1_554 S
C108   C577    1.422   1_554 S
C109   C110    1.384   .     A
C109   C576    1.422   .     S
C109   C588    1.402   .     S
C110   C111    1.381   .     A
C110   H131    1.081   .     S
C111   O152    1.386   .     S
C112   C121    1.404   .     A
C112   H133    1.077   .     S
C113   C121    1.396   .     A
C113   C120    1.387   .     A
C113   H127    1.083   .     S
C114   C116    1.490   .     S
C114   C122    1.392   .     A
C115   C273    1.326   .     S
C115   H292    1.087   .     S
C116   O142    1.283   .     A
C116   O141    1.322   .     A
C117   C118    1.426   .     S
C117   C427    1.326   1_545 S
C117   H440    1.088   1_545 S
C118   O144    1.292   .     A
C118   O143    1.284   .     A
C119   O146    1.301   .     A
C119   O145    1.291   .     A
C119   C121    1.461   .     S
C120   C577    1.402   1_554 S
C120   H28     1.084   1_655 S
C122   H134    1.081   .     S
C122   C123    1.392   .     A
C123   C592    1.419   .     S
C124   O147    1.397   .     S
C124   C591    1.419   1_554 S
C124   C574    1.427   1_554 S
Cu125  O139    1.956   .     S
Cu125  O143    1.950   .     S
Cu125  O145    1.934   .     S
Cu125  O141    1.944   .     S
Cu125  N138    2.018   .     S
Cu125  Cu126   2.685   .     S
Cu126  O140    1.950   .     S
Cu126  O144    1.956   .     S
Cu126  O146    1.944   .     S
Cu126  O142    1.934   .     S
Cu126  N137    2.018   .     S
H128   C273    1.088   .     S
H130   N34     1.029   1_655 S
H135   C19     1.081   1_655 S
H136   C427    1.087   1_545 S
N137   H25     1.029   1_655 S
N137   N34     1.297   1_655 S
O147   C148    1.411   .     S
C148   H149    1.109   .     S
H150   C44     1.111   1_655 S
H151   C44     1.110   1_655 S
O152   C153    1.412   .     S
C153   H156    1.108   .     S
C153   H154    1.111   .     S
C153   H155    1.115   .     S
C157   O191    1.291   .     A
C157   O192    1.284   .     A
C157   C167    1.426   .     S
C158   C159    1.417   .     A
C158   C628    1.435   .     S
C158   C644    1.427   .     S
C159   C166    1.429   .     A
C159   C163    1.424   .     A
C160   C164    1.402   .     A
C160   C626    1.435   1_554 S
C160   C629    1.422   1_554 S
C161   C162    1.384   .     A
C161   C628    1.422   .     S
C161   C640    1.402   .     S
C162   C163    1.381   .     A
C162   H183    1.081   .     S
C163   O204    1.386   .     S
C164   C173    1.404   .     A
C164   H185    1.077   .     S
C165   C173    1.396   .     A
C165   C172    1.387   .     A
C165   H179    1.083   .     S
C166   C168    1.490   .     S
C166   C174    1.392   .     A
C167   C325    1.326   .     S
C167   H344    1.087   .     S
C168   O194    1.283   .     A
C168   O193    1.322   .     A
C169   C170    1.426   .     S
C170   O196    1.292   .     A
C170   O195    1.284   .     A
C171   O198    1.301   .     A
C171   O197    1.291   .     A
C171   C173    1.461   .     S
C172   C629    1.402   1_554 S
C172   H236    1.084   .     S
C174   H186    1.081   .     S
C174   C175    1.392   .     A
C175   C644    1.419   .     S
C175   H291    1.081   1_455 S
C176   O199    1.397   .     S
C176   C643    1.419   1_554 S
C176   C626    1.427   1_554 S
Cu177  O191    1.956   .     S
Cu177  O195    1.950   .     S
Cu177  O197    1.934   .     S
Cu177  O193    1.944   .     S
Cu177  N190    2.018   .     S
Cu177  Cu178   2.685   .     S
Cu178  O192    1.950   .     S
Cu178  O196    1.956   .     S
Cu178  O198    1.944   .     S
Cu178  O194    1.934   .     S
Cu178  N189    2.018   .     S
H180   C325    1.088   .     S
H181   N293    1.029   1_455 S
H182   N242    1.029   .     S
H184   C276    1.084   1_455 S
H187   C227    1.081   .     S
N189   H233    1.029   .     S
N189   N242    1.297   .     S
N190   N293    1.297   1_455 S
N190   H286    1.029   1_455 S
O199   C200    1.411   .     S
C200   H201    1.109   .     S
C200   H306    1.111   1_455 S
C200   H307    1.110   1_455 S
H202   C252    1.111   .     S
H203   C252    1.110   .     S
O204   C205    1.412   .     S
C205   H208    1.108   .     S
C205   H206    1.111   .     S
C205   H207    1.115   .     S
C209   O243    1.291   .     A
C209   O244    1.284   .     A
C209   C219    1.426   .     S
C210   C211    1.417   .     A
C210   C680    1.435   .     S
C210   C696    1.427   .     S
C211   C218    1.429   .     A
C211   C215    1.424   .     A
C212   C216    1.402   .     A
C212   C678    1.435   1_554 S
C212   C681    1.422   1_554 S
C213   C214    1.384   .     A
C213   C680    1.422   .     S
C213   C692    1.402   .     S
C214   C215    1.381   .     A
C214   H235    1.081   .     S
C215   O256    1.386   .     S
C216   C225    1.404   .     A
C216   H237    1.077   .     S
C217   C225    1.396   .     A
C217   C224    1.387   .     A
C217   H231    1.083   .     S
C218   C220    1.490   .     S
C218   C226    1.392   .     A
C219   C377    1.326   .     S
C219   H396    1.087   .     S
C220   O246    1.283   .     A
C220   O245    1.322   .     A
C221   C222    1.426   .     S
C222   O248    1.292   .     A
C222   O247    1.284   .     A
C223   O250    1.301   .     A
C223   O249    1.291   .     A
C223   C225    1.461   .     S
C224   C681    1.402   1_554 S
C224   H288    1.084   .     S
C226   H238    1.081   .     S
C226   C227    1.392   .     A
C227   C696    1.419   .     S
C228   O251    1.397   .     S
C228   C695    1.419   1_554 S
C228   C678    1.427   1_554 S
Cu229  O243    1.956   .     S
Cu229  O247    1.950   .     S
Cu229  O249    1.934   .     S
Cu229  O245    1.944   .     S
Cu229  N242    2.018   .     S
Cu229  Cu230   2.685   .     S
Cu230  O244    1.950   .     S
Cu230  O248    1.956   .     S
Cu230  O250    1.944   .     S
Cu230  O246    1.934   .     S
Cu230  N241    2.018   .     S
H232   C377    1.088   .     S
H234   N294    1.029   .     S
H239   C279    1.081   .     S
N241   H285    1.029   .     S
N241   N294    1.297   .     S
O251   C252    1.411   .     S
C252   H253    1.109   .     S
H254   C304    1.111   .     S
H255   C304    1.110   .     S
O256   C257    1.412   .     S
C257   H260    1.108   .     S
C257   H258    1.111   .     S
C257   H259    1.115   .     S
C261   O295    1.291   .     A
C261   O296    1.284   .     A
C261   C271    1.426   .     S
C262   C263    1.417   .     A
C262   C732    1.435   .     S
C262   C748    1.427   .     S
C263   C270    1.429   .     A
C263   C267    1.424   .     A
C264   C268    1.402   .     A
C264   C730    1.435   1_554 S
C264   C733    1.422   1_554 S
C265   C266    1.384   .     A
C265   C732    1.422   .     S
C265   C744    1.402   .     S
C266   C267    1.381   .     A
C266   H287    1.081   .     S
C267   O308    1.386   .     S
C268   C277    1.404   .     A
C268   H289    1.077   .     S
C269   C277    1.396   .     A
C269   C276    1.387   .     A
C269   H283    1.083   .     S
C270   C272    1.490   .     S
C270   C278    1.392   .     A
C271   C429    1.326   .     S
C271   H448    1.087   .     S
C272   O298    1.283   .     A
C272   O297    1.322   .     A
C273   C274    1.426   .     S
C274   O300    1.292   .     A
C274   O299    1.284   .     A
C275   O302    1.301   .     A
C275   O301    1.291   .     A
C275   C277    1.461   .     S
C276   C733    1.402   1_554 S
C276   H184    1.084   1_655 S
C278   H290    1.081   .     S
C278   C279    1.392   .     A
C279   C748    1.419   .     S
C280   O303    1.397   .     S
C280   C747    1.419   1_554 S
C280   C730    1.427   1_554 S
Cu281  O295    1.956   .     S
Cu281  O299    1.950   .     S
Cu281  O301    1.934   .     S
Cu281  O297    1.944   .     S
Cu281  N294    2.018   .     S
Cu281  Cu282   2.685   .     S
Cu282  O296    1.950   .     S
Cu282  O300    1.956   .     S
Cu282  O302    1.944   .     S
Cu282  O298    1.934   .     S
Cu282  N293    2.018   .     S
H284   C429    1.088   .     S
H286   N190    1.029   1_655 S
H291   C175    1.081   1_655 S
N293   H181    1.029   1_655 S
N293   N190    1.297   1_655 S
O303   C304    1.411   .     S
C304   H305    1.109   .     S
H306   C200    1.111   1_655 S
H307   C200    1.110   1_655 S
O308   C309    1.412   .     S
C309   H312    1.108   .     S
C309   H310    1.111   .     S
C309   H311    1.115   .     S
C313   O347    1.291   .     A
C313   O348    1.284   .     A
C313   C323    1.426   .     S
C314   C315    1.417   .     A
C314   C784    1.435   .     S
C314   C800    1.427   .     S
C315   C322    1.429   .     A
C315   C319    1.424   .     A
C316   C320    1.402   .     A
C316   C782    1.435   1_554 S
C316   C785    1.422   1_554 S
C317   C318    1.384   .     A
C317   C784    1.422   .     S
C317   C796    1.402   .     S
C318   C319    1.381   .     A
C318   H339    1.081   .     S
C319   O360    1.386   .     S
C320   C329    1.404   .     A
C320   H341    1.077   .     S
C321   C329    1.396   .     A
C321   C328    1.387   .     A
C321   H335    1.083   .     S
C322   C324    1.490   .     S
C322   C330    1.392   .     A
C323   C13     1.326   1_565 S
C323   H32     1.087   1_565 S
C324   O350    1.283   .     A
C324   O349    1.322   .     A
C325   C326    1.426   .     S
C326   O352    1.292   .     A
C326   O351    1.284   .     A
C327   O354    1.301   .     A
C327   O353    1.291   .     A
C327   C329    1.461   .     S
C328   C785    1.402   1_554 S
C328   H392    1.084   .     S
C330   H342    1.081   .     S
C330   C331    1.392   .     A
C331   C800    1.419   .     S
C331   H447    1.081   1_455 S
C332   O355    1.397   .     S
C332   C799    1.419   1_554 S
C332   C782    1.427   1_554 S
Cu333  O347    1.956   .     S
Cu333  O351    1.950   .     S
Cu333  O353    1.934   .     S
Cu333  O349    1.944   .     S
Cu333  N346    2.018   .     S
Cu333  Cu334   2.685   .     S
Cu334  O348    1.950   .     S
Cu334  O352    1.956   .     S
Cu334  O354    1.944   .     S
Cu334  O350    1.934   .     S
Cu334  N345    2.018   .     S
H336   C13     1.088   1_565 S
H337   N449    1.029   1_455 S
H338   N398    1.029   .     S
H340   C432    1.084   1_455 S
H343   C383    1.081   .     S
N345   H389    1.029   .     S
N345   N398    1.297   .     S
N346   N449    1.297   1_455 S
N346   H442    1.029   1_455 S
O355   C356    1.411   .     S
C356   H357    1.109   .     S
C356   H462    1.111   1_455 S
C356   H463    1.110   1_455 S
H358   C408    1.111   .     S
H359   C408    1.110   .     S
O360   C361    1.412   .     S
C361   H364    1.108   .     S
C361   H362    1.111   .     S
C361   H363    1.115   .     S
C365   O399    1.291   .     A
C365   O400    1.284   .     A
C365   C375    1.426   .     S
C366   C367    1.417   .     A
C366   C836    1.435   .     S
C366   C852    1.427   .     S
C367   C374    1.429   .     A
C367   C371    1.424   .     A
C368   C372    1.402   .     A
C368   C834    1.435   1_554 S
C368   C837    1.422   1_554 S
C369   C370    1.384   .     A
C369   C836    1.422   .     S
C369   C848    1.402   .     S
C370   C371    1.381   .     A
C370   H391    1.081   .     S
C371   O412    1.386   .     S
C372   C381    1.404   .     A
C372   H393    1.077   .     S
C373   C381    1.396   .     A
C373   C380    1.387   .     A
C373   H387    1.083   .     S
C374   C376    1.490   .     S
C374   C382    1.392   .     A
C375   C65     1.326   1_565 S
C375   H84     1.087   1_565 S
C376   O402    1.283   .     A
C376   O401    1.322   .     A
C377   C378    1.426   .     S
C378   O404    1.292   .     A
C378   O403    1.284   .     A
C379   O406    1.301   .     A
C379   O405    1.291   .     A
C379   C381    1.461   .     S
C380   C837    1.402   1_554 S
C380   H444    1.084   .     S
C382   H394    1.081   .     S
C382   C383    1.392   .     A
C383   C852    1.419   .     S
C384   O407    1.397   .     S
C384   C851    1.419   1_554 S
C384   C834    1.427   1_554 S
Cu385  O399    1.956   .     S
Cu385  O403    1.950   .     S
Cu385  O405    1.934   .     S
Cu385  O401    1.944   .     S
Cu385  N398    2.018   .     S
Cu385  Cu386   2.685   .     S
Cu386  O400    1.950   .     S
Cu386  O404    1.956   .     S
Cu386  O406    1.944   .     S
Cu386  O402    1.934   .     S
Cu386  N397    2.018   .     S
H388   C65     1.088   1_565 S
H390   N450    1.029   .     S
H395   C435    1.081   .     S
N397   H441    1.029   .     S
N397   N450    1.297   .     S
O407   C408    1.411   .     S
C408   H409    1.109   .     S
H410   C460    1.111   .     S
H411   C460    1.110   .     S
O412   C413    1.412   .     S
C413   H416    1.108   .     S
C413   H414    1.111   .     S
C413   H415    1.115   .     S
C417   O451    1.291   .     A
C417   O452    1.284   .     A
C417   C427    1.426   .     S
C418   C419    1.417   .     A
C418   C888    1.435   .     S
C418   C904    1.427   .     S
C419   C426    1.429   .     A
C419   C423    1.424   .     A
C420   C424    1.402   .     A
C420   C886    1.435   1_554 S
C420   C889    1.422   1_554 S
C421   C422    1.384   .     A
C421   C888    1.422   .     S
C421   C900    1.402   .     S
C422   C423    1.381   .     A
C422   H443    1.081   .     S
C423   O464    1.386   .     S
C424   C433    1.404   .     A
C424   H445    1.077   .     S
C425   C433    1.396   .     A
C425   C432    1.387   .     A
C425   H439    1.083   .     S
C426   C428    1.490   .     S
C426   C434    1.392   .     A
C427   C117    1.326   1_565 S
C427   H136    1.087   1_565 S
C428   O454    1.283   .     A
C428   O453    1.322   .     A
C429   C430    1.426   .     S
C430   O456    1.292   .     A
C430   O455    1.284   .     A
C431   O458    1.301   .     A
C431   O457    1.291   .     A
C431   C433    1.461   .     S
C432   C889    1.402   1_554 S
C432   H340    1.084   1_655 S
C434   H446    1.081   .     S
C434   C435    1.392   .     A
C435   C904    1.419   .     S
C436   O459    1.397   .     S
C436   C903    1.419   1_554 S
C436   C886    1.427   1_554 S
Cu437  O451    1.956   .     S
Cu437  O455    1.950   .     S
Cu437  O457    1.934   .     S
Cu437  O453    1.944   .     S
Cu437  N450    2.018   .     S
Cu437  Cu438   2.685   .     S
Cu438  O452    1.950   .     S
Cu438  O456    1.956   .     S
Cu438  O458    1.944   .     S
Cu438  O454    1.934   .     S
Cu438  N449    2.018   .     S
H440   C117    1.088   1_565 S
H442   N346    1.029   1_655 S
H447   C331    1.081   1_655 S
N449   H337    1.029   1_655 S
N449   N346    1.297   1_655 S
O459   C460    1.411   .     S
C460   H461    1.109   .     S
H462   C356    1.111   1_655 S
H463   C356    1.110   1_655 S
O464   C465    1.412   .     S
C465   H468    1.108   .     S
C465   H466    1.111   .     S
C465   H467    1.115   .     S
C469   O503    1.291   .     A
C469   O504    1.284   .     A
C469   C479    1.426   .     S
C470   C471    1.417   .     A
C470   C4      1.435   1_556 S
C470   C20     1.427   1_556 S
C471   C478    1.429   .     A
C471   C475    1.424   .     A
C472   C476    1.402   .     A
C473   C474    1.384   .     A
C473   C4      1.422   1_556 S
C473   C16     1.402   1_556 S
C474   C475    1.381   .     A
C474   H495    1.081   .     S
C475   O516    1.386   .     S
C476   C485    1.404   .     A
C476   H497    1.077   .     S
C477   C485    1.396   .     A
C477   C484    1.387   .     A
C477   H491    1.083   .     S
C478   C480    1.490   .     S
C478   C486    1.392   .     A
C479   C637    1.326   .     S
C479   H656    1.087   .     S
C480   O506    1.283   .     A
C480   O505    1.322   .     A
C481   C482    1.426   .     S
C481   C791    1.326   1_545 S
C481   H804    1.088   1_545 S
C482   O508    1.292   .     A
C482   O507    1.284   .     A
C483   O510    1.301   .     A
C483   O509    1.291   .     A
C483   C485    1.461   .     S
C484   H548    1.084   .     S
C486   H498    1.081   .     S
C486   C487    1.392   .     A
C487   C20     1.419   1_556 S
C487   H603    1.081   1_455 S
C488   O511    1.397   .     S
Cu489  O503    1.956   .     S
Cu489  O507    1.950   .     S
Cu489  O509    1.934   .     S
Cu489  O505    1.944   .     S
Cu489  N502    2.018   .     S
Cu489  Cu490   2.685   .     S
Cu490  O504    1.950   .     S
Cu490  O508    1.956   .     S
Cu490  O510    1.944   .     S
Cu490  O506    1.934   .     S
Cu490  N501    2.018   .     S
H492   C637    1.088   .     S
H493   N605    1.029   1_455 S
H494   N554    1.029   .     S
H496   C588    1.084   1_455 S
H499   C539    1.081   .     S
H500   C791    1.087   1_545 S
N501   H545    1.029   .     S
N501   N554    1.297   .     S
N502   N605    1.297   1_455 S
N502   H598    1.029   1_455 S
O511   C512    1.411   .     S
C512   H513    1.109   .     S
C512   H618    1.111   1_455 S
C512   H619    1.110   1_455 S
H514   C564    1.111   .     S
H515   C564    1.110   .     S
O516   C517    1.412   .     S
C517   H520    1.108   .     S
C517   H518    1.111   .     S
C517   H519    1.115   .     S
C521   O555    1.291   .     A
C521   O556    1.284   .     A
C521   C531    1.426   .     S
C522   C523    1.417   .     A
C522   C56     1.435   1_556 S
C522   C72     1.427   1_556 S
C523   C530    1.429   .     A
C523   C527    1.424   .     A
C524   C528    1.402   .     A
C525   C526    1.384   .     A
C525   C56     1.422   1_556 S
C525   C68     1.402   1_556 S
C526   C527    1.381   .     A
C526   H547    1.081   .     S
C527   O568    1.386   .     S
C528   C537    1.404   .     A
C528   H549    1.077   .     S
C529   C537    1.396   .     A
C529   C536    1.387   .     A
C529   H543    1.083   .     S
C530   C532    1.490   .     S
C530   C538    1.392   .     A
C531   C689    1.326   .     S
C531   H708    1.087   .     S
C532   O558    1.283   .     A
C532   O557    1.322   .     A
C533   C534    1.426   .     S
C533   C843    1.326   1_545 S
C533   H856    1.088   1_545 S
C534   O560    1.292   .     A
C534   O559    1.284   .     A
C535   O562    1.301   .     A
C535   O561    1.291   .     A
C535   C537    1.461   .     S
C536   H600    1.084   .     S
C538   H550    1.081   .     S
C538   C539    1.392   .     A
C539   C72     1.419   1_556 S
C540   O563    1.397   .     S
Cu541  O555    1.956   .     S
Cu541  O559    1.950   .     S
Cu541  O561    1.934   .     S
Cu541  O557    1.944   .     S
Cu541  N554    2.018   .     S
Cu541  Cu542   2.685   .     S
Cu542  O556    1.950   .     S
Cu542  O560    1.956   .     S
Cu542  O562    1.944   .     S
Cu542  O558    1.934   .     S
Cu542  N553    2.018   .     S
H544   C689    1.088   .     S
H546   N606    1.029   .     S
H551   C591    1.081   .     S
H552   C843    1.087   1_545 S
N553   H597    1.029   .     S
N553   N606    1.297   .     S
O563   C564    1.411   .     S
C564   H565    1.109   .     S
H566   C616    1.111   .     S
H567   C616    1.110   .     S
O568   C569    1.412   .     S
C569   H572    1.108   .     S
C569   H570    1.111   .     S
C569   H571    1.115   .     S
C573   O607    1.291   .     A
C573   O608    1.284   .     A
C573   C583    1.426   .     S
C574   C575    1.417   .     A
C574   C108    1.435   1_556 S
C574   C124    1.427   1_556 S
C575   C582    1.429   .     A
C575   C579    1.424   .     A
C576   C580    1.402   .     A
C577   C578    1.384   .     A
C577   C108    1.422   1_556 S
C577   C120    1.402   1_556 S
C578   C579    1.381   .     A
C578   H599    1.081   .     S
C579   O620    1.386   .     S
C580   C589    1.404   .     A
C580   H601    1.077   .     S
C581   C589    1.396   .     A
C581   C588    1.387   .     A
C581   H595    1.083   .     S
C582   C584    1.490   .     S
C582   C590    1.392   .     A
C583   C741    1.326   .     S
C583   H760    1.087   .     S
C584   O610    1.283   .     A
C584   O609    1.322   .     A
C585   C586    1.426   .     S
C585   C895    1.326   1_545 S
C585   H908    1.088   1_545 S
C586   O612    1.292   .     A
C586   O611    1.284   .     A
C587   O614    1.301   .     A
C587   O613    1.291   .     A
C587   C589    1.461   .     S
C588   H496    1.084   1_655 S
C590   H602    1.081   .     S
C590   C591    1.392   .     A
C591   C124    1.419   1_556 S
C592   O615    1.397   .     S
Cu593  O607    1.956   .     S
Cu593  O611    1.950   .     S
Cu593  O613    1.934   .     S
Cu593  O609    1.944   .     S
Cu593  N606    2.018   .     S
Cu593  Cu594   2.685   .     S
Cu594  O608    1.950   .     S
Cu594  O612    1.956   .     S
Cu594  O614    1.944   .     S
Cu594  O610    1.934   .     S
Cu594  N605    2.018   .     S
H596   C741    1.088   .     S
H598   N502    1.029   1_655 S
H603   C487    1.081   1_655 S
H604   C895    1.087   1_545 S
N605   H493    1.029   1_655 S
N605   N502    1.297   1_655 S
O615   C616    1.411   .     S
C616   H617    1.109   .     S
H618   C512    1.111   1_655 S
H619   C512    1.110   1_655 S
O620   C621    1.412   .     S
C621   H624    1.108   .     S
C621   H622    1.111   .     S
C621   H623    1.115   .     S
C625   O659    1.291   .     A
C625   O660    1.284   .     A
C625   C635    1.426   .     S
C626   C627    1.417   .     A
C626   C160    1.435   1_556 S
C626   C176    1.427   1_556 S
C627   C634    1.429   .     A
C627   C631    1.424   .     A
C628   C632    1.402   .     A
C629   C630    1.384   .     A
C629   C160    1.422   1_556 S
C629   C172    1.402   1_556 S
C630   C631    1.381   .     A
C630   H651    1.081   .     S
C631   O672    1.386   .     S
C632   C641    1.404   .     A
C632   H653    1.077   .     S
C633   C641    1.396   .     A
C633   C640    1.387   .     A
C633   H647    1.083   .     S
C634   C636    1.490   .     S
C634   C642    1.392   .     A
C635   C793    1.326   .     S
C635   H812    1.087   .     S
C636   O662    1.283   .     A
C636   O661    1.322   .     A
C637   C638    1.426   .     S
C638   O664    1.292   .     A
C638   O663    1.284   .     A
C639   O666    1.301   .     A
C639   O665    1.291   .     A
C639   C641    1.461   .     S
C640   H704    1.084   .     S
C642   H654    1.081   .     S
C642   C643    1.392   .     A
C643   C176    1.419   1_556 S
C643   H759    1.081   1_455 S
C644   O667    1.397   .     S
Cu645  O659    1.956   .     S
Cu645  O663    1.950   .     S
Cu645  O665    1.934   .     S
Cu645  O661    1.944   .     S
Cu645  N658    2.018   .     S
Cu645  Cu646   2.685   .     S
Cu646  O660    1.950   .     S
Cu646  O664    1.956   .     S
Cu646  O666    1.944   .     S
Cu646  O662    1.934   .     S
Cu646  N657    2.018   .     S
H648   C793    1.088   .     S
H649   N761    1.029   1_455 S
H650   N710    1.029   .     S
H652   C744    1.084   1_455 S
H655   C695    1.081   .     S
N657   H701    1.029   .     S
N657   N710    1.297   .     S
N658   N761    1.297   1_455 S
N658   H754    1.029   1_455 S
O667   C668    1.411   .     S
C668   H669    1.109   .     S
C668   H774    1.111   1_455 S
C668   H775    1.110   1_455 S
H670   C720    1.111   .     S
H671   C720    1.110   .     S
O672   C673    1.412   .     S
C673   H676    1.108   .     S
C673   H674    1.111   .     S
C673   H675    1.115   .     S
C677   O711    1.291   .     A
C677   O712    1.284   .     A
C677   C687    1.426   .     S
C678   C679    1.417   .     A
C678   C212    1.435   1_556 S
C678   C228    1.427   1_556 S
C679   C686    1.429   .     A
C679   C683    1.424   .     A
C680   C684    1.402   .     A
C681   C682    1.384   .     A
C681   C212    1.422   1_556 S
C681   C224    1.402   1_556 S
C682   C683    1.381   .     A
C682   H703    1.081   .     S
C683   O724    1.386   .     S
C684   C693    1.404   .     A
C684   H705    1.077   .     S
C685   C693    1.396   .     A
C685   C692    1.387   .     A
C685   H699    1.083   .     S
C686   C688    1.490   .     S
C686   C694    1.392   .     A
C687   C845    1.326   .     S
C687   H864    1.087   .     S
C688   O714    1.283   .     A
C688   O713    1.322   .     A
C689   C690    1.426   .     S
C690   O716    1.292   .     A
C690   O715    1.284   .     A
C691   O718    1.301   .     A
C691   O717    1.291   .     A
C691   C693    1.461   .     S
C692   H756    1.084   .     S
C694   H706    1.081   .     S
C694   C695    1.392   .     A
C695   C228    1.419   1_556 S
C696   O719    1.397   .     S
Cu697  O711    1.956   .     S
Cu697  O715    1.950   .     S
Cu697  O717    1.934   .     S
Cu697  O713    1.944   .     S
Cu697  N710    2.018   .     S
Cu697  Cu698   2.685   .     S
Cu698  O712    1.950   .     S
Cu698  O716    1.956   .     S
Cu698  O718    1.944   .     S
Cu698  O714    1.934   .     S
Cu698  N709    2.018   .     S
H700   C845    1.088   .     S
H702   N762    1.029   .     S
H707   C747    1.081   .     S
N709   H753    1.029   .     S
N709   N762    1.297   .     S
O719   C720    1.411   .     S
C720   H721    1.109   .     S
H722   C772    1.111   .     S
H723   C772    1.110   .     S
O724   C725    1.412   .     S
C725   H728    1.108   .     S
C725   H726    1.111   .     S
C725   H727    1.115   .     S
C729   O763    1.291   .     A
C729   O764    1.284   .     A
C729   C739    1.426   .     S
C730   C731    1.417   .     A
C730   C264    1.435   1_556 S
C730   C280    1.427   1_556 S
C731   C738    1.429   .     A
C731   C735    1.424   .     A
C732   C736    1.402   .     A
C733   C734    1.384   .     A
C733   C264    1.422   1_556 S
C733   C276    1.402   1_556 S
C734   C735    1.381   .     A
C734   H755    1.081   .     S
C735   O776    1.386   .     S
C736   C745    1.404   .     A
C736   H757    1.077   .     S
C737   C745    1.396   .     A
C737   C744    1.387   .     A
C737   H751    1.083   .     S
C738   C740    1.490   .     S
C738   C746    1.392   .     A
C739   C897    1.326   .     S
C739   H916    1.087   .     S
C740   O766    1.283   .     A
C740   O765    1.322   .     A
C741   C742    1.426   .     S
C742   O768    1.292   .     A
C742   O767    1.284   .     A
C743   O770    1.301   .     A
C743   O769    1.291   .     A
C743   C745    1.461   .     S
C744   H652    1.084   1_655 S
C746   H758    1.081   .     S
C746   C747    1.392   .     A
C747   C280    1.419   1_556 S
C748   O771    1.397   .     S
Cu749  O763    1.956   .     S
Cu749  O767    1.950   .     S
Cu749  O769    1.934   .     S
Cu749  O765    1.944   .     S
Cu749  N762    2.018   .     S
Cu749  Cu750   2.685   .     S
Cu750  O764    1.950   .     S
Cu750  O768    1.956   .     S
Cu750  O770    1.944   .     S
Cu750  O766    1.934   .     S
Cu750  N761    2.018   .     S
H752   C897    1.088   .     S
H754   N658    1.029   1_655 S
H759   C643    1.081   1_655 S
N761   H649    1.029   1_655 S
N761   N658    1.297   1_655 S
O771   C772    1.411   .     S
C772   H773    1.109   .     S
H774   C668    1.111   1_655 S
H775   C668    1.110   1_655 S
O776   C777    1.412   .     S
C777   H780    1.108   .     S
C777   H778    1.111   .     S
C777   H779    1.115   .     S
C781   O815    1.291   .     A
C781   O816    1.284   .     A
C781   C791    1.426   .     S
C782   C783    1.417   .     A
C782   C316    1.435   1_556 S
C782   C332    1.427   1_556 S
C783   C790    1.429   .     A
C783   C787    1.424   .     A
C784   C788    1.402   .     A
C785   C786    1.384   .     A
C785   C316    1.422   1_556 S
C785   C328    1.402   1_556 S
C786   C787    1.381   .     A
C786   H807    1.081   .     S
C787   O828    1.386   .     S
C788   C797    1.404   .     A
C788   H809    1.077   .     S
C789   C797    1.396   .     A
C789   C796    1.387   .     A
C789   H803    1.083   .     S
C790   C792    1.490   .     S
C790   C798    1.392   .     A
C791   C481    1.326   1_565 S
C791   H500    1.087   1_565 S
C792   O818    1.283   .     A
C792   O817    1.322   .     A
C793   C794    1.426   .     S
C794   O820    1.292   .     A
C794   O819    1.284   .     A
C795   O822    1.301   .     A
C795   O821    1.291   .     A
C795   C797    1.461   .     S
C796   H860    1.084   .     S
C798   H810    1.081   .     S
C798   C799    1.392   .     A
C799   C332    1.419   1_556 S
C799   H915    1.081   1_455 S
C800   O823    1.397   .     S
Cu801  O815    1.956   .     S
Cu801  O819    1.950   .     S
Cu801  O821    1.934   .     S
Cu801  O817    1.944   .     S
Cu801  N814    2.018   .     S
Cu801  Cu802   2.685   .     S
Cu802  O816    1.950   .     S
Cu802  O820    1.956   .     S
Cu802  O822    1.944   .     S
Cu802  O818    1.934   .     S
Cu802  N813    2.018   .     S
H804   C481    1.088   1_565 S
H805   N917    1.029   1_455 S
H806   N866    1.029   .     S
H808   C900    1.084   1_455 S
H811   C851    1.081   .     S
N813   H857    1.029   .     S
N813   N866    1.297   .     S
N814   N917    1.297   1_455 S
N814   H910    1.029   1_455 S
O823   C824    1.411   .     S
C824   H825    1.109   .     S
C824   H930    1.111   1_455 S
C824   H931    1.110   1_455 S
H826   C876    1.111   .     S
H827   C876    1.110   .     S
O828   C829    1.412   .     S
C829   H832    1.108   .     S
C829   H830    1.111   .     S
C829   H831    1.115   .     S
C833   O867    1.291   .     A
C833   O868    1.284   .     A
C833   C843    1.426   .     S
C834   C835    1.417   .     A
C834   C368    1.435   1_556 S
C834   C384    1.427   1_556 S
C835   C842    1.429   .     A
C835   C839    1.424   .     A
C836   C840    1.402   .     A
C837   C838    1.384   .     A
C837   C368    1.422   1_556 S
C837   C380    1.402   1_556 S
C838   C839    1.381   .     A
C838   H859    1.081   .     S
C839   O880    1.386   .     S
C840   C849    1.404   .     A
C840   H861    1.077   .     S
C841   C849    1.396   .     A
C841   C848    1.387   .     A
C841   H855    1.083   .     S
C842   C844    1.490   .     S
C842   C850    1.392   .     A
C843   C533    1.326   1_565 S
C843   H552    1.087   1_565 S
C844   O870    1.283   .     A
C844   O869    1.322   .     A
C845   C846    1.426   .     S
C846   O872    1.292   .     A
C846   O871    1.284   .     A
C847   O874    1.301   .     A
C847   O873    1.291   .     A
C847   C849    1.461   .     S
C848   H912    1.084   .     S
C850   H862    1.081   .     S
C850   C851    1.392   .     A
C851   C384    1.419   1_556 S
C852   O875    1.397   .     S
Cu853  O867    1.956   .     S
Cu853  O871    1.950   .     S
Cu853  O873    1.934   .     S
Cu853  O869    1.944   .     S
Cu853  N866    2.018   .     S
Cu853  Cu854   2.685   .     S
Cu854  O868    1.950   .     S
Cu854  O872    1.956   .     S
Cu854  O874    1.944   .     S
Cu854  O870    1.934   .     S
Cu854  N865    2.018   .     S
H856   C533    1.088   1_565 S
H858   N918    1.029   .     S
H863   C903    1.081   .     S
N865   H909    1.029   .     S
N865   N918    1.297   .     S
O875   C876    1.411   .     S
C876   H877    1.109   .     S
H878   C928    1.111   .     S
H879   C928    1.110   .     S
O880   C881    1.412   .     S
C881   H884    1.108   .     S
C881   H882    1.111   .     S
C881   H883    1.115   .     S
C885   O919    1.291   .     A
C885   O920    1.284   .     A
C885   C895    1.426   .     S
C886   C887    1.417   .     A
C886   C420    1.435   1_556 S
C886   C436    1.427   1_556 S
C887   C894    1.429   .     A
C887   C891    1.424   .     A
C888   C892    1.402   .     A
C889   C890    1.384   .     A
C889   C420    1.422   1_556 S
C889   C432    1.402   1_556 S
C890   C891    1.381   .     A
C890   H911    1.081   .     S
C891   O932    1.386   .     S
C892   C901    1.404   .     A
C892   H913    1.077   .     S
C893   C901    1.396   .     A
C893   C900    1.387   .     A
C893   H907    1.083   .     S
C894   C896    1.490   .     S
C894   C902    1.392   .     A
C895   C585    1.326   1_565 S
C895   H604    1.087   1_565 S
C896   O922    1.283   .     A
C896   O921    1.322   .     A
C897   C898    1.426   .     S
C898   O924    1.292   .     A
C898   O923    1.284   .     A
C899   O926    1.301   .     A
C899   O925    1.291   .     A
C899   C901    1.461   .     S
C900   H808    1.084   1_655 S
C902   H914    1.081   .     S
C902   C903    1.392   .     A
C903   C436    1.419   1_556 S
C904   O927    1.397   .     S
Cu905  O919    1.956   .     S
Cu905  O923    1.950   .     S
Cu905  O925    1.934   .     S
Cu905  O921    1.944   .     S
Cu905  N918    2.018   .     S
Cu905  Cu906   2.685   .     S
Cu906  O920    1.950   .     S
Cu906  O924    1.956   .     S
Cu906  O926    1.944   .     S
Cu906  O922    1.934   .     S
Cu906  N917    2.018   .     S
H908   C585    1.088   1_565 S
H910   N814    1.029   1_655 S
H915   C799    1.081   1_655 S
N917   H805    1.029   1_655 S
N917   N814    1.297   1_655 S
O927   C928    1.411   .     S
C928   H929    1.109   .     S
H930   C824    1.111   1_655 S
H931   C824    1.110   1_655 S
O932   C933    1.412   .     S
C933   H936    1.108   .     S
C933   H934    1.111   .     S
C933   H935    1.115   .     S
