data_str_m2_o2_o10_pcu_sym.118
_audit_creation_date              2020-01-03
_audit_creation_method            'Materials Studio'
_symmetry_space_group_name_H-M    'P1'
_symmetry_Int_Tables_number       1
_symmetry_cell_setting            triclinic
loop_
_symmetry_equiv_pos_as_xyz
  x,y,z
_cell_length_a                    26.1961
_cell_length_b                    30.2971
_cell_length_c                    27.7264
_cell_angle_alpha                 90.3344
_cell_angle_beta                  97.9493
_cell_angle_gamma                 90.0540
loop_
_atom_site_label
_atom_site_type_symbol
_atom_site_fract_x
_atom_site_fract_y
_atom_site_fract_z
_atom_site_U_iso_or_equiv
_atom_site_adp_type
_atom_site_occupancy
C1     C     0.16737   0.16489   0.24990   0.00000  Uiso   1.00
C2     C     0.21213   0.26124   0.45196   0.00000  Uiso   1.00
C3     C     0.16733   0.24900   0.02737   0.00000  Uiso   1.00
C4     C     0.16784   0.24943   0.47292   0.00000  Uiso   1.00
C5     C     0.06789   0.24998   0.23755   0.00000  Uiso   1.00
C6     C     0.26544   0.25002   0.26245   0.00000  Uiso   1.00
C7     C     0.01262   0.24994   0.23068   0.00000  Uiso   1.00
C8     C     0.32070   0.25007   0.26933   0.00000  Uiso   1.00
C9     C     0.14477   0.04766   0.28529   0.00000  Uiso   1.00
C10    C     0.14666   0.45236   0.20826   0.00000  Uiso   1.00
C11    C     0.14510   0.09352   0.28517   0.00000  Uiso   1.00
C12    C     0.16738   0.33514   0.25029   0.00000  Uiso   1.00
C13    C     0.14698   0.40651   0.20850   0.00000  Uiso   1.00
C14    C     0.16779   0.11649   0.24952   0.00000  Uiso   1.00
C15    C     0.16783   0.38360   0.25076   0.00000  Uiso   1.00
C16    C     0.19037   0.09248   0.21397   0.00000  Uiso   1.00
C17    C     0.18861   0.40774   0.29284   0.00000  Uiso   1.00
C18    C     0.18898   0.04657   0.21410   0.00000  Uiso   1.00
C19    C     0.18720   0.45365   0.29224   0.00000  Uiso   1.00
C20    C     0.16640   0.02414   0.24966   0.00000  Uiso   1.00
C21    C     0.16643   0.47598   0.25012   0.00000  Uiso   1.00
C22    C     0.18290   0.28652   0.05582   0.00000  Uiso   1.00
C23    C     0.12320   0.23826   0.44085   0.00000  Uiso   1.00
C24    C     0.18299   0.28618   0.10657   0.00000  Uiso   1.00
C25    C     0.12360   0.23811   0.39016   0.00000  Uiso   1.00
C26    C     0.15042   0.21341   0.10253   0.00000  Uiso   1.00
C27    C     0.21027   0.26180   0.40092   0.00000  Uiso   1.00
C28    C     0.15101   0.21179   0.05180   0.00000  Uiso   1.00
Cl29   Cl    0.22351   0.11777   0.17022   0.00000  Uiso   1.00
Cl30   Cl    0.21935   0.38274   0.34644   0.00000  Uiso   1.00
Cl31   Cl    0.13358   0.16184   0.02109   0.00000  Uiso   1.00
Cl32   Cl    0.27139   0.27325   0.48788   0.00000  Uiso   1.00
Cu33   Cu    0.16667   0.25000   0.29822   0.00000  Uiso   1.00
Cu34   Cu    0.16667   0.25001   0.20179   0.00000  Uiso   1.00
F35    F     0.12228   0.11530   0.31941   0.00000  Uiso   1.00
F36    F     0.12590   0.38472   0.16760   0.00000  Uiso   1.00
H37    H     0.32597   0.24980   0.19360   0.00000  Uiso   1.00
H38    H     0.08903   0.22839   0.36666   0.00000  Uiso   1.00
H39    H     0.13724   0.18485   0.12045   0.00000  Uiso   1.00
H40    H     0.24436   0.27142   0.38570   0.00000  Uiso   1.00
H41    H     0.00732   0.25024   0.30641   0.00000  Uiso   1.00
H42    H     0.12702   0.03042   0.31282   0.00000  Uiso   1.00
H43    H     0.13032   0.46954   0.17556   0.00000  Uiso   1.00
H44    H     0.20665   0.02824   0.18710   0.00000  Uiso   1.00
H45    H     0.20345   0.47207   0.32436   0.00000  Uiso   1.00
H46    H     0.19502   0.31614   0.03887   0.00000  Uiso   1.00
H47    H     0.08799   0.22961   0.45493   0.00000  Uiso   1.00
H48    H     0.19618   0.31518   0.12753   0.00000  Uiso   1.00
N49    N     0.16667   0.25001   0.12935   0.00000  Uiso   1.00
N50    N     0.16667   0.24999   0.37066   0.00000  Uiso   1.00
O51    O     0.16667   0.18573   0.29072   0.00000  Uiso   1.00
O52    O     0.16666   0.31428   0.20929   0.00000  Uiso   1.00
O53    O     0.16667   0.18573   0.20928   0.00000  Uiso   1.00
O54    O     0.16666   0.31427   0.29072   0.00000  Uiso   1.00
O55    O     0.09161   0.25000   0.28132   0.00000  Uiso   1.00
O56    O     0.24172   0.25001   0.21868   0.00000  Uiso   1.00
O57    O     0.09161   0.25000   0.19989   0.00000  Uiso   1.00
O58    O     0.24172   0.25000   0.30012   0.00000  Uiso   1.00
C59    C     0.50071   0.16489   0.24990   0.00000  Uiso   1.00
C60    C     0.54546   0.26124   0.45196   0.00000  Uiso   1.00
C61    C     0.50066   0.24900   0.02737   0.00000  Uiso   1.00
C62    C     0.50117   0.24943   0.47292   0.00000  Uiso   1.00
C63    C     0.40122   0.24998   0.23755   0.00000  Uiso   1.00
C64    C     0.59877   0.25002   0.26245   0.00000  Uiso   1.00
C65    C     0.34595   0.24994   0.23068   0.00000  Uiso   1.00
C66    C     0.65403   0.25007   0.26933   0.00000  Uiso   1.00
C67    C     0.47810   0.04766   0.28529   0.00000  Uiso   1.00
C68    C     0.47999   0.45236   0.20826   0.00000  Uiso   1.00
C69    C     0.47843   0.09352   0.28517   0.00000  Uiso   1.00
C70    C     0.50072   0.33514   0.25029   0.00000  Uiso   1.00
C71    C     0.48031   0.40651   0.20850   0.00000  Uiso   1.00
C72    C     0.50112   0.11649   0.24952   0.00000  Uiso   1.00
C73    C     0.50116   0.38360   0.25076   0.00000  Uiso   1.00
C74    C     0.52371   0.09248   0.21397   0.00000  Uiso   1.00
C75    C     0.52194   0.40774   0.29284   0.00000  Uiso   1.00
C76    C     0.52231   0.04657   0.21410   0.00000  Uiso   1.00
C77    C     0.52054   0.45365   0.29224   0.00000  Uiso   1.00
C78    C     0.49973   0.02414   0.24966   0.00000  Uiso   1.00
C79    C     0.49977   0.47598   0.25012   0.00000  Uiso   1.00
C80    C     0.51623   0.28652   0.05582   0.00000  Uiso   1.00
C81    C     0.45654   0.23826   0.44085   0.00000  Uiso   1.00
C82    C     0.51632   0.28618   0.10657   0.00000  Uiso   1.00
C83    C     0.45693   0.23811   0.39016   0.00000  Uiso   1.00
C84    C     0.48376   0.21341   0.10253   0.00000  Uiso   1.00
C85    C     0.54360   0.26180   0.40092   0.00000  Uiso   1.00
C86    C     0.48434   0.21179   0.05180   0.00000  Uiso   1.00
Cl87   Cl    0.55684   0.11777   0.17022   0.00000  Uiso   1.00
Cl88   Cl    0.55269   0.38274   0.34644   0.00000  Uiso   1.00
Cl89   Cl    0.46691   0.16184   0.02109   0.00000  Uiso   1.00
Cl90   Cl    0.60472   0.27325   0.48788   0.00000  Uiso   1.00
Cu91   Cu    0.50000   0.25000   0.29822   0.00000  Uiso   1.00
Cu92   Cu    0.50000   0.25001   0.20179   0.00000  Uiso   1.00
F93    F     0.45561   0.11530   0.31941   0.00000  Uiso   1.00
F94    F     0.45924   0.38472   0.16760   0.00000  Uiso   1.00
H95    H     0.65930   0.24980   0.19360   0.00000  Uiso   1.00
H96    H     0.42236   0.22839   0.36666   0.00000  Uiso   1.00
H97    H     0.47057   0.18485   0.12045   0.00000  Uiso   1.00
H98    H     0.57770   0.27142   0.38570   0.00000  Uiso   1.00
H99    H     0.34066   0.25024   0.30641   0.00000  Uiso   1.00
H100   H     0.46036   0.03042   0.31282   0.00000  Uiso   1.00
H101   H     0.46366   0.46954   0.17556   0.00000  Uiso   1.00
H102   H     0.53999   0.02824   0.18710   0.00000  Uiso   1.00
H103   H     0.53679   0.47207   0.32436   0.00000  Uiso   1.00
H104   H     0.52836   0.31614   0.03887   0.00000  Uiso   1.00
H105   H     0.42132   0.22961   0.45493   0.00000  Uiso   1.00
H106   H     0.52952   0.31518   0.12753   0.00000  Uiso   1.00
N107   N     0.50000   0.25001   0.12935   0.00000  Uiso   1.00
N108   N     0.50000   0.24999   0.37066   0.00000  Uiso   1.00
O109   O     0.50000   0.18573   0.29072   0.00000  Uiso   1.00
O110   O     0.50000   0.31428   0.20929   0.00000  Uiso   1.00
O111   O     0.50000   0.18573   0.20928   0.00000  Uiso   1.00
O112   O     0.50000   0.31427   0.29072   0.00000  Uiso   1.00
O113   O     0.42495   0.25000   0.28132   0.00000  Uiso   1.00
O114   O     0.57505   0.25001   0.21868   0.00000  Uiso   1.00
O115   O     0.42495   0.25000   0.19989   0.00000  Uiso   1.00
O116   O     0.57505   0.25000   0.30012   0.00000  Uiso   1.00
C117   C     0.83404   0.16489   0.24990   0.00000  Uiso   1.00
C118   C     0.87880   0.26124   0.45196   0.00000  Uiso   1.00
C119   C     0.83399   0.24900   0.02737   0.00000  Uiso   1.00
C120   C     0.83451   0.24943   0.47292   0.00000  Uiso   1.00
C121   C     0.73456   0.24998   0.23755   0.00000  Uiso   1.00
C122   C     0.93211   0.25002   0.26245   0.00000  Uiso   1.00
C123   C     0.67929   0.24994   0.23068   0.00000  Uiso   1.00
C124   C     0.98736   0.25007   0.26933   0.00000  Uiso   1.00
C125   C     0.81144   0.04766   0.28529   0.00000  Uiso   1.00
C126   C     0.81333   0.45236   0.20826   0.00000  Uiso   1.00
C127   C     0.81177   0.09352   0.28517   0.00000  Uiso   1.00
C128   C     0.83405   0.33514   0.25029   0.00000  Uiso   1.00
C129   C     0.81364   0.40651   0.20850   0.00000  Uiso   1.00
C130   C     0.83446   0.11649   0.24952   0.00000  Uiso   1.00
C131   C     0.83450   0.38360   0.25076   0.00000  Uiso   1.00
C132   C     0.85704   0.09248   0.21397   0.00000  Uiso   1.00
C133   C     0.85527   0.40774   0.29284   0.00000  Uiso   1.00
C134   C     0.85565   0.04657   0.21410   0.00000  Uiso   1.00
C135   C     0.85387   0.45365   0.29224   0.00000  Uiso   1.00
C136   C     0.83307   0.02414   0.24966   0.00000  Uiso   1.00
C137   C     0.83310   0.47598   0.25012   0.00000  Uiso   1.00
C138   C     0.84957   0.28652   0.05582   0.00000  Uiso   1.00
C139   C     0.78987   0.23826   0.44085   0.00000  Uiso   1.00
C140   C     0.84965   0.28618   0.10657   0.00000  Uiso   1.00
C141   C     0.79026   0.23811   0.39016   0.00000  Uiso   1.00
C142   C     0.81709   0.21341   0.10253   0.00000  Uiso   1.00
C143   C     0.87694   0.26180   0.40092   0.00000  Uiso   1.00
C144   C     0.81767   0.21179   0.05180   0.00000  Uiso   1.00
Cl145  Cl    0.89018   0.11777   0.17022   0.00000  Uiso   1.00
Cl146  Cl    0.88602   0.38274   0.34644   0.00000  Uiso   1.00
Cl147  Cl    0.80025   0.16184   0.02109   0.00000  Uiso   1.00
Cl148  Cl    0.93806   0.27325   0.48788   0.00000  Uiso   1.00
Cu149  Cu    0.83333   0.25000   0.29822   0.00000  Uiso   1.00
Cu150  Cu    0.83333   0.25001   0.20179   0.00000  Uiso   1.00
F151   F     0.78894   0.11530   0.31941   0.00000  Uiso   1.00
F152   F     0.79257   0.38472   0.16760   0.00000  Uiso   1.00
H153   H     0.99263   0.24980   0.19360   0.00000  Uiso   1.00
H154   H     0.75569   0.22839   0.36666   0.00000  Uiso   1.00
H155   H     0.80391   0.18485   0.12045   0.00000  Uiso   1.00
H156   H     0.91103   0.27142   0.38570   0.00000  Uiso   1.00
H157   H     0.67399   0.25024   0.30641   0.00000  Uiso   1.00
H158   H     0.79369   0.03042   0.31282   0.00000  Uiso   1.00
H159   H     0.79699   0.46954   0.17556   0.00000  Uiso   1.00
H160   H     0.87332   0.02824   0.18710   0.00000  Uiso   1.00
H161   H     0.87012   0.47207   0.32436   0.00000  Uiso   1.00
H162   H     0.86169   0.31614   0.03887   0.00000  Uiso   1.00
H163   H     0.75465   0.22961   0.45493   0.00000  Uiso   1.00
H164   H     0.86285   0.31518   0.12753   0.00000  Uiso   1.00
N165   N     0.83333   0.25001   0.12935   0.00000  Uiso   1.00
N166   N     0.83333   0.24999   0.37066   0.00000  Uiso   1.00
O167   O     0.83334   0.18573   0.29072   0.00000  Uiso   1.00
O168   O     0.83333   0.31428   0.20929   0.00000  Uiso   1.00
O169   O     0.83334   0.18573   0.20928   0.00000  Uiso   1.00
O170   O     0.83333   0.31427   0.29072   0.00000  Uiso   1.00
O171   O     0.75828   0.25000   0.28132   0.00000  Uiso   1.00
O172   O     0.90839   0.25001   0.21868   0.00000  Uiso   1.00
O173   O     0.75828   0.25000   0.19989   0.00000  Uiso   1.00
O174   O     0.90839   0.25000   0.30012   0.00000  Uiso   1.00
C175   C     0.16737   0.66489   0.24990   0.00000  Uiso   1.00
C176   C     0.21213   0.76124   0.45196   0.00000  Uiso   1.00
C177   C     0.16733   0.74900   0.02737   0.00000  Uiso   1.00
C178   C     0.16784   0.74943   0.47292   0.00000  Uiso   1.00
C179   C     0.06789   0.74998   0.23755   0.00000  Uiso   1.00
C180   C     0.26544   0.75002   0.26245   0.00000  Uiso   1.00
C181   C     0.01262   0.74994   0.23068   0.00000  Uiso   1.00
C182   C     0.32070   0.75007   0.26933   0.00000  Uiso   1.00
C183   C     0.14477   0.54766   0.28529   0.00000  Uiso   1.00
C184   C     0.14666   0.95236   0.20826   0.00000  Uiso   1.00
C185   C     0.14510   0.59352   0.28517   0.00000  Uiso   1.00
C186   C     0.16738   0.83514   0.25029   0.00000  Uiso   1.00
C187   C     0.14698   0.90651   0.20850   0.00000  Uiso   1.00
C188   C     0.16779   0.61649   0.24952   0.00000  Uiso   1.00
C189   C     0.16783   0.88360   0.25076   0.00000  Uiso   1.00
C190   C     0.19037   0.59248   0.21397   0.00000  Uiso   1.00
C191   C     0.18861   0.90774   0.29284   0.00000  Uiso   1.00
C192   C     0.18898   0.54657   0.21410   0.00000  Uiso   1.00
C193   C     0.18720   0.95365   0.29224   0.00000  Uiso   1.00
C194   C     0.16640   0.52414   0.24966   0.00000  Uiso   1.00
C195   C     0.16643   0.97598   0.25012   0.00000  Uiso   1.00
C196   C     0.18290   0.78652   0.05582   0.00000  Uiso   1.00
C197   C     0.12320   0.73826   0.44085   0.00000  Uiso   1.00
C198   C     0.18299   0.78618   0.10657   0.00000  Uiso   1.00
C199   C     0.12360   0.73811   0.39016   0.00000  Uiso   1.00
C200   C     0.15042   0.71341   0.10253   0.00000  Uiso   1.00
C201   C     0.21027   0.76180   0.40092   0.00000  Uiso   1.00
C202   C     0.15101   0.71179   0.05180   0.00000  Uiso   1.00
Cl203  Cl    0.22351   0.61777   0.17022   0.00000  Uiso   1.00
Cl204  Cl    0.21935   0.88274   0.34644   0.00000  Uiso   1.00
Cl205  Cl    0.13358   0.66184   0.02109   0.00000  Uiso   1.00
Cl206  Cl    0.27139   0.77325   0.48788   0.00000  Uiso   1.00
Cu207  Cu    0.16667   0.75000   0.29822   0.00000  Uiso   1.00
Cu208  Cu    0.16667   0.75001   0.20179   0.00000  Uiso   1.00
F209   F     0.12228   0.61530   0.31941   0.00000  Uiso   1.00
F210   F     0.12590   0.88472   0.16760   0.00000  Uiso   1.00
H211   H     0.32597   0.74980   0.19360   0.00000  Uiso   1.00
H212   H     0.08903   0.72839   0.36666   0.00000  Uiso   1.00
H213   H     0.13724   0.68485   0.12045   0.00000  Uiso   1.00
H214   H     0.24436   0.77142   0.38570   0.00000  Uiso   1.00
H215   H     0.00732   0.75024   0.30641   0.00000  Uiso   1.00
H216   H     0.12702   0.53042   0.31282   0.00000  Uiso   1.00
H217   H     0.13032   0.96954   0.17556   0.00000  Uiso   1.00
H218   H     0.20665   0.52824   0.18710   0.00000  Uiso   1.00
H219   H     0.20345   0.97207   0.32436   0.00000  Uiso   1.00
H220   H     0.19502   0.81614   0.03887   0.00000  Uiso   1.00
H221   H     0.08799   0.72961   0.45493   0.00000  Uiso   1.00
H222   H     0.19618   0.81518   0.12753   0.00000  Uiso   1.00
N223   N     0.16667   0.75001   0.12935   0.00000  Uiso   1.00
N224   N     0.16667   0.74999   0.37066   0.00000  Uiso   1.00
O225   O     0.16667   0.68573   0.29072   0.00000  Uiso   1.00
O226   O     0.16666   0.81428   0.20929   0.00000  Uiso   1.00
O227   O     0.16667   0.68573   0.20928   0.00000  Uiso   1.00
O228   O     0.16666   0.81427   0.29072   0.00000  Uiso   1.00
O229   O     0.09161   0.75000   0.28132   0.00000  Uiso   1.00
O230   O     0.24172   0.75001   0.21868   0.00000  Uiso   1.00
O231   O     0.09161   0.75000   0.19989   0.00000  Uiso   1.00
O232   O     0.24172   0.75000   0.30012   0.00000  Uiso   1.00
C233   C     0.50071   0.66489   0.24990   0.00000  Uiso   1.00
C234   C     0.54546   0.76124   0.45196   0.00000  Uiso   1.00
C235   C     0.50066   0.74900   0.02737   0.00000  Uiso   1.00
C236   C     0.50117   0.74943   0.47292   0.00000  Uiso   1.00
C237   C     0.40122   0.74998   0.23755   0.00000  Uiso   1.00
C238   C     0.59877   0.75002   0.26245   0.00000  Uiso   1.00
C239   C     0.34595   0.74994   0.23068   0.00000  Uiso   1.00
C240   C     0.65403   0.75007   0.26933   0.00000  Uiso   1.00
C241   C     0.47810   0.54766   0.28529   0.00000  Uiso   1.00
C242   C     0.47999   0.95236   0.20826   0.00000  Uiso   1.00
C243   C     0.47843   0.59352   0.28517   0.00000  Uiso   1.00
C244   C     0.50072   0.83514   0.25029   0.00000  Uiso   1.00
C245   C     0.48031   0.90651   0.20850   0.00000  Uiso   1.00
C246   C     0.50112   0.61649   0.24952   0.00000  Uiso   1.00
C247   C     0.50116   0.88360   0.25076   0.00000  Uiso   1.00
C248   C     0.52371   0.59248   0.21397   0.00000  Uiso   1.00
C249   C     0.52194   0.90774   0.29284   0.00000  Uiso   1.00
C250   C     0.52231   0.54657   0.21410   0.00000  Uiso   1.00
C251   C     0.52054   0.95365   0.29224   0.00000  Uiso   1.00
C252   C     0.49973   0.52414   0.24966   0.00000  Uiso   1.00
C253   C     0.49977   0.97598   0.25012   0.00000  Uiso   1.00
C254   C     0.51623   0.78652   0.05582   0.00000  Uiso   1.00
C255   C     0.45654   0.73826   0.44085   0.00000  Uiso   1.00
C256   C     0.51632   0.78618   0.10657   0.00000  Uiso   1.00
C257   C     0.45693   0.73811   0.39016   0.00000  Uiso   1.00
C258   C     0.48376   0.71341   0.10253   0.00000  Uiso   1.00
C259   C     0.54360   0.76180   0.40092   0.00000  Uiso   1.00
C260   C     0.48434   0.71179   0.05180   0.00000  Uiso   1.00
Cl261  Cl    0.55684   0.61777   0.17022   0.00000  Uiso   1.00
Cl262  Cl    0.55269   0.88274   0.34644   0.00000  Uiso   1.00
Cl263  Cl    0.46691   0.66184   0.02109   0.00000  Uiso   1.00
Cl264  Cl    0.60472   0.77325   0.48788   0.00000  Uiso   1.00
Cu265  Cu    0.50000   0.75000   0.29822   0.00000  Uiso   1.00
Cu266  Cu    0.50000   0.75001   0.20179   0.00000  Uiso   1.00
F267   F     0.45561   0.61530   0.31941   0.00000  Uiso   1.00
F268   F     0.45924   0.88472   0.16760   0.00000  Uiso   1.00
H269   H     0.65930   0.74980   0.19360   0.00000  Uiso   1.00
H270   H     0.42236   0.72839   0.36666   0.00000  Uiso   1.00
H271   H     0.47057   0.68485   0.12045   0.00000  Uiso   1.00
H272   H     0.57770   0.77142   0.38570   0.00000  Uiso   1.00
H273   H     0.34066   0.75024   0.30641   0.00000  Uiso   1.00
H274   H     0.46036   0.53042   0.31282   0.00000  Uiso   1.00
H275   H     0.46366   0.96954   0.17556   0.00000  Uiso   1.00
H276   H     0.53999   0.52824   0.18710   0.00000  Uiso   1.00
H277   H     0.53679   0.97207   0.32436   0.00000  Uiso   1.00
H278   H     0.52836   0.81614   0.03887   0.00000  Uiso   1.00
H279   H     0.42132   0.72961   0.45493   0.00000  Uiso   1.00
H280   H     0.52952   0.81518   0.12753   0.00000  Uiso   1.00
N281   N     0.50000   0.75001   0.12935   0.00000  Uiso   1.00
N282   N     0.50000   0.74999   0.37066   0.00000  Uiso   1.00
O283   O     0.50000   0.68573   0.29072   0.00000  Uiso   1.00
O284   O     0.50000   0.81428   0.20929   0.00000  Uiso   1.00
O285   O     0.50000   0.68573   0.20928   0.00000  Uiso   1.00
O286   O     0.50000   0.81427   0.29072   0.00000  Uiso   1.00
O287   O     0.42495   0.75000   0.28132   0.00000  Uiso   1.00
O288   O     0.57505   0.75001   0.21868   0.00000  Uiso   1.00
O289   O     0.42495   0.75000   0.19989   0.00000  Uiso   1.00
O290   O     0.57505   0.75000   0.30012   0.00000  Uiso   1.00
C291   C     0.83404   0.66489   0.24990   0.00000  Uiso   1.00
C292   C     0.87880   0.76124   0.45196   0.00000  Uiso   1.00
C293   C     0.83399   0.74900   0.02737   0.00000  Uiso   1.00
C294   C     0.83451   0.74943   0.47292   0.00000  Uiso   1.00
C295   C     0.73456   0.74998   0.23755   0.00000  Uiso   1.00
C296   C     0.93211   0.75002   0.26245   0.00000  Uiso   1.00
C297   C     0.67929   0.74994   0.23068   0.00000  Uiso   1.00
C298   C     0.98736   0.75007   0.26933   0.00000  Uiso   1.00
C299   C     0.81144   0.54766   0.28529   0.00000  Uiso   1.00
C300   C     0.81333   0.95236   0.20826   0.00000  Uiso   1.00
C301   C     0.81177   0.59352   0.28517   0.00000  Uiso   1.00
C302   C     0.83405   0.83514   0.25029   0.00000  Uiso   1.00
C303   C     0.81364   0.90651   0.20850   0.00000  Uiso   1.00
C304   C     0.83446   0.61649   0.24952   0.00000  Uiso   1.00
C305   C     0.83450   0.88360   0.25076   0.00000  Uiso   1.00
C306   C     0.85704   0.59248   0.21397   0.00000  Uiso   1.00
C307   C     0.85527   0.90774   0.29284   0.00000  Uiso   1.00
C308   C     0.85565   0.54657   0.21410   0.00000  Uiso   1.00
C309   C     0.85387   0.95365   0.29224   0.00000  Uiso   1.00
C310   C     0.83307   0.52414   0.24966   0.00000  Uiso   1.00
C311   C     0.83310   0.97598   0.25012   0.00000  Uiso   1.00
C312   C     0.84957   0.78652   0.05582   0.00000  Uiso   1.00
C313   C     0.78987   0.73826   0.44085   0.00000  Uiso   1.00
C314   C     0.84965   0.78618   0.10657   0.00000  Uiso   1.00
C315   C     0.79026   0.73811   0.39016   0.00000  Uiso   1.00
C316   C     0.81709   0.71341   0.10253   0.00000  Uiso   1.00
C317   C     0.87694   0.76180   0.40092   0.00000  Uiso   1.00
C318   C     0.81767   0.71179   0.05180   0.00000  Uiso   1.00
Cl319  Cl    0.89018   0.61777   0.17022   0.00000  Uiso   1.00
Cl320  Cl    0.88602   0.88274   0.34644   0.00000  Uiso   1.00
Cl321  Cl    0.80025   0.66184   0.02109   0.00000  Uiso   1.00
Cl322  Cl    0.93806   0.77325   0.48788   0.00000  Uiso   1.00
Cu323  Cu    0.83333   0.75000   0.29822   0.00000  Uiso   1.00
Cu324  Cu    0.83333   0.75001   0.20179   0.00000  Uiso   1.00
F325   F     0.78894   0.61530   0.31941   0.00000  Uiso   1.00
F326   F     0.79257   0.88472   0.16760   0.00000  Uiso   1.00
H327   H     0.99263   0.74980   0.19360   0.00000  Uiso   1.00
H328   H     0.75569   0.72839   0.36666   0.00000  Uiso   1.00
H329   H     0.80391   0.68485   0.12045   0.00000  Uiso   1.00
H330   H     0.91103   0.77142   0.38570   0.00000  Uiso   1.00
H331   H     0.67399   0.75024   0.30641   0.00000  Uiso   1.00
H332   H     0.79369   0.53042   0.31282   0.00000  Uiso   1.00
H333   H     0.79699   0.96954   0.17556   0.00000  Uiso   1.00
H334   H     0.87332   0.52824   0.18710   0.00000  Uiso   1.00
H335   H     0.87012   0.97207   0.32436   0.00000  Uiso   1.00
H336   H     0.86169   0.81614   0.03887   0.00000  Uiso   1.00
H337   H     0.75465   0.72961   0.45493   0.00000  Uiso   1.00
H338   H     0.86285   0.81518   0.12753   0.00000  Uiso   1.00
N339   N     0.83333   0.75001   0.12935   0.00000  Uiso   1.00
N340   N     0.83333   0.74999   0.37066   0.00000  Uiso   1.00
O341   O     0.83334   0.68573   0.29072   0.00000  Uiso   1.00
O342   O     0.83333   0.81428   0.20929   0.00000  Uiso   1.00
O343   O     0.83334   0.68573   0.20928   0.00000  Uiso   1.00
O344   O     0.83333   0.81427   0.29072   0.00000  Uiso   1.00
O345   O     0.75828   0.75000   0.28132   0.00000  Uiso   1.00
O346   O     0.90839   0.75001   0.21868   0.00000  Uiso   1.00
O347   O     0.75828   0.75000   0.19989   0.00000  Uiso   1.00
O348   O     0.90839   0.75000   0.30012   0.00000  Uiso   1.00
C349   C     0.16737   0.16489   0.74990   0.00000  Uiso   1.00
C350   C     0.21213   0.26124   0.95196   0.00000  Uiso   1.00
C351   C     0.16733   0.24900   0.52737   0.00000  Uiso   1.00
C352   C     0.16784   0.24943   0.97292   0.00000  Uiso   1.00
C353   C     0.06789   0.24998   0.73755   0.00000  Uiso   1.00
C354   C     0.26544   0.25002   0.76245   0.00000  Uiso   1.00
C355   C     0.01262   0.24994   0.73068   0.00000  Uiso   1.00
C356   C     0.32070   0.25007   0.76933   0.00000  Uiso   1.00
C357   C     0.14477   0.04766   0.78529   0.00000  Uiso   1.00
C358   C     0.14666   0.45236   0.70826   0.00000  Uiso   1.00
C359   C     0.14510   0.09352   0.78517   0.00000  Uiso   1.00
C360   C     0.16738   0.33514   0.75029   0.00000  Uiso   1.00
C361   C     0.14698   0.40651   0.70850   0.00000  Uiso   1.00
C362   C     0.16779   0.11649   0.74952   0.00000  Uiso   1.00
C363   C     0.16783   0.38360   0.75076   0.00000  Uiso   1.00
C364   C     0.19037   0.09248   0.71397   0.00000  Uiso   1.00
C365   C     0.18861   0.40774   0.79284   0.00000  Uiso   1.00
C366   C     0.18898   0.04657   0.71410   0.00000  Uiso   1.00
C367   C     0.18720   0.45365   0.79224   0.00000  Uiso   1.00
C368   C     0.16640   0.02414   0.74966   0.00000  Uiso   1.00
C369   C     0.16643   0.47598   0.75012   0.00000  Uiso   1.00
C370   C     0.18290   0.28652   0.55582   0.00000  Uiso   1.00
C371   C     0.12320   0.23826   0.94085   0.00000  Uiso   1.00
C372   C     0.18299   0.28618   0.60657   0.00000  Uiso   1.00
C373   C     0.12360   0.23811   0.89016   0.00000  Uiso   1.00
C374   C     0.15042   0.21341   0.60253   0.00000  Uiso   1.00
C375   C     0.21027   0.26180   0.90092   0.00000  Uiso   1.00
C376   C     0.15101   0.21179   0.55180   0.00000  Uiso   1.00
Cl377  Cl    0.22351   0.11777   0.67022   0.00000  Uiso   1.00
Cl378  Cl    0.21935   0.38274   0.84644   0.00000  Uiso   1.00
Cl379  Cl    0.13358   0.16184   0.52109   0.00000  Uiso   1.00
Cl380  Cl    0.27139   0.27325   0.98788   0.00000  Uiso   1.00
Cu381  Cu    0.16667   0.25000   0.79822   0.00000  Uiso   1.00
Cu382  Cu    0.16667   0.25001   0.70179   0.00000  Uiso   1.00
F383   F     0.12228   0.11530   0.81941   0.00000  Uiso   1.00
F384   F     0.12590   0.38472   0.66760   0.00000  Uiso   1.00
H385   H     0.32597   0.24980   0.69360   0.00000  Uiso   1.00
H386   H     0.08903   0.22839   0.86666   0.00000  Uiso   1.00
H387   H     0.13724   0.18485   0.62045   0.00000  Uiso   1.00
H388   H     0.24436   0.27142   0.88570   0.00000  Uiso   1.00
H389   H     0.00732   0.25024   0.80641   0.00000  Uiso   1.00
H390   H     0.12702   0.03042   0.81282   0.00000  Uiso   1.00
H391   H     0.13032   0.46954   0.67556   0.00000  Uiso   1.00
H392   H     0.20665   0.02824   0.68710   0.00000  Uiso   1.00
H393   H     0.20345   0.47207   0.82436   0.00000  Uiso   1.00
H394   H     0.19502   0.31614   0.53887   0.00000  Uiso   1.00
H395   H     0.08799   0.22961   0.95493   0.00000  Uiso   1.00
H396   H     0.19618   0.31518   0.62753   0.00000  Uiso   1.00
N397   N     0.16667   0.25001   0.62935   0.00000  Uiso   1.00
N398   N     0.16667   0.24999   0.87066   0.00000  Uiso   1.00
O399   O     0.16667   0.18573   0.79072   0.00000  Uiso   1.00
O400   O     0.16666   0.31428   0.70929   0.00000  Uiso   1.00
O401   O     0.16667   0.18573   0.70928   0.00000  Uiso   1.00
O402   O     0.16666   0.31427   0.79072   0.00000  Uiso   1.00
O403   O     0.09161   0.25000   0.78132   0.00000  Uiso   1.00
O404   O     0.24172   0.25001   0.71868   0.00000  Uiso   1.00
O405   O     0.09161   0.25000   0.69989   0.00000  Uiso   1.00
O406   O     0.24172   0.25000   0.80012   0.00000  Uiso   1.00
C407   C     0.50071   0.16489   0.74990   0.00000  Uiso   1.00
C408   C     0.54546   0.26124   0.95196   0.00000  Uiso   1.00
C409   C     0.50066   0.24900   0.52737   0.00000  Uiso   1.00
C410   C     0.50117   0.24943   0.97292   0.00000  Uiso   1.00
C411   C     0.40122   0.24998   0.73755   0.00000  Uiso   1.00
C412   C     0.59877   0.25002   0.76245   0.00000  Uiso   1.00
C413   C     0.34595   0.24994   0.73068   0.00000  Uiso   1.00
C414   C     0.65403   0.25007   0.76933   0.00000  Uiso   1.00
C415   C     0.47810   0.04766   0.78529   0.00000  Uiso   1.00
C416   C     0.47999   0.45236   0.70826   0.00000  Uiso   1.00
C417   C     0.47843   0.09352   0.78517   0.00000  Uiso   1.00
C418   C     0.50072   0.33514   0.75029   0.00000  Uiso   1.00
C419   C     0.48031   0.40651   0.70850   0.00000  Uiso   1.00
C420   C     0.50112   0.11649   0.74952   0.00000  Uiso   1.00
C421   C     0.50116   0.38360   0.75076   0.00000  Uiso   1.00
C422   C     0.52371   0.09248   0.71397   0.00000  Uiso   1.00
C423   C     0.52194   0.40774   0.79284   0.00000  Uiso   1.00
C424   C     0.52231   0.04657   0.71410   0.00000  Uiso   1.00
C425   C     0.52054   0.45365   0.79224   0.00000  Uiso   1.00
C426   C     0.49973   0.02414   0.74966   0.00000  Uiso   1.00
C427   C     0.49977   0.47598   0.75012   0.00000  Uiso   1.00
C428   C     0.51623   0.28652   0.55582   0.00000  Uiso   1.00
C429   C     0.45654   0.23826   0.94085   0.00000  Uiso   1.00
C430   C     0.51632   0.28618   0.60657   0.00000  Uiso   1.00
C431   C     0.45693   0.23811   0.89016   0.00000  Uiso   1.00
C432   C     0.48376   0.21341   0.60253   0.00000  Uiso   1.00
C433   C     0.54360   0.26180   0.90092   0.00000  Uiso   1.00
C434   C     0.48434   0.21179   0.55180   0.00000  Uiso   1.00
Cl435  Cl    0.55684   0.11777   0.67022   0.00000  Uiso   1.00
Cl436  Cl    0.55269   0.38274   0.84644   0.00000  Uiso   1.00
Cl437  Cl    0.46691   0.16184   0.52109   0.00000  Uiso   1.00
Cl438  Cl    0.60472   0.27325   0.98788   0.00000  Uiso   1.00
Cu439  Cu    0.50000   0.25000   0.79822   0.00000  Uiso   1.00
Cu440  Cu    0.50000   0.25001   0.70179   0.00000  Uiso   1.00
F441   F     0.45561   0.11530   0.81941   0.00000  Uiso   1.00
F442   F     0.45924   0.38472   0.66760   0.00000  Uiso   1.00
H443   H     0.65930   0.24980   0.69360   0.00000  Uiso   1.00
H444   H     0.42236   0.22839   0.86666   0.00000  Uiso   1.00
H445   H     0.47057   0.18485   0.62045   0.00000  Uiso   1.00
H446   H     0.57770   0.27142   0.88570   0.00000  Uiso   1.00
H447   H     0.34066   0.25024   0.80641   0.00000  Uiso   1.00
H448   H     0.46036   0.03042   0.81282   0.00000  Uiso   1.00
H449   H     0.46366   0.46954   0.67556   0.00000  Uiso   1.00
H450   H     0.53999   0.02824   0.68710   0.00000  Uiso   1.00
H451   H     0.53679   0.47207   0.82436   0.00000  Uiso   1.00
H452   H     0.52836   0.31614   0.53887   0.00000  Uiso   1.00
H453   H     0.42132   0.22961   0.95493   0.00000  Uiso   1.00
H454   H     0.52952   0.31518   0.62753   0.00000  Uiso   1.00
N455   N     0.50000   0.25001   0.62935   0.00000  Uiso   1.00
N456   N     0.50000   0.24999   0.87066   0.00000  Uiso   1.00
O457   O     0.50000   0.18573   0.79072   0.00000  Uiso   1.00
O458   O     0.50000   0.31428   0.70929   0.00000  Uiso   1.00
O459   O     0.50000   0.18573   0.70928   0.00000  Uiso   1.00
O460   O     0.50000   0.31427   0.79072   0.00000  Uiso   1.00
O461   O     0.42495   0.25000   0.78132   0.00000  Uiso   1.00
O462   O     0.57505   0.25001   0.71868   0.00000  Uiso   1.00
O463   O     0.42495   0.25000   0.69989   0.00000  Uiso   1.00
O464   O     0.57505   0.25000   0.80012   0.00000  Uiso   1.00
C465   C     0.83404   0.16489   0.74990   0.00000  Uiso   1.00
C466   C     0.87880   0.26124   0.95196   0.00000  Uiso   1.00
C467   C     0.83399   0.24900   0.52737   0.00000  Uiso   1.00
C468   C     0.83451   0.24943   0.97292   0.00000  Uiso   1.00
C469   C     0.73456   0.24998   0.73755   0.00000  Uiso   1.00
C470   C     0.93211   0.25002   0.76245   0.00000  Uiso   1.00
C471   C     0.67929   0.24994   0.73068   0.00000  Uiso   1.00
C472   C     0.98736   0.25007   0.76933   0.00000  Uiso   1.00
C473   C     0.81144   0.04766   0.78529   0.00000  Uiso   1.00
C474   C     0.81333   0.45236   0.70826   0.00000  Uiso   1.00
C475   C     0.81177   0.09352   0.78517   0.00000  Uiso   1.00
C476   C     0.83405   0.33514   0.75029   0.00000  Uiso   1.00
C477   C     0.81364   0.40651   0.70850   0.00000  Uiso   1.00
C478   C     0.83446   0.11649   0.74952   0.00000  Uiso   1.00
C479   C     0.83450   0.38360   0.75076   0.00000  Uiso   1.00
C480   C     0.85704   0.09248   0.71397   0.00000  Uiso   1.00
C481   C     0.85527   0.40774   0.79284   0.00000  Uiso   1.00
C482   C     0.85565   0.04657   0.71410   0.00000  Uiso   1.00
C483   C     0.85387   0.45365   0.79224   0.00000  Uiso   1.00
C484   C     0.83307   0.02414   0.74966   0.00000  Uiso   1.00
C485   C     0.83310   0.47598   0.75012   0.00000  Uiso   1.00
C486   C     0.84957   0.28652   0.55582   0.00000  Uiso   1.00
C487   C     0.78987   0.23826   0.94085   0.00000  Uiso   1.00
C488   C     0.84965   0.28618   0.60657   0.00000  Uiso   1.00
C489   C     0.79026   0.23811   0.89016   0.00000  Uiso   1.00
C490   C     0.81709   0.21341   0.60253   0.00000  Uiso   1.00
C491   C     0.87694   0.26180   0.90092   0.00000  Uiso   1.00
C492   C     0.81767   0.21179   0.55180   0.00000  Uiso   1.00
Cl493  Cl    0.89018   0.11777   0.67022   0.00000  Uiso   1.00
Cl494  Cl    0.88602   0.38274   0.84644   0.00000  Uiso   1.00
Cl495  Cl    0.80025   0.16184   0.52109   0.00000  Uiso   1.00
Cl496  Cl    0.93806   0.27325   0.98788   0.00000  Uiso   1.00
Cu497  Cu    0.83333   0.25000   0.79822   0.00000  Uiso   1.00
Cu498  Cu    0.83333   0.25001   0.70179   0.00000  Uiso   1.00
F499   F     0.78894   0.11530   0.81941   0.00000  Uiso   1.00
F500   F     0.79257   0.38472   0.66760   0.00000  Uiso   1.00
H501   H     0.99263   0.24980   0.69360   0.00000  Uiso   1.00
H502   H     0.75569   0.22839   0.86666   0.00000  Uiso   1.00
H503   H     0.80391   0.18485   0.62045   0.00000  Uiso   1.00
H504   H     0.91103   0.27142   0.88570   0.00000  Uiso   1.00
H505   H     0.67399   0.25024   0.80641   0.00000  Uiso   1.00
H506   H     0.79369   0.03042   0.81282   0.00000  Uiso   1.00
H507   H     0.79699   0.46954   0.67556   0.00000  Uiso   1.00
H508   H     0.87332   0.02824   0.68710   0.00000  Uiso   1.00
H509   H     0.87012   0.47207   0.82436   0.00000  Uiso   1.00
H510   H     0.86169   0.31614   0.53887   0.00000  Uiso   1.00
H511   H     0.75465   0.22961   0.95493   0.00000  Uiso   1.00
H512   H     0.86285   0.31518   0.62753   0.00000  Uiso   1.00
N513   N     0.83333   0.25001   0.62935   0.00000  Uiso   1.00
N514   N     0.83333   0.24999   0.87066   0.00000  Uiso   1.00
O515   O     0.83334   0.18573   0.79072   0.00000  Uiso   1.00
O516   O     0.83333   0.31428   0.70929   0.00000  Uiso   1.00
O517   O     0.83334   0.18573   0.70928   0.00000  Uiso   1.00
O518   O     0.83333   0.31427   0.79072   0.00000  Uiso   1.00
O519   O     0.75828   0.25000   0.78132   0.00000  Uiso   1.00
O520   O     0.90839   0.25001   0.71868   0.00000  Uiso   1.00
O521   O     0.75828   0.25000   0.69989   0.00000  Uiso   1.00
O522   O     0.90839   0.25000   0.80012   0.00000  Uiso   1.00
C523   C     0.16737   0.66489   0.74990   0.00000  Uiso   1.00
C524   C     0.21213   0.76124   0.95196   0.00000  Uiso   1.00
C525   C     0.16733   0.74900   0.52737   0.00000  Uiso   1.00
C526   C     0.16784   0.74943   0.97292   0.00000  Uiso   1.00
C527   C     0.06789   0.74998   0.73755   0.00000  Uiso   1.00
C528   C     0.26544   0.75002   0.76245   0.00000  Uiso   1.00
C529   C     0.01262   0.74994   0.73068   0.00000  Uiso   1.00
C530   C     0.32070   0.75007   0.76933   0.00000  Uiso   1.00
C531   C     0.14477   0.54766   0.78529   0.00000  Uiso   1.00
C532   C     0.14666   0.95236   0.70826   0.00000  Uiso   1.00
C533   C     0.14510   0.59352   0.78517   0.00000  Uiso   1.00
C534   C     0.16738   0.83514   0.75029   0.00000  Uiso   1.00
C535   C     0.14698   0.90651   0.70850   0.00000  Uiso   1.00
C536   C     0.16779   0.61649   0.74952   0.00000  Uiso   1.00
C537   C     0.16783   0.88360   0.75076   0.00000  Uiso   1.00
C538   C     0.19037   0.59248   0.71397   0.00000  Uiso   1.00
C539   C     0.18861   0.90774   0.79284   0.00000  Uiso   1.00
C540   C     0.18898   0.54657   0.71410   0.00000  Uiso   1.00
C541   C     0.18720   0.95365   0.79224   0.00000  Uiso   1.00
C542   C     0.16640   0.52414   0.74966   0.00000  Uiso   1.00
C543   C     0.16643   0.97598   0.75012   0.00000  Uiso   1.00
C544   C     0.18290   0.78652   0.55582   0.00000  Uiso   1.00
C545   C     0.12320   0.73826   0.94085   0.00000  Uiso   1.00
C546   C     0.18299   0.78618   0.60657   0.00000  Uiso   1.00
C547   C     0.12360   0.73811   0.89016   0.00000  Uiso   1.00
C548   C     0.15042   0.71341   0.60253   0.00000  Uiso   1.00
C549   C     0.21027   0.76180   0.90092   0.00000  Uiso   1.00
C550   C     0.15101   0.71179   0.55180   0.00000  Uiso   1.00
Cl551  Cl    0.22351   0.61777   0.67022   0.00000  Uiso   1.00
Cl552  Cl    0.21935   0.88274   0.84644   0.00000  Uiso   1.00
Cl553  Cl    0.13358   0.66184   0.52109   0.00000  Uiso   1.00
Cl554  Cl    0.27139   0.77325   0.98788   0.00000  Uiso   1.00
Cu555  Cu    0.16667   0.75000   0.79822   0.00000  Uiso   1.00
Cu556  Cu    0.16667   0.75001   0.70179   0.00000  Uiso   1.00
F557   F     0.12228   0.61530   0.81941   0.00000  Uiso   1.00
F558   F     0.12590   0.88472   0.66760   0.00000  Uiso   1.00
H559   H     0.32597   0.74980   0.69360   0.00000  Uiso   1.00
H560   H     0.08903   0.72839   0.86666   0.00000  Uiso   1.00
H561   H     0.13724   0.68485   0.62045   0.00000  Uiso   1.00
H562   H     0.24436   0.77142   0.88570   0.00000  Uiso   1.00
H563   H     0.00732   0.75024   0.80641   0.00000  Uiso   1.00
H564   H     0.12702   0.53042   0.81282   0.00000  Uiso   1.00
H565   H     0.13032   0.96954   0.67556   0.00000  Uiso   1.00
H566   H     0.20665   0.52824   0.68710   0.00000  Uiso   1.00
H567   H     0.20345   0.97207   0.82436   0.00000  Uiso   1.00
H568   H     0.19502   0.81614   0.53887   0.00000  Uiso   1.00
H569   H     0.08799   0.72961   0.95493   0.00000  Uiso   1.00
H570   H     0.19618   0.81518   0.62753   0.00000  Uiso   1.00
N571   N     0.16667   0.75001   0.62935   0.00000  Uiso   1.00
N572   N     0.16667   0.74999   0.87066   0.00000  Uiso   1.00
O573   O     0.16667   0.68573   0.79072   0.00000  Uiso   1.00
O574   O     0.16666   0.81428   0.70929   0.00000  Uiso   1.00
O575   O     0.16667   0.68573   0.70928   0.00000  Uiso   1.00
O576   O     0.16666   0.81427   0.79072   0.00000  Uiso   1.00
O577   O     0.09161   0.75000   0.78132   0.00000  Uiso   1.00
O578   O     0.24172   0.75001   0.71868   0.00000  Uiso   1.00
O579   O     0.09161   0.75000   0.69989   0.00000  Uiso   1.00
O580   O     0.24172   0.75000   0.80012   0.00000  Uiso   1.00
C581   C     0.50071   0.66489   0.74990   0.00000  Uiso   1.00
C582   C     0.54546   0.76124   0.95196   0.00000  Uiso   1.00
C583   C     0.50066   0.74900   0.52737   0.00000  Uiso   1.00
C584   C     0.50117   0.74943   0.97292   0.00000  Uiso   1.00
C585   C     0.40122   0.74998   0.73755   0.00000  Uiso   1.00
C586   C     0.59877   0.75002   0.76245   0.00000  Uiso   1.00
C587   C     0.34595   0.74994   0.73068   0.00000  Uiso   1.00
C588   C     0.65403   0.75007   0.76933   0.00000  Uiso   1.00
C589   C     0.47810   0.54766   0.78529   0.00000  Uiso   1.00
C590   C     0.47999   0.95236   0.70826   0.00000  Uiso   1.00
C591   C     0.47843   0.59352   0.78517   0.00000  Uiso   1.00
C592   C     0.50072   0.83514   0.75029   0.00000  Uiso   1.00
C593   C     0.48031   0.90651   0.70850   0.00000  Uiso   1.00
C594   C     0.50112   0.61649   0.74952   0.00000  Uiso   1.00
C595   C     0.50116   0.88360   0.75076   0.00000  Uiso   1.00
C596   C     0.52371   0.59248   0.71397   0.00000  Uiso   1.00
C597   C     0.52194   0.90774   0.79284   0.00000  Uiso   1.00
C598   C     0.52231   0.54657   0.71410   0.00000  Uiso   1.00
C599   C     0.52054   0.95365   0.79224   0.00000  Uiso   1.00
C600   C     0.49973   0.52414   0.74966   0.00000  Uiso   1.00
C601   C     0.49977   0.97598   0.75012   0.00000  Uiso   1.00
C602   C     0.51623   0.78652   0.55582   0.00000  Uiso   1.00
C603   C     0.45654   0.73826   0.94085   0.00000  Uiso   1.00
C604   C     0.51632   0.78618   0.60657   0.00000  Uiso   1.00
C605   C     0.45693   0.73811   0.89016   0.00000  Uiso   1.00
C606   C     0.48376   0.71341   0.60253   0.00000  Uiso   1.00
C607   C     0.54360   0.76180   0.90092   0.00000  Uiso   1.00
C608   C     0.48434   0.71179   0.55180   0.00000  Uiso   1.00
Cl609  Cl    0.55684   0.61777   0.67022   0.00000  Uiso   1.00
Cl610  Cl    0.55269   0.88274   0.84644   0.00000  Uiso   1.00
Cl611  Cl    0.46691   0.66184   0.52109   0.00000  Uiso   1.00
Cl612  Cl    0.60472   0.77325   0.98788   0.00000  Uiso   1.00
Cu613  Cu    0.50000   0.75000   0.79822   0.00000  Uiso   1.00
Cu614  Cu    0.50000   0.75001   0.70179   0.00000  Uiso   1.00
F615   F     0.45561   0.61530   0.81941   0.00000  Uiso   1.00
F616   F     0.45924   0.88472   0.66760   0.00000  Uiso   1.00
H617   H     0.65930   0.74980   0.69360   0.00000  Uiso   1.00
H618   H     0.42236   0.72839   0.86666   0.00000  Uiso   1.00
H619   H     0.47057   0.68485   0.62045   0.00000  Uiso   1.00
H620   H     0.57770   0.77142   0.88570   0.00000  Uiso   1.00
H621   H     0.34066   0.75024   0.80641   0.00000  Uiso   1.00
H622   H     0.46036   0.53042   0.81282   0.00000  Uiso   1.00
H623   H     0.46366   0.96954   0.67556   0.00000  Uiso   1.00
H624   H     0.53999   0.52824   0.68710   0.00000  Uiso   1.00
H625   H     0.53679   0.97207   0.82436   0.00000  Uiso   1.00
H626   H     0.52836   0.81614   0.53887   0.00000  Uiso   1.00
H627   H     0.42132   0.72961   0.95493   0.00000  Uiso   1.00
H628   H     0.52952   0.81518   0.62753   0.00000  Uiso   1.00
N629   N     0.50000   0.75001   0.62935   0.00000  Uiso   1.00
N630   N     0.50000   0.74999   0.87066   0.00000  Uiso   1.00
O631   O     0.50000   0.68573   0.79072   0.00000  Uiso   1.00
O632   O     0.50000   0.81428   0.70929   0.00000  Uiso   1.00
O633   O     0.50000   0.68573   0.70928   0.00000  Uiso   1.00
O634   O     0.50000   0.81427   0.79072   0.00000  Uiso   1.00
O635   O     0.42495   0.75000   0.78132   0.00000  Uiso   1.00
O636   O     0.57505   0.75001   0.71868   0.00000  Uiso   1.00
O637   O     0.42495   0.75000   0.69989   0.00000  Uiso   1.00
O638   O     0.57505   0.75000   0.80012   0.00000  Uiso   1.00
C639   C     0.83404   0.66489   0.74990   0.00000  Uiso   1.00
C640   C     0.87880   0.76124   0.95196   0.00000  Uiso   1.00
C641   C     0.83399   0.74900   0.52737   0.00000  Uiso   1.00
C642   C     0.83451   0.74943   0.97292   0.00000  Uiso   1.00
C643   C     0.73456   0.74998   0.73755   0.00000  Uiso   1.00
C644   C     0.93211   0.75002   0.76245   0.00000  Uiso   1.00
C645   C     0.67929   0.74994   0.73068   0.00000  Uiso   1.00
C646   C     0.98736   0.75007   0.76933   0.00000  Uiso   1.00
C647   C     0.81144   0.54766   0.78529   0.00000  Uiso   1.00
C648   C     0.81333   0.95236   0.70826   0.00000  Uiso   1.00
C649   C     0.81177   0.59352   0.78517   0.00000  Uiso   1.00
C650   C     0.83405   0.83514   0.75029   0.00000  Uiso   1.00
C651   C     0.81364   0.90651   0.70850   0.00000  Uiso   1.00
C652   C     0.83446   0.61649   0.74952   0.00000  Uiso   1.00
C653   C     0.83450   0.88360   0.75076   0.00000  Uiso   1.00
C654   C     0.85704   0.59248   0.71397   0.00000  Uiso   1.00
C655   C     0.85527   0.90774   0.79284   0.00000  Uiso   1.00
C656   C     0.85565   0.54657   0.71410   0.00000  Uiso   1.00
C657   C     0.85387   0.95365   0.79224   0.00000  Uiso   1.00
C658   C     0.83307   0.52414   0.74966   0.00000  Uiso   1.00
C659   C     0.83310   0.97598   0.75012   0.00000  Uiso   1.00
C660   C     0.84957   0.78652   0.55582   0.00000  Uiso   1.00
C661   C     0.78987   0.73826   0.94085   0.00000  Uiso   1.00
C662   C     0.84965   0.78618   0.60657   0.00000  Uiso   1.00
C663   C     0.79026   0.73811   0.89016   0.00000  Uiso   1.00
C664   C     0.81709   0.71341   0.60253   0.00000  Uiso   1.00
C665   C     0.87694   0.76180   0.90092   0.00000  Uiso   1.00
C666   C     0.81767   0.71179   0.55180   0.00000  Uiso   1.00
Cl667  Cl    0.89018   0.61777   0.67022   0.00000  Uiso   1.00
Cl668  Cl    0.88602   0.88274   0.84644   0.00000  Uiso   1.00
Cl669  Cl    0.80025   0.66184   0.52109   0.00000  Uiso   1.00
Cl670  Cl    0.93806   0.77325   0.98788   0.00000  Uiso   1.00
Cu671  Cu    0.83333   0.75000   0.79822   0.00000  Uiso   1.00
Cu672  Cu    0.83333   0.75001   0.70179   0.00000  Uiso   1.00
F673   F     0.78894   0.61530   0.81941   0.00000  Uiso   1.00
F674   F     0.79257   0.88472   0.66760   0.00000  Uiso   1.00
H675   H     0.99263   0.74980   0.69360   0.00000  Uiso   1.00
H676   H     0.75569   0.72839   0.86666   0.00000  Uiso   1.00
H677   H     0.80391   0.68485   0.62045   0.00000  Uiso   1.00
H678   H     0.91103   0.77142   0.88570   0.00000  Uiso   1.00
H679   H     0.67399   0.75024   0.80641   0.00000  Uiso   1.00
H680   H     0.79369   0.53042   0.81282   0.00000  Uiso   1.00
H681   H     0.79699   0.96954   0.67556   0.00000  Uiso   1.00
H682   H     0.87332   0.52824   0.68710   0.00000  Uiso   1.00
H683   H     0.87012   0.97207   0.82436   0.00000  Uiso   1.00
H684   H     0.86169   0.81614   0.53887   0.00000  Uiso   1.00
H685   H     0.75465   0.72961   0.95493   0.00000  Uiso   1.00
H686   H     0.86285   0.81518   0.62753   0.00000  Uiso   1.00
N687   N     0.83333   0.75001   0.62935   0.00000  Uiso   1.00
N688   N     0.83333   0.74999   0.87066   0.00000  Uiso   1.00
O689   O     0.83334   0.68573   0.79072   0.00000  Uiso   1.00
O690   O     0.83333   0.81428   0.70929   0.00000  Uiso   1.00
O691   O     0.83334   0.68573   0.70928   0.00000  Uiso   1.00
O692   O     0.83333   0.81427   0.79072   0.00000  Uiso   1.00
O693   O     0.75828   0.75000   0.78132   0.00000  Uiso   1.00
O694   O     0.90839   0.75001   0.71868   0.00000  Uiso   1.00
O695   O     0.75828   0.75000   0.69989   0.00000  Uiso   1.00
O696   O     0.90839   0.75000   0.80012   0.00000  Uiso   1.00
loop_
_geom_bond_atom_site_label_1
_geom_bond_atom_site_label_2
_geom_bond_distance
_geom_bond_site_symmetry_2
_ccdc_geom_bond_type
C1     O51     1.295   .     A
C1     O53     1.292   .     A
C1     C14     1.466   .     S
C2     C4      1.414   .     A
C2     C27     1.410   .     A
C2     Cl32    1.761   .     S
C3     C28     1.414   .     A
C3     C22     1.407   .     A
C3     C352    1.512   1_554 S
C4     C23     1.407   .     A
C4     C351    1.512   .     S
C5     O57     1.287   .     A
C5     C7      1.434   .     S
C5     O55     1.285   .     A
C6     O58     1.287   .     A
C6     C8      1.434   .     S
C6     O56     1.285   .     A
C7     C124    1.335   1_455 S
C7     H153    1.087   1_455 S
C8     C65     1.335   .     S
C8     H99     1.087   .     S
C9     C11     1.389   .     A
C9     C20     1.397   .     A
C9     H42     1.084   .     S
C10    C21     1.397   .     A
C10    H43     1.084   .     S
C10    C13     1.389   .     A
C11    F35     1.358   .     S
C11    C14     1.409   .     A
C12    O52     1.296   .     A
C12    C15     1.468   .     S
C12    O54     1.293   .     A
C13    C15     1.409   .     A
C13    F36     1.358   .     S
C14    C16     1.416   .     A
C15    C17     1.416   .     A
C16    Cl29    1.764   .     S
C16    C18     1.392   .     A
C17    Cl30    1.765   .     S
C17    C19     1.392   .     A
C18    H44     1.084   .     S
C18    C20     1.397   .     A
C19    H45     1.084   .     S
C19    C21     1.397   .     A
C20    C195    1.459   1_545 S
C21    C194    1.459   .     S
C22    C24     1.407   .     A
C22    H46     1.083   .     S
C23    C25     1.407   .     A
C23    H47     1.083   .     S
C24    N49     1.365   .     A
C24    H48     1.080   .     S
C25    H38     1.080   .     S
C25    N50     1.366   .     A
C26    C28     1.409   .     A
C26    H39     1.080   .     S
C26    N49     1.366   .     A
C27    N50     1.366   .     A
C27    H40     1.080   .     S
C28    Cl31    1.761   .     S
Cu33   O55     1.957   .     S
Cu33   O51     1.957   .     S
Cu33   Cu34    2.674   .     S
Cu33   O58     1.960   .     S
Cu33   O54     1.960   .     S
Cu33   N50     2.008   .     S
Cu34   O57     1.960   .     S
Cu34   O56     1.957   .     S
Cu34   O53     1.960   .     S
Cu34   N49     2.008   .     S
Cu34   O52     1.957   .     S
H37    C65     1.087   .     S
H41    C124    1.087   1_455 S
C59    O109    1.295   .     A
C59    O111    1.292   .     A
C59    C72     1.466   .     S
C60    C62     1.414   .     A
C60    C85     1.410   .     A
C60    Cl90    1.761   .     S
C61    C86     1.414   .     A
C61    C80     1.407   .     A
C61    C410    1.512   1_554 S
C62    C81     1.407   .     A
C62    C409    1.512   .     S
C63    O115    1.287   .     A
C63    C65     1.434   .     S
C63    O113    1.285   .     A
C64    O116    1.287   .     A
C64    C66     1.434   .     S
C64    O114    1.285   .     A
C66    C123    1.335   .     S
C66    H157    1.087   .     S
C67    C69     1.389   .     A
C67    C78     1.397   .     A
C67    H100    1.084   .     S
C68    C79     1.397   .     A
C68    H101    1.084   .     S
C68    C71     1.389   .     A
C69    F93     1.358   .     S
C69    C72     1.409   .     A
C70    O110    1.296   .     A
C70    C73     1.468   .     S
C70    O112    1.293   .     A
C71    C73     1.409   .     A
C71    F94     1.358   .     S
C72    C74     1.416   .     A
C73    C75     1.416   .     A
C74    Cl87    1.764   .     S
C74    C76     1.392   .     A
C75    Cl88    1.765   .     S
C75    C77     1.392   .     A
C76    H102    1.084   .     S
C76    C78     1.397   .     A
C77    H103    1.084   .     S
C77    C79     1.397   .     A
C78    C253    1.459   1_545 S
C79    C252    1.459   .     S
C80    C82     1.407   .     A
C80    H104    1.083   .     S
C81    C83     1.407   .     A
C81    H105    1.083   .     S
C82    N107    1.365   .     A
C82    H106    1.080   .     S
C83    H96     1.080   .     S
C83    N108    1.366   .     A
C84    C86     1.409   .     A
C84    H97     1.080   .     S
C84    N107    1.366   .     A
C85    N108    1.366   .     A
C85    H98     1.080   .     S
C86    Cl89    1.761   .     S
Cu91   O113    1.957   .     S
Cu91   O109    1.957   .     S
Cu91   Cu92    2.674   .     S
Cu91   O116    1.960   .     S
Cu91   O112    1.960   .     S
Cu91   N108    2.008   .     S
Cu92   O115    1.960   .     S
Cu92   O114    1.957   .     S
Cu92   O111    1.960   .     S
Cu92   N107    2.008   .     S
Cu92   O110    1.957   .     S
H95    C123    1.087   .     S
C117   O167    1.295   .     A
C117   O169    1.292   .     A
C117   C130    1.466   .     S
C118   C120    1.414   .     A
C118   C143    1.410   .     A
C118   Cl148   1.761   .     S
C119   C144    1.414   .     A
C119   C138    1.407   .     A
C119   C468    1.512   1_554 S
C120   C139    1.407   .     A
C120   C467    1.512   .     S
C121   O173    1.287   .     A
C121   C123    1.434   .     S
C121   O171    1.285   .     A
C122   O174    1.287   .     A
C122   C124    1.434   .     S
C122   O172    1.285   .     A
C124   C7      1.335   1_655 S
C124   H41     1.087   1_655 S
C125   C127    1.389   .     A
C125   C136    1.397   .     A
C125   H158    1.084   .     S
C126   C137    1.397   .     A
C126   H159    1.084   .     S
C126   C129    1.389   .     A
C127   F151    1.358   .     S
C127   C130    1.409   .     A
C128   O168    1.296   .     A
C128   C131    1.468   .     S
C128   O170    1.293   .     A
C129   C131    1.409   .     A
C129   F152    1.358   .     S
C130   C132    1.416   .     A
C131   C133    1.416   .     A
C132   Cl145   1.764   .     S
C132   C134    1.392   .     A
C133   Cl146   1.765   .     S
C133   C135    1.392   .     A
C134   H160    1.084   .     S
C134   C136    1.397   .     A
C135   H161    1.084   .     S
C135   C137    1.397   .     A
C136   C311    1.459   1_545 S
C137   C310    1.459   .     S
C138   C140    1.407   .     A
C138   H162    1.083   .     S
C139   C141    1.407   .     A
C139   H163    1.083   .     S
C140   N165    1.365   .     A
C140   H164    1.080   .     S
C141   H154    1.080   .     S
C141   N166    1.366   .     A
C142   C144    1.409   .     A
C142   H155    1.080   .     S
C142   N165    1.366   .     A
C143   N166    1.366   .     A
C143   H156    1.080   .     S
C144   Cl147   1.761   .     S
Cu149  O171    1.957   .     S
Cu149  O167    1.957   .     S
Cu149  Cu150   2.674   .     S
Cu149  O174    1.960   .     S
Cu149  O170    1.960   .     S
Cu149  N166    2.008   .     S
Cu150  O173    1.960   .     S
Cu150  O172    1.957   .     S
Cu150  O169    1.960   .     S
Cu150  N165    2.008   .     S
Cu150  O168    1.957   .     S
H153   C7      1.087   1_655 S
C175   O225    1.295   .     A
C175   O227    1.292   .     A
C175   C188    1.466   .     S
C176   C178    1.414   .     A
C176   C201    1.410   .     A
C176   Cl206   1.761   .     S
C177   C202    1.414   .     A
C177   C196    1.407   .     A
C177   C526    1.512   1_554 S
C178   C197    1.407   .     A
C178   C525    1.512   .     S
C179   O231    1.287   .     A
C179   C181    1.434   .     S
C179   O229    1.285   .     A
C180   O232    1.287   .     A
C180   C182    1.434   .     S
C180   O230    1.285   .     A
C181   C298    1.335   1_455 S
C181   H327    1.087   1_455 S
C182   C239    1.335   .     S
C182   H273    1.087   .     S
C183   C185    1.389   .     A
C183   C194    1.397   .     A
C183   H216    1.084   .     S
C184   C195    1.397   .     A
C184   H217    1.084   .     S
C184   C187    1.389   .     A
C185   F209    1.358   .     S
C185   C188    1.409   .     A
C186   O226    1.296   .     A
C186   C189    1.468   .     S
C186   O228    1.293   .     A
C187   C189    1.409   .     A
C187   F210    1.358   .     S
C188   C190    1.416   .     A
C189   C191    1.416   .     A
C190   Cl203   1.764   .     S
C190   C192    1.392   .     A
C191   Cl204   1.765   .     S
C191   C193    1.392   .     A
C192   H218    1.084   .     S
C192   C194    1.397   .     A
C193   H219    1.084   .     S
C193   C195    1.397   .     A
C195   C20     1.459   1_565 S
C196   C198    1.407   .     A
C196   H220    1.083   .     S
C197   C199    1.407   .     A
C197   H221    1.083   .     S
C198   N223    1.365   .     A
C198   H222    1.080   .     S
C199   H212    1.080   .     S
C199   N224    1.366   .     A
C200   C202    1.409   .     A
C200   H213    1.080   .     S
C200   N223    1.366   .     A
C201   N224    1.366   .     A
C201   H214    1.080   .     S
C202   Cl205   1.761   .     S
Cu207  O229    1.957   .     S
Cu207  O225    1.957   .     S
Cu207  Cu208   2.674   .     S
Cu207  O232    1.960   .     S
Cu207  O228    1.960   .     S
Cu207  N224    2.008   .     S
Cu208  O231    1.960   .     S
Cu208  O230    1.957   .     S
Cu208  O227    1.960   .     S
Cu208  N223    2.008   .     S
Cu208  O226    1.957   .     S
H211   C239    1.087   .     S
H215   C298    1.087   1_455 S
C233   O283    1.295   .     A
C233   O285    1.292   .     A
C233   C246    1.466   .     S
C234   C236    1.414   .     A
C234   C259    1.410   .     A
C234   Cl264   1.761   .     S
C235   C260    1.414   .     A
C235   C254    1.407   .     A
C235   C584    1.512   1_554 S
C236   C255    1.407   .     A
C236   C583    1.512   .     S
C237   O289    1.287   .     A
C237   C239    1.434   .     S
C237   O287    1.285   .     A
C238   O290    1.287   .     A
C238   C240    1.434   .     S
C238   O288    1.285   .     A
C240   C297    1.335   .     S
C240   H331    1.087   .     S
C241   C243    1.389   .     A
C241   C252    1.397   .     A
C241   H274    1.084   .     S
C242   C253    1.397   .     A
C242   H275    1.084   .     S
C242   C245    1.389   .     A
C243   F267    1.358   .     S
C243   C246    1.409   .     A
C244   O284    1.296   .     A
C244   C247    1.468   .     S
C244   O286    1.293   .     A
C245   C247    1.409   .     A
C245   F268    1.358   .     S
C246   C248    1.416   .     A
C247   C249    1.416   .     A
C248   Cl261   1.764   .     S
C248   C250    1.392   .     A
C249   Cl262   1.765   .     S
C249   C251    1.392   .     A
C250   H276    1.084   .     S
C250   C252    1.397   .     A
C251   H277    1.084   .     S
C251   C253    1.397   .     A
C253   C78     1.459   1_565 S
C254   C256    1.407   .     A
C254   H278    1.083   .     S
C255   C257    1.407   .     A
C255   H279    1.083   .     S
C256   N281    1.365   .     A
C256   H280    1.080   .     S
C257   H270    1.080   .     S
C257   N282    1.366   .     A
C258   C260    1.409   .     A
C258   H271    1.080   .     S
C258   N281    1.366   .     A
C259   N282    1.366   .     A
C259   H272    1.080   .     S
C260   Cl263   1.761   .     S
Cu265  O287    1.957   .     S
Cu265  O283    1.957   .     S
Cu265  Cu266   2.674   .     S
Cu265  O290    1.960   .     S
Cu265  O286    1.960   .     S
Cu265  N282    2.008   .     S
Cu266  O289    1.960   .     S
Cu266  O288    1.957   .     S
Cu266  O285    1.960   .     S
Cu266  N281    2.008   .     S
Cu266  O284    1.957   .     S
H269   C297    1.087   .     S
C291   O341    1.295   .     A
C291   O343    1.292   .     A
C291   C304    1.466   .     S
C292   C294    1.414   .     A
C292   C317    1.410   .     A
C292   Cl322   1.761   .     S
C293   C318    1.414   .     A
C293   C312    1.407   .     A
C293   C642    1.512   1_554 S
C294   C313    1.407   .     A
C294   C641    1.512   .     S
C295   O347    1.287   .     A
C295   C297    1.434   .     S
C295   O345    1.285   .     A
C296   O348    1.287   .     A
C296   C298    1.434   .     S
C296   O346    1.285   .     A
C298   C181    1.335   1_655 S
C298   H215    1.087   1_655 S
C299   C301    1.389   .     A
C299   C310    1.397   .     A
C299   H332    1.084   .     S
C300   C311    1.397   .     A
C300   H333    1.084   .     S
C300   C303    1.389   .     A
C301   F325    1.358   .     S
C301   C304    1.409   .     A
C302   O342    1.296   .     A
C302   C305    1.468   .     S
C302   O344    1.293   .     A
C303   C305    1.409   .     A
C303   F326    1.358   .     S
C304   C306    1.416   .     A
C305   C307    1.416   .     A
C306   Cl319   1.764   .     S
C306   C308    1.392   .     A
C307   Cl320   1.765   .     S
C307   C309    1.392   .     A
C308   H334    1.084   .     S
C308   C310    1.397   .     A
C309   H335    1.084   .     S
C309   C311    1.397   .     A
C311   C136    1.459   1_565 S
C312   C314    1.407   .     A
C312   H336    1.083   .     S
C313   C315    1.407   .     A
C313   H337    1.083   .     S
C314   N339    1.365   .     A
C314   H338    1.080   .     S
C315   H328    1.080   .     S
C315   N340    1.366   .     A
C316   C318    1.409   .     A
C316   H329    1.080   .     S
C316   N339    1.366   .     A
C317   N340    1.366   .     A
C317   H330    1.080   .     S
C318   Cl321   1.761   .     S
Cu323  O345    1.957   .     S
Cu323  O341    1.957   .     S
Cu323  Cu324   2.674   .     S
Cu323  O348    1.960   .     S
Cu323  O344    1.960   .     S
Cu323  N340    2.008   .     S
Cu324  O347    1.960   .     S
Cu324  O346    1.957   .     S
Cu324  O343    1.960   .     S
Cu324  N339    2.008   .     S
Cu324  O342    1.957   .     S
H327   C181    1.087   1_655 S
C349   O399    1.295   .     A
C349   O401    1.292   .     A
C349   C362    1.466   .     S
C350   C352    1.414   .     A
C350   C375    1.410   .     A
C350   Cl380   1.761   .     S
C351   C376    1.414   .     A
C351   C370    1.407   .     A
C352   C371    1.407   .     A
C352   C3      1.512   1_556 S
C353   O405    1.287   .     A
C353   C355    1.434   .     S
C353   O403    1.285   .     A
C354   O406    1.287   .     A
C354   C356    1.434   .     S
C354   O404    1.285   .     A
C355   C472    1.335   1_455 S
C355   H501    1.087   1_455 S
C356   C413    1.335   .     S
C356   H447    1.087   .     S
C357   C359    1.389   .     A
C357   C368    1.397   .     A
C357   H390    1.084   .     S
C358   C369    1.397   .     A
C358   H391    1.084   .     S
C358   C361    1.389   .     A
C359   F383    1.358   .     S
C359   C362    1.409   .     A
C360   O400    1.296   .     A
C360   C363    1.468   .     S
C360   O402    1.293   .     A
C361   C363    1.409   .     A
C361   F384    1.358   .     S
C362   C364    1.416   .     A
C363   C365    1.416   .     A
C364   Cl377   1.764   .     S
C364   C366    1.392   .     A
C365   Cl378   1.765   .     S
C365   C367    1.392   .     A
C366   H392    1.084   .     S
C366   C368    1.397   .     A
C367   H393    1.084   .     S
C367   C369    1.397   .     A
C368   C543    1.459   1_545 S
C369   C542    1.459   .     S
C370   C372    1.407   .     A
C370   H394    1.083   .     S
C371   C373    1.407   .     A
C371   H395    1.083   .     S
C372   N397    1.365   .     A
C372   H396    1.080   .     S
C373   H386    1.080   .     S
C373   N398    1.366   .     A
C374   C376    1.409   .     A
C374   H387    1.080   .     S
C374   N397    1.366   .     A
C375   N398    1.366   .     A
C375   H388    1.080   .     S
C376   Cl379   1.761   .     S
Cu381  O403    1.957   .     S
Cu381  O399    1.957   .     S
Cu381  Cu382   2.674   .     S
Cu381  O406    1.960   .     S
Cu381  O402    1.960   .     S
Cu381  N398    2.008   .     S
Cu382  O405    1.960   .     S
Cu382  O404    1.957   .     S
Cu382  O401    1.960   .     S
Cu382  N397    2.008   .     S
Cu382  O400    1.957   .     S
H385   C413    1.087   .     S
H389   C472    1.087   1_455 S
C407   O457    1.295   .     A
C407   O459    1.292   .     A
C407   C420    1.466   .     S
C408   C410    1.414   .     A
C408   C433    1.410   .     A
C408   Cl438   1.761   .     S
C409   C434    1.414   .     A
C409   C428    1.407   .     A
C410   C429    1.407   .     A
C410   C61     1.512   1_556 S
C411   O463    1.287   .     A
C411   C413    1.434   .     S
C411   O461    1.285   .     A
C412   O464    1.287   .     A
C412   C414    1.434   .     S
C412   O462    1.285   .     A
C414   C471    1.335   .     S
C414   H505    1.087   .     S
C415   C417    1.389   .     A
C415   C426    1.397   .     A
C415   H448    1.084   .     S
C416   C427    1.397   .     A
C416   H449    1.084   .     S
C416   C419    1.389   .     A
C417   F441    1.358   .     S
C417   C420    1.409   .     A
C418   O458    1.296   .     A
C418   C421    1.468   .     S
C418   O460    1.293   .     A
C419   C421    1.409   .     A
C419   F442    1.358   .     S
C420   C422    1.416   .     A
C421   C423    1.416   .     A
C422   Cl435   1.764   .     S
C422   C424    1.392   .     A
C423   Cl436   1.765   .     S
C423   C425    1.392   .     A
C424   H450    1.084   .     S
C424   C426    1.397   .     A
C425   H451    1.084   .     S
C425   C427    1.397   .     A
C426   C601    1.459   1_545 S
C427   C600    1.459   .     S
C428   C430    1.407   .     A
C428   H452    1.083   .     S
C429   C431    1.407   .     A
C429   H453    1.083   .     S
C430   N455    1.365   .     A
C430   H454    1.080   .     S
C431   H444    1.080   .     S
C431   N456    1.366   .     A
C432   C434    1.409   .     A
C432   H445    1.080   .     S
C432   N455    1.366   .     A
C433   N456    1.366   .     A
C433   H446    1.080   .     S
C434   Cl437   1.761   .     S
Cu439  O461    1.957   .     S
Cu439  O457    1.957   .     S
Cu439  Cu440   2.674   .     S
Cu439  O464    1.960   .     S
Cu439  O460    1.960   .     S
Cu439  N456    2.008   .     S
Cu440  O463    1.960   .     S
Cu440  O462    1.957   .     S
Cu440  O459    1.960   .     S
Cu440  N455    2.008   .     S
Cu440  O458    1.957   .     S
H443   C471    1.087   .     S
C465   O515    1.295   .     A
C465   O517    1.292   .     A
C465   C478    1.466   .     S
C466   C468    1.414   .     A
C466   C491    1.410   .     A
C466   Cl496   1.761   .     S
C467   C492    1.414   .     A
C467   C486    1.407   .     A
C468   C487    1.407   .     A
C468   C119    1.512   1_556 S
C469   O521    1.287   .     A
C469   C471    1.434   .     S
C469   O519    1.285   .     A
C470   O522    1.287   .     A
C470   C472    1.434   .     S
C470   O520    1.285   .     A
C472   C355    1.335   1_655 S
C472   H389    1.087   1_655 S
C473   C475    1.389   .     A
C473   C484    1.397   .     A
C473   H506    1.084   .     S
C474   C485    1.397   .     A
C474   H507    1.084   .     S
C474   C477    1.389   .     A
C475   F499    1.358   .     S
C475   C478    1.409   .     A
C476   O516    1.296   .     A
C476   C479    1.468   .     S
C476   O518    1.293   .     A
C477   C479    1.409   .     A
C477   F500    1.358   .     S
C478   C480    1.416   .     A
C479   C481    1.416   .     A
C480   Cl493   1.764   .     S
C480   C482    1.392   .     A
C481   Cl494   1.765   .     S
C481   C483    1.392   .     A
C482   H508    1.084   .     S
C482   C484    1.397   .     A
C483   H509    1.084   .     S
C483   C485    1.397   .     A
C484   C659    1.459   1_545 S
C485   C658    1.459   .     S
C486   C488    1.407   .     A
C486   H510    1.083   .     S
C487   C489    1.407   .     A
C487   H511    1.083   .     S
C488   N513    1.365   .     A
C488   H512    1.080   .     S
C489   H502    1.080   .     S
C489   N514    1.366   .     A
C490   C492    1.409   .     A
C490   H503    1.080   .     S
C490   N513    1.366   .     A
C491   N514    1.366   .     A
C491   H504    1.080   .     S
C492   Cl495   1.761   .     S
Cu497  O519    1.957   .     S
Cu497  O515    1.957   .     S
Cu497  Cu498   2.674   .     S
Cu497  O522    1.960   .     S
Cu497  O518    1.960   .     S
Cu497  N514    2.008   .     S
Cu498  O521    1.960   .     S
Cu498  O520    1.957   .     S
Cu498  O517    1.960   .     S
Cu498  N513    2.008   .     S
Cu498  O516    1.957   .     S
H501   C355    1.087   1_655 S
C523   O573    1.295   .     A
C523   O575    1.292   .     A
C523   C536    1.466   .     S
C524   C526    1.414   .     A
C524   C549    1.410   .     A
C524   Cl554   1.761   .     S
C525   C550    1.414   .     A
C525   C544    1.407   .     A
C526   C545    1.407   .     A
C526   C177    1.512   1_556 S
C527   O579    1.287   .     A
C527   C529    1.434   .     S
C527   O577    1.285   .     A
C528   O580    1.287   .     A
C528   C530    1.434   .     S
C528   O578    1.285   .     A
C529   C646    1.335   1_455 S
C529   H675    1.087   1_455 S
C530   C587    1.335   .     S
C530   H621    1.087   .     S
C531   C533    1.389   .     A
C531   C542    1.397   .     A
C531   H564    1.084   .     S
C532   C543    1.397   .     A
C532   H565    1.084   .     S
C532   C535    1.389   .     A
C533   F557    1.358   .     S
C533   C536    1.409   .     A
C534   O574    1.296   .     A
C534   C537    1.468   .     S
C534   O576    1.293   .     A
C535   C537    1.409   .     A
C535   F558    1.358   .     S
C536   C538    1.416   .     A
C537   C539    1.416   .     A
C538   Cl551   1.764   .     S
C538   C540    1.392   .     A
C539   Cl552   1.765   .     S
C539   C541    1.392   .     A
C540   H566    1.084   .     S
C540   C542    1.397   .     A
C541   H567    1.084   .     S
C541   C543    1.397   .     A
C543   C368    1.459   1_565 S
C544   C546    1.407   .     A
C544   H568    1.083   .     S
C545   C547    1.407   .     A
C545   H569    1.083   .     S
C546   N571    1.365   .     A
C546   H570    1.080   .     S
C547   H560    1.080   .     S
C547   N572    1.366   .     A
C548   C550    1.409   .     A
C548   H561    1.080   .     S
C548   N571    1.366   .     A
C549   N572    1.366   .     A
C549   H562    1.080   .     S
C550   Cl553   1.761   .     S
Cu555  O577    1.957   .     S
Cu555  O573    1.957   .     S
Cu555  Cu556   2.674   .     S
Cu555  O580    1.960   .     S
Cu555  O576    1.960   .     S
Cu555  N572    2.008   .     S
Cu556  O579    1.960   .     S
Cu556  O578    1.957   .     S
Cu556  O575    1.960   .     S
Cu556  N571    2.008   .     S
Cu556  O574    1.957   .     S
H559   C587    1.087   .     S
H563   C646    1.087   1_455 S
C581   O631    1.295   .     A
C581   O633    1.292   .     A
C581   C594    1.466   .     S
C582   C584    1.414   .     A
C582   C607    1.410   .     A
C582   Cl612   1.761   .     S
C583   C608    1.414   .     A
C583   C602    1.407   .     A
C584   C603    1.407   .     A
C584   C235    1.512   1_556 S
C585   O637    1.287   .     A
C585   C587    1.434   .     S
C585   O635    1.285   .     A
C586   O638    1.287   .     A
C586   C588    1.434   .     S
C586   O636    1.285   .     A
C588   C645    1.335   .     S
C588   H679    1.087   .     S
C589   C591    1.389   .     A
C589   C600    1.397   .     A
C589   H622    1.084   .     S
C590   C601    1.397   .     A
C590   H623    1.084   .     S
C590   C593    1.389   .     A
C591   F615    1.358   .     S
C591   C594    1.409   .     A
C592   O632    1.296   .     A
C592   C595    1.468   .     S
C592   O634    1.293   .     A
C593   C595    1.409   .     A
C593   F616    1.358   .     S
C594   C596    1.416   .     A
C595   C597    1.416   .     A
C596   Cl609   1.764   .     S
C596   C598    1.392   .     A
C597   Cl610   1.765   .     S
C597   C599    1.392   .     A
C598   H624    1.084   .     S
C598   C600    1.397   .     A
C599   H625    1.084   .     S
C599   C601    1.397   .     A
C601   C426    1.459   1_565 S
C602   C604    1.407   .     A
C602   H626    1.083   .     S
C603   C605    1.407   .     A
C603   H627    1.083   .     S
C604   N629    1.365   .     A
C604   H628    1.080   .     S
C605   H618    1.080   .     S
C605   N630    1.366   .     A
C606   C608    1.409   .     A
C606   H619    1.080   .     S
C606   N629    1.366   .     A
C607   N630    1.366   .     A
C607   H620    1.080   .     S
C608   Cl611   1.761   .     S
Cu613  O635    1.957   .     S
Cu613  O631    1.957   .     S
Cu613  Cu614   2.674   .     S
Cu613  O638    1.960   .     S
Cu613  O634    1.960   .     S
Cu613  N630    2.008   .     S
Cu614  O637    1.960   .     S
Cu614  O636    1.957   .     S
Cu614  O633    1.960   .     S
Cu614  N629    2.008   .     S
Cu614  O632    1.957   .     S
H617   C645    1.087   .     S
C639   O689    1.295   .     A
C639   O691    1.292   .     A
C639   C652    1.466   .     S
C640   C642    1.414   .     A
C640   C665    1.410   .     A
C640   Cl670   1.761   .     S
C641   C666    1.414   .     A
C641   C660    1.407   .     A
C642   C661    1.407   .     A
C642   C293    1.512   1_556 S
C643   O695    1.287   .     A
C643   C645    1.434   .     S
C643   O693    1.285   .     A
C644   O696    1.287   .     A
C644   C646    1.434   .     S
C644   O694    1.285   .     A
C646   C529    1.335   1_655 S
C646   H563    1.087   1_655 S
C647   C649    1.389   .     A
C647   C658    1.397   .     A
C647   H680    1.084   .     S
C648   C659    1.397   .     A
C648   H681    1.084   .     S
C648   C651    1.389   .     A
C649   F673    1.358   .     S
C649   C652    1.409   .     A
C650   O690    1.296   .     A
C650   C653    1.468   .     S
C650   O692    1.293   .     A
C651   C653    1.409   .     A
C651   F674    1.358   .     S
C652   C654    1.416   .     A
C653   C655    1.416   .     A
C654   Cl667   1.764   .     S
C654   C656    1.392   .     A
C655   Cl668   1.765   .     S
C655   C657    1.392   .     A
C656   H682    1.084   .     S
C656   C658    1.397   .     A
C657   H683    1.084   .     S
C657   C659    1.397   .     A
C659   C484    1.459   1_565 S
C660   C662    1.407   .     A
C660   H684    1.083   .     S
C661   C663    1.407   .     A
C661   H685    1.083   .     S
C662   N687    1.365   .     A
C662   H686    1.080   .     S
C663   H676    1.080   .     S
C663   N688    1.366   .     A
C664   C666    1.409   .     A
C664   H677    1.080   .     S
C664   N687    1.366   .     A
C665   N688    1.366   .     A
C665   H678    1.080   .     S
C666   Cl669   1.761   .     S
Cu671  O693    1.957   .     S
Cu671  O689    1.957   .     S
Cu671  Cu672   2.674   .     S
Cu671  O696    1.960   .     S
Cu671  O692    1.960   .     S
Cu671  N688    2.008   .     S
Cu672  O695    1.960   .     S
Cu672  O694    1.957   .     S
Cu672  O691    1.960   .     S
Cu672  N687    2.008   .     S
Cu672  O690    1.957   .     S
H675   C529    1.087   1_655 S
