data_str_m2_o1_o18_pcu_sym.34
_audit_creation_date              2020-01-03
_audit_creation_method            'Materials Studio'
_symmetry_space_group_name_H-M    'P1'
_symmetry_Int_Tables_number       1
_symmetry_cell_setting            triclinic
loop_
_symmetry_equiv_pos_as_xyz
  x,y,z
_cell_length_a                    28.5596
_cell_length_b                    32.4993
_cell_length_c                    30.9476
_cell_angle_alpha                 89.8519
_cell_angle_beta                  74.5765
_cell_angle_gamma                 90.0032
loop_
_atom_site_label
_atom_site_type_symbol
_atom_site_fract_x
_atom_site_fract_y
_atom_site_fract_z
_atom_site_U_iso_or_equiv
_atom_site_adp_type
_atom_site_occupancy
C1     C     0.33331   0.08736   0.25003   0.00000  Uiso   1.00
C2     C     0.04249   0.02129   0.25020   0.00000  Uiso   1.00
C3     C     0.00001   0.29059   0.24999   0.00000  Uiso   1.00
C4     C     0.33331   0.04274   0.25005   0.00000  Uiso   1.00
C5     C     0.18285   0.14294   0.27977   0.00000  Uiso   1.00
C6     C     0.15049   0.19040   0.22023   0.00000  Uiso   1.00
C7     C     0.13324   0.14299   0.27979   0.00000  Uiso   1.00
C8     C     0.20009   0.19036   0.22022   0.00000  Uiso   1.00
C9     C     0.30611   0.16614   0.33610   0.00000  Uiso   1.00
C10    C     0.02722   0.16718   0.16390   0.00000  Uiso   1.00
C11    C     0.29105   0.16306   0.38518   0.00000  Uiso   1.00
C12    C     0.00002   0.24598   0.24998   0.00000  Uiso   1.00
C13    C     0.04223   0.17019   0.11481   0.00000  Uiso   1.00
C14    C     0.30681   0.14332   0.45519   0.00000  Uiso   1.00
C15    C     0.02622   0.18956   0.04478   0.00000  Uiso   1.00
C16    C     0.32356   0.15114   0.40944   0.00000  Uiso   1.00
C17    C     0.00959   0.18181   0.09055   0.00000  Uiso   1.00
C18    C     0.24239   0.16973   0.40753   0.00000  Uiso   1.00
C19    C     0.09089   0.16367   0.09240   0.00000  Uiso   1.00
C20    C     0.22466   0.16360   0.45404   0.00000  Uiso   1.00
C21    C     0.10847   0.16957   0.04585   0.00000  Uiso   1.00
C22    C     0.25697   0.14700   0.47756   0.00000  Uiso   1.00
C23    C     0.18953   0.14060   0.04386   0.00000  Uiso   1.00
C24    C     0.07607   0.18600   0.02232   0.00000  Uiso   1.00
C25    C     0.17533   0.17210   0.47708   0.00000  Uiso   1.00
C26    C     0.15776   0.16102   0.02279   0.00000  Uiso   1.00
C27    C     0.26788   0.11045   0.04719   0.00000  Uiso   1.00
C28    C     0.06537   0.22216   0.45208   0.00000  Uiso   1.00
C29    C     0.14350   0.19240   0.45597   0.00000  Uiso   1.00
C30    C     0.23852   0.13403   0.02239   0.00000  Uiso   1.00
C31    C     0.09451   0.19890   0.47740   0.00000  Uiso   1.00
C32    C     0.29081   0.02128   0.24989   0.00000  Uiso   1.00
C33    C     0.04251   0.31205   0.25016   0.00000  Uiso   1.00
C34    C     0.29083   0.31204   0.24985   0.00000  Uiso   1.00
Cu35   Cu    0.04689   0.16667   0.25000   0.00000  Uiso   1.00
Cu36   Cu    0.28645   0.16666   0.25000   0.00000  Uiso   1.00
H37    H     0.11493   0.15581   0.11263   0.00000  Uiso   1.00
H38    H     0.07575   0.29605   0.25027   0.00000  Uiso   1.00
H39    H     0.25761   0.29603   0.24970   0.00000  Uiso   1.00
H40    H     0.07572   0.03730   0.25034   0.00000  Uiso   1.00
H41    H     0.19462   0.12385   0.30357   0.00000  Uiso   1.00
H42    H     0.13870   0.20950   0.19644   0.00000  Uiso   1.00
H43    H     0.10764   0.12399   0.30362   0.00000  Uiso   1.00
H44    H     0.22569   0.20936   0.19639   0.00000  Uiso   1.00
H45    H     0.31815   0.06652   0.04603   0.00000  Uiso   1.00
H46    H     0.05324   0.23455   0.39201   0.00000  Uiso   1.00
H47    H     0.21850   0.17787   0.38727   0.00000  Uiso   1.00
H48    H     0.30487   0.18652   0.10722   0.00000  Uiso   1.00
H49    H     0.02826   0.14625   0.39280   0.00000  Uiso   1.00
H50    H     0.00001   0.13418   0.47253   0.00000  Uiso   1.00
H51    H     0.33287   0.19855   0.02755   0.00000  Uiso   1.00
H52    H     0.17667   0.12742   0.07686   0.00000  Uiso   1.00
H53    H     0.15632   0.20551   0.42295   0.00000  Uiso   1.00
H54    H     0.25757   0.03728   0.24978   0.00000  Uiso   1.00
N55    N     0.11736   0.16668   0.24999   0.00000  Uiso   1.00
N56    N     0.21597   0.16666   0.25001   0.00000  Uiso   1.00
O57    O     0.03958   0.10655   0.25000   0.00000  Uiso   1.00
O58    O     0.30093   0.08057   0.02530   0.00000  Uiso   1.00
O59    O     0.03513   0.24740   0.47098   0.00000  Uiso   1.00
O60    O     0.07479   0.21682   0.40572   0.00000  Uiso   1.00
O61    O     0.29375   0.22678   0.25000   0.00000  Uiso   1.00
O62    O     0.29372   0.10654   0.25000   0.00000  Uiso   1.00
O63    O     0.03961   0.22679   0.24999   0.00000  Uiso   1.00
O64    O     0.01852   0.16668   0.31491   0.00000  Uiso   1.00
O65    O     0.31481   0.16666   0.18508   0.00000  Uiso   1.00
O66    O     0.27267   0.16667   0.31492   0.00000  Uiso   1.00
O67    O     0.06067   0.16667   0.18508   0.00000  Uiso   1.00
O68    O     0.26133   0.11576   0.08748   0.00000  Uiso   1.00
C69    C     0.66664   0.08736   0.25003   0.00000  Uiso   1.00
C70    C     0.37582   0.02129   0.25020   0.00000  Uiso   1.00
C71    C     0.33334   0.29059   0.24999   0.00000  Uiso   1.00
C72    C     0.66665   0.04274   0.25005   0.00000  Uiso   1.00
C73    C     0.51618   0.14294   0.27977   0.00000  Uiso   1.00
C74    C     0.48382   0.19040   0.22023   0.00000  Uiso   1.00
C75    C     0.46657   0.14299   0.27979   0.00000  Uiso   1.00
C76    C     0.53343   0.19036   0.22022   0.00000  Uiso   1.00
C77    C     0.63945   0.16614   0.33610   0.00000  Uiso   1.00
C78    C     0.36055   0.16718   0.16390   0.00000  Uiso   1.00
C79    C     0.62439   0.16306   0.38518   0.00000  Uiso   1.00
C80    C     0.33335   0.24598   0.24998   0.00000  Uiso   1.00
C81    C     0.37556   0.17019   0.11481   0.00000  Uiso   1.00
C82    C     0.64014   0.14332   0.45519   0.00000  Uiso   1.00
C83    C     0.35956   0.18956   0.04478   0.00000  Uiso   1.00
C84    C     0.65690   0.15114   0.40944   0.00000  Uiso   1.00
C85    C     0.34292   0.18181   0.09055   0.00000  Uiso   1.00
C86    C     0.57572   0.16973   0.40753   0.00000  Uiso   1.00
C87    C     0.42423   0.16367   0.09240   0.00000  Uiso   1.00
C88    C     0.55799   0.16360   0.45404   0.00000  Uiso   1.00
C89    C     0.44181   0.16957   0.04585   0.00000  Uiso   1.00
C90    C     0.59030   0.14700   0.47756   0.00000  Uiso   1.00
C91    C     0.52287   0.14060   0.04386   0.00000  Uiso   1.00
C92    C     0.40940   0.18600   0.02232   0.00000  Uiso   1.00
C93    C     0.50867   0.17210   0.47708   0.00000  Uiso   1.00
C94    C     0.49110   0.16102   0.02279   0.00000  Uiso   1.00
C95    C     0.60122   0.11045   0.04719   0.00000  Uiso   1.00
C96    C     0.39871   0.22216   0.45208   0.00000  Uiso   1.00
C97    C     0.47683   0.19240   0.45597   0.00000  Uiso   1.00
C98    C     0.57186   0.13403   0.02239   0.00000  Uiso   1.00
C99    C     0.42784   0.19890   0.47740   0.00000  Uiso   1.00
C100   C     0.62415   0.02128   0.24989   0.00000  Uiso   1.00
C101   C     0.37584   0.31205   0.25016   0.00000  Uiso   1.00
C102   C     0.62416   0.31204   0.24985   0.00000  Uiso   1.00
Cu103  Cu    0.38022   0.16667   0.25000   0.00000  Uiso   1.00
Cu104  Cu    0.61978   0.16666   0.25000   0.00000  Uiso   1.00
H105   H     0.44826   0.15581   0.11263   0.00000  Uiso   1.00
H106   H     0.40908   0.29605   0.25027   0.00000  Uiso   1.00
H107   H     0.59094   0.29603   0.24970   0.00000  Uiso   1.00
H108   H     0.40905   0.03730   0.25034   0.00000  Uiso   1.00
H109   H     0.52796   0.12385   0.30357   0.00000  Uiso   1.00
H110   H     0.47204   0.20950   0.19644   0.00000  Uiso   1.00
H111   H     0.44097   0.12399   0.30362   0.00000  Uiso   1.00
H112   H     0.55902   0.20936   0.19639   0.00000  Uiso   1.00
H113   H     0.65148   0.06652   0.04603   0.00000  Uiso   1.00
H114   H     0.38658   0.23455   0.39201   0.00000  Uiso   1.00
H115   H     0.55184   0.17787   0.38727   0.00000  Uiso   1.00
H116   H     0.63820   0.18652   0.10722   0.00000  Uiso   1.00
H117   H     0.36159   0.14625   0.39280   0.00000  Uiso   1.00
H118   H     0.33335   0.13418   0.47253   0.00000  Uiso   1.00
H119   H     0.66620   0.19855   0.02755   0.00000  Uiso   1.00
H120   H     0.51001   0.12742   0.07686   0.00000  Uiso   1.00
H121   H     0.48965   0.20551   0.42295   0.00000  Uiso   1.00
H122   H     0.59090   0.03728   0.24978   0.00000  Uiso   1.00
N123   N     0.45069   0.16668   0.24999   0.00000  Uiso   1.00
N124   N     0.54931   0.16666   0.25001   0.00000  Uiso   1.00
O125   O     0.37291   0.10655   0.25000   0.00000  Uiso   1.00
O126   O     0.63426   0.08057   0.02530   0.00000  Uiso   1.00
O127   O     0.36847   0.24740   0.47098   0.00000  Uiso   1.00
O128   O     0.40812   0.21682   0.40572   0.00000  Uiso   1.00
O129   O     0.62709   0.22678   0.25000   0.00000  Uiso   1.00
O130   O     0.62706   0.10654   0.25000   0.00000  Uiso   1.00
O131   O     0.37294   0.22679   0.24999   0.00000  Uiso   1.00
O132   O     0.35186   0.16668   0.31491   0.00000  Uiso   1.00
O133   O     0.64814   0.16666   0.18508   0.00000  Uiso   1.00
O134   O     0.60600   0.16667   0.31492   0.00000  Uiso   1.00
O135   O     0.39400   0.16667   0.18508   0.00000  Uiso   1.00
O136   O     0.59467   0.11576   0.08748   0.00000  Uiso   1.00
C137   C     0.99998   0.08736   0.25003   0.00000  Uiso   1.00
C138   C     0.70916   0.02129   0.25020   0.00000  Uiso   1.00
C139   C     0.66668   0.29059   0.24999   0.00000  Uiso   1.00
C140   C     0.99998   0.04274   0.25005   0.00000  Uiso   1.00
C141   C     0.84951   0.14294   0.27977   0.00000  Uiso   1.00
C142   C     0.81715   0.19040   0.22023   0.00000  Uiso   1.00
C143   C     0.79990   0.14299   0.27979   0.00000  Uiso   1.00
C144   C     0.86676   0.19036   0.22022   0.00000  Uiso   1.00
C145   C     0.97278   0.16614   0.33610   0.00000  Uiso   1.00
C146   C     0.69388   0.16718   0.16390   0.00000  Uiso   1.00
C147   C     0.95772   0.16306   0.38518   0.00000  Uiso   1.00
C148   C     0.66668   0.24598   0.24998   0.00000  Uiso   1.00
C149   C     0.70889   0.17019   0.11481   0.00000  Uiso   1.00
C150   C     0.97347   0.14332   0.45519   0.00000  Uiso   1.00
C151   C     0.69289   0.18956   0.04478   0.00000  Uiso   1.00
C152   C     0.99023   0.15114   0.40944   0.00000  Uiso   1.00
C153   C     0.67626   0.18181   0.09055   0.00000  Uiso   1.00
C154   C     0.90906   0.16973   0.40753   0.00000  Uiso   1.00
C155   C     0.75756   0.16367   0.09240   0.00000  Uiso   1.00
C156   C     0.89133   0.16360   0.45404   0.00000  Uiso   1.00
C157   C     0.77514   0.16957   0.04585   0.00000  Uiso   1.00
C158   C     0.92364   0.14700   0.47756   0.00000  Uiso   1.00
C159   C     0.85620   0.14060   0.04386   0.00000  Uiso   1.00
C160   C     0.74273   0.18600   0.02232   0.00000  Uiso   1.00
C161   C     0.84200   0.17210   0.47708   0.00000  Uiso   1.00
C162   C     0.82443   0.16102   0.02279   0.00000  Uiso   1.00
C163   C     0.93455   0.11045   0.04719   0.00000  Uiso   1.00
C164   C     0.73204   0.22216   0.45208   0.00000  Uiso   1.00
C165   C     0.81017   0.19240   0.45597   0.00000  Uiso   1.00
C166   C     0.90519   0.13403   0.02239   0.00000  Uiso   1.00
C167   C     0.76117   0.19890   0.47740   0.00000  Uiso   1.00
C168   C     0.95748   0.02128   0.24989   0.00000  Uiso   1.00
C169   C     0.70918   0.31205   0.25016   0.00000  Uiso   1.00
C170   C     0.95750   0.31204   0.24985   0.00000  Uiso   1.00
Cu171  Cu    0.71355   0.16667   0.25000   0.00000  Uiso   1.00
Cu172  Cu    0.95311   0.16666   0.25000   0.00000  Uiso   1.00
H173   H     0.78160   0.15581   0.11263   0.00000  Uiso   1.00
H174   H     0.74242   0.29605   0.25027   0.00000  Uiso   1.00
H175   H     0.92427   0.29603   0.24970   0.00000  Uiso   1.00
H176   H     0.74238   0.03730   0.25034   0.00000  Uiso   1.00
H177   H     0.86129   0.12385   0.30357   0.00000  Uiso   1.00
H178   H     0.80537   0.20950   0.19644   0.00000  Uiso   1.00
H179   H     0.77431   0.12399   0.30362   0.00000  Uiso   1.00
H180   H     0.89235   0.20936   0.19639   0.00000  Uiso   1.00
H181   H     0.98481   0.06652   0.04603   0.00000  Uiso   1.00
H182   H     0.71991   0.23455   0.39201   0.00000  Uiso   1.00
H183   H     0.88517   0.17787   0.38727   0.00000  Uiso   1.00
H184   H     0.97153   0.18652   0.10722   0.00000  Uiso   1.00
H185   H     0.69492   0.14625   0.39280   0.00000  Uiso   1.00
H186   H     0.66668   0.13418   0.47253   0.00000  Uiso   1.00
H187   H     0.99954   0.19855   0.02755   0.00000  Uiso   1.00
H188   H     0.84334   0.12742   0.07686   0.00000  Uiso   1.00
H189   H     0.82299   0.20551   0.42295   0.00000  Uiso   1.00
H190   H     0.92424   0.03728   0.24978   0.00000  Uiso   1.00
N191   N     0.78403   0.16668   0.24999   0.00000  Uiso   1.00
N192   N     0.88264   0.16666   0.25001   0.00000  Uiso   1.00
O193   O     0.70625   0.10655   0.25000   0.00000  Uiso   1.00
O194   O     0.96760   0.08057   0.02530   0.00000  Uiso   1.00
O195   O     0.70180   0.24740   0.47098   0.00000  Uiso   1.00
O196   O     0.74145   0.21682   0.40572   0.00000  Uiso   1.00
O197   O     0.96042   0.22678   0.25000   0.00000  Uiso   1.00
O198   O     0.96039   0.10654   0.25000   0.00000  Uiso   1.00
O199   O     0.70628   0.22679   0.24999   0.00000  Uiso   1.00
O200   O     0.68519   0.16668   0.31491   0.00000  Uiso   1.00
O201   O     0.98148   0.16666   0.18508   0.00000  Uiso   1.00
O202   O     0.93933   0.16667   0.31492   0.00000  Uiso   1.00
O203   O     0.72733   0.16667   0.18508   0.00000  Uiso   1.00
O204   O     0.92800   0.11576   0.08748   0.00000  Uiso   1.00
C205   C     0.33331   0.42069   0.25003   0.00000  Uiso   1.00
C206   C     0.04249   0.35462   0.25020   0.00000  Uiso   1.00
C207   C     0.00001   0.62393   0.24999   0.00000  Uiso   1.00
C208   C     0.33331   0.37607   0.25005   0.00000  Uiso   1.00
C209   C     0.18285   0.47628   0.27977   0.00000  Uiso   1.00
C210   C     0.15049   0.52373   0.22023   0.00000  Uiso   1.00
C211   C     0.13324   0.47632   0.27979   0.00000  Uiso   1.00
C212   C     0.20009   0.52369   0.22022   0.00000  Uiso   1.00
C213   C     0.30611   0.49948   0.33610   0.00000  Uiso   1.00
C214   C     0.02722   0.50051   0.16390   0.00000  Uiso   1.00
C215   C     0.29105   0.49639   0.38518   0.00000  Uiso   1.00
C216   C     0.00002   0.57931   0.24998   0.00000  Uiso   1.00
C217   C     0.04223   0.50352   0.11481   0.00000  Uiso   1.00
C218   C     0.30681   0.47666   0.45519   0.00000  Uiso   1.00
C219   C     0.02622   0.52290   0.04478   0.00000  Uiso   1.00
C220   C     0.32356   0.48447   0.40944   0.00000  Uiso   1.00
C221   C     0.00959   0.51514   0.09055   0.00000  Uiso   1.00
C222   C     0.24239   0.50306   0.40753   0.00000  Uiso   1.00
C223   C     0.09089   0.49700   0.09240   0.00000  Uiso   1.00
C224   C     0.22466   0.49693   0.45404   0.00000  Uiso   1.00
C225   C     0.10847   0.50291   0.04585   0.00000  Uiso   1.00
C226   C     0.25697   0.48033   0.47756   0.00000  Uiso   1.00
C227   C     0.18953   0.47393   0.04386   0.00000  Uiso   1.00
C228   C     0.07607   0.51933   0.02232   0.00000  Uiso   1.00
C229   C     0.17533   0.50543   0.47708   0.00000  Uiso   1.00
C230   C     0.15776   0.49436   0.02279   0.00000  Uiso   1.00
C231   C     0.26788   0.44378   0.04719   0.00000  Uiso   1.00
C232   C     0.06537   0.55549   0.45208   0.00000  Uiso   1.00
C233   C     0.14350   0.52574   0.45597   0.00000  Uiso   1.00
C234   C     0.23852   0.46737   0.02239   0.00000  Uiso   1.00
C235   C     0.09451   0.53224   0.47740   0.00000  Uiso   1.00
C236   C     0.29081   0.35461   0.24989   0.00000  Uiso   1.00
C237   C     0.04251   0.64539   0.25016   0.00000  Uiso   1.00
C238   C     0.29083   0.64538   0.24985   0.00000  Uiso   1.00
Cu239  Cu    0.04689   0.50001   0.25000   0.00000  Uiso   1.00
Cu240  Cu    0.28645   0.49999   0.25000   0.00000  Uiso   1.00
H241   H     0.11493   0.48915   0.11263   0.00000  Uiso   1.00
H242   H     0.07575   0.62938   0.25027   0.00000  Uiso   1.00
H243   H     0.25761   0.62936   0.24970   0.00000  Uiso   1.00
H244   H     0.07572   0.37064   0.25034   0.00000  Uiso   1.00
H245   H     0.19462   0.45718   0.30357   0.00000  Uiso   1.00
H246   H     0.13870   0.54283   0.19644   0.00000  Uiso   1.00
H247   H     0.10764   0.45732   0.30362   0.00000  Uiso   1.00
H248   H     0.22569   0.54270   0.19639   0.00000  Uiso   1.00
H249   H     0.31815   0.39986   0.04603   0.00000  Uiso   1.00
H250   H     0.05324   0.56788   0.39201   0.00000  Uiso   1.00
H251   H     0.21850   0.51121   0.38727   0.00000  Uiso   1.00
H252   H     0.30487   0.51986   0.10722   0.00000  Uiso   1.00
H253   H     0.02826   0.47958   0.39280   0.00000  Uiso   1.00
H254   H     0.00001   0.46752   0.47253   0.00000  Uiso   1.00
H255   H     0.33287   0.53188   0.02755   0.00000  Uiso   1.00
H256   H     0.17667   0.46075   0.07686   0.00000  Uiso   1.00
H257   H     0.15632   0.53884   0.42295   0.00000  Uiso   1.00
H258   H     0.25757   0.37062   0.24978   0.00000  Uiso   1.00
N259   N     0.11736   0.50001   0.24999   0.00000  Uiso   1.00
N260   N     0.21597   0.49999   0.25001   0.00000  Uiso   1.00
O261   O     0.03958   0.43989   0.25000   0.00000  Uiso   1.00
O262   O     0.30093   0.41390   0.02530   0.00000  Uiso   1.00
O263   O     0.03513   0.58074   0.47098   0.00000  Uiso   1.00
O264   O     0.07479   0.55016   0.40572   0.00000  Uiso   1.00
O265   O     0.29375   0.56011   0.25000   0.00000  Uiso   1.00
O266   O     0.29372   0.43988   0.25000   0.00000  Uiso   1.00
O267   O     0.03961   0.56012   0.24999   0.00000  Uiso   1.00
O268   O     0.01852   0.50001   0.31491   0.00000  Uiso   1.00
O269   O     0.31481   0.49999   0.18508   0.00000  Uiso   1.00
O270   O     0.27267   0.50000   0.31492   0.00000  Uiso   1.00
O271   O     0.06067   0.50000   0.18508   0.00000  Uiso   1.00
O272   O     0.26133   0.44909   0.08748   0.00000  Uiso   1.00
C273   C     0.66664   0.42069   0.25003   0.00000  Uiso   1.00
C274   C     0.37582   0.35462   0.25020   0.00000  Uiso   1.00
C275   C     0.33334   0.62393   0.24999   0.00000  Uiso   1.00
C276   C     0.66665   0.37607   0.25005   0.00000  Uiso   1.00
C277   C     0.51618   0.47628   0.27977   0.00000  Uiso   1.00
C278   C     0.48382   0.52373   0.22023   0.00000  Uiso   1.00
C279   C     0.46657   0.47632   0.27979   0.00000  Uiso   1.00
C280   C     0.53343   0.52369   0.22022   0.00000  Uiso   1.00
C281   C     0.63945   0.49948   0.33610   0.00000  Uiso   1.00
C282   C     0.36055   0.50051   0.16390   0.00000  Uiso   1.00
C283   C     0.62439   0.49639   0.38518   0.00000  Uiso   1.00
C284   C     0.33335   0.57931   0.24998   0.00000  Uiso   1.00
C285   C     0.37556   0.50352   0.11481   0.00000  Uiso   1.00
C286   C     0.64014   0.47666   0.45519   0.00000  Uiso   1.00
C287   C     0.35956   0.52290   0.04478   0.00000  Uiso   1.00
C288   C     0.65690   0.48447   0.40944   0.00000  Uiso   1.00
C289   C     0.34292   0.51514   0.09055   0.00000  Uiso   1.00
C290   C     0.57572   0.50306   0.40753   0.00000  Uiso   1.00
C291   C     0.42423   0.49700   0.09240   0.00000  Uiso   1.00
C292   C     0.55799   0.49693   0.45404   0.00000  Uiso   1.00
C293   C     0.44181   0.50291   0.04585   0.00000  Uiso   1.00
C294   C     0.59030   0.48033   0.47756   0.00000  Uiso   1.00
C295   C     0.52287   0.47393   0.04386   0.00000  Uiso   1.00
C296   C     0.40940   0.51933   0.02232   0.00000  Uiso   1.00
C297   C     0.50867   0.50543   0.47708   0.00000  Uiso   1.00
C298   C     0.49110   0.49436   0.02279   0.00000  Uiso   1.00
C299   C     0.60122   0.44378   0.04719   0.00000  Uiso   1.00
C300   C     0.39871   0.55549   0.45208   0.00000  Uiso   1.00
C301   C     0.47683   0.52574   0.45597   0.00000  Uiso   1.00
C302   C     0.57186   0.46737   0.02239   0.00000  Uiso   1.00
C303   C     0.42784   0.53224   0.47740   0.00000  Uiso   1.00
C304   C     0.62415   0.35461   0.24989   0.00000  Uiso   1.00
C305   C     0.37584   0.64539   0.25016   0.00000  Uiso   1.00
C306   C     0.62416   0.64538   0.24985   0.00000  Uiso   1.00
Cu307  Cu    0.38022   0.50001   0.25000   0.00000  Uiso   1.00
Cu308  Cu    0.61978   0.49999   0.25000   0.00000  Uiso   1.00
H309   H     0.44826   0.48915   0.11263   0.00000  Uiso   1.00
H310   H     0.40908   0.62938   0.25027   0.00000  Uiso   1.00
H311   H     0.59094   0.62936   0.24970   0.00000  Uiso   1.00
H312   H     0.40905   0.37064   0.25034   0.00000  Uiso   1.00
H313   H     0.52796   0.45718   0.30357   0.00000  Uiso   1.00
H314   H     0.47204   0.54283   0.19644   0.00000  Uiso   1.00
H315   H     0.44097   0.45732   0.30362   0.00000  Uiso   1.00
H316   H     0.55902   0.54270   0.19639   0.00000  Uiso   1.00
H317   H     0.65148   0.39986   0.04603   0.00000  Uiso   1.00
H318   H     0.38658   0.56788   0.39201   0.00000  Uiso   1.00
H319   H     0.55184   0.51121   0.38727   0.00000  Uiso   1.00
H320   H     0.63820   0.51986   0.10722   0.00000  Uiso   1.00
H321   H     0.36159   0.47958   0.39280   0.00000  Uiso   1.00
H322   H     0.33335   0.46752   0.47253   0.00000  Uiso   1.00
H323   H     0.66620   0.53188   0.02755   0.00000  Uiso   1.00
H324   H     0.51001   0.46075   0.07686   0.00000  Uiso   1.00
H325   H     0.48965   0.53884   0.42295   0.00000  Uiso   1.00
H326   H     0.59090   0.37062   0.24978   0.00000  Uiso   1.00
N327   N     0.45069   0.50001   0.24999   0.00000  Uiso   1.00
N328   N     0.54931   0.49999   0.25001   0.00000  Uiso   1.00
O329   O     0.37291   0.43989   0.25000   0.00000  Uiso   1.00
O330   O     0.63426   0.41390   0.02530   0.00000  Uiso   1.00
O331   O     0.36847   0.58074   0.47098   0.00000  Uiso   1.00
O332   O     0.40812   0.55016   0.40572   0.00000  Uiso   1.00
O333   O     0.62709   0.56011   0.25000   0.00000  Uiso   1.00
O334   O     0.62706   0.43988   0.25000   0.00000  Uiso   1.00
O335   O     0.37294   0.56012   0.24999   0.00000  Uiso   1.00
O336   O     0.35186   0.50001   0.31491   0.00000  Uiso   1.00
O337   O     0.64814   0.49999   0.18508   0.00000  Uiso   1.00
O338   O     0.60600   0.50000   0.31492   0.00000  Uiso   1.00
O339   O     0.39400   0.50000   0.18508   0.00000  Uiso   1.00
O340   O     0.59467   0.44909   0.08748   0.00000  Uiso   1.00
C341   C     0.99998   0.42069   0.25003   0.00000  Uiso   1.00
C342   C     0.70916   0.35462   0.25020   0.00000  Uiso   1.00
C343   C     0.66668   0.62393   0.24999   0.00000  Uiso   1.00
C344   C     0.99998   0.37607   0.25005   0.00000  Uiso   1.00
C345   C     0.84951   0.47628   0.27977   0.00000  Uiso   1.00
C346   C     0.81715   0.52373   0.22023   0.00000  Uiso   1.00
C347   C     0.79990   0.47632   0.27979   0.00000  Uiso   1.00
C348   C     0.86676   0.52369   0.22022   0.00000  Uiso   1.00
C349   C     0.97278   0.49948   0.33610   0.00000  Uiso   1.00
C350   C     0.69388   0.50051   0.16390   0.00000  Uiso   1.00
C351   C     0.95772   0.49639   0.38518   0.00000  Uiso   1.00
C352   C     0.66668   0.57931   0.24998   0.00000  Uiso   1.00
C353   C     0.70889   0.50352   0.11481   0.00000  Uiso   1.00
C354   C     0.97347   0.47666   0.45519   0.00000  Uiso   1.00
C355   C     0.69289   0.52290   0.04478   0.00000  Uiso   1.00
C356   C     0.99023   0.48447   0.40944   0.00000  Uiso   1.00
C357   C     0.67626   0.51514   0.09055   0.00000  Uiso   1.00
C358   C     0.90906   0.50306   0.40753   0.00000  Uiso   1.00
C359   C     0.75756   0.49700   0.09240   0.00000  Uiso   1.00
C360   C     0.89133   0.49693   0.45404   0.00000  Uiso   1.00
C361   C     0.77514   0.50291   0.04585   0.00000  Uiso   1.00
C362   C     0.92364   0.48033   0.47756   0.00000  Uiso   1.00
C363   C     0.85620   0.47393   0.04386   0.00000  Uiso   1.00
C364   C     0.74273   0.51933   0.02232   0.00000  Uiso   1.00
C365   C     0.84200   0.50543   0.47708   0.00000  Uiso   1.00
C366   C     0.82443   0.49436   0.02279   0.00000  Uiso   1.00
C367   C     0.93455   0.44378   0.04719   0.00000  Uiso   1.00
C368   C     0.73204   0.55549   0.45208   0.00000  Uiso   1.00
C369   C     0.81017   0.52574   0.45597   0.00000  Uiso   1.00
C370   C     0.90519   0.46737   0.02239   0.00000  Uiso   1.00
C371   C     0.76117   0.53224   0.47740   0.00000  Uiso   1.00
C372   C     0.95748   0.35461   0.24989   0.00000  Uiso   1.00
C373   C     0.70918   0.64539   0.25016   0.00000  Uiso   1.00
C374   C     0.95750   0.64538   0.24985   0.00000  Uiso   1.00
Cu375  Cu    0.71355   0.50001   0.25000   0.00000  Uiso   1.00
Cu376  Cu    0.95311   0.49999   0.25000   0.00000  Uiso   1.00
H377   H     0.78160   0.48915   0.11263   0.00000  Uiso   1.00
H378   H     0.74242   0.62938   0.25027   0.00000  Uiso   1.00
H379   H     0.92427   0.62936   0.24970   0.00000  Uiso   1.00
H380   H     0.74238   0.37064   0.25034   0.00000  Uiso   1.00
H381   H     0.86129   0.45718   0.30357   0.00000  Uiso   1.00
H382   H     0.80537   0.54283   0.19644   0.00000  Uiso   1.00
H383   H     0.77431   0.45732   0.30362   0.00000  Uiso   1.00
H384   H     0.89235   0.54270   0.19639   0.00000  Uiso   1.00
H385   H     0.98481   0.39986   0.04603   0.00000  Uiso   1.00
H386   H     0.71991   0.56788   0.39201   0.00000  Uiso   1.00
H387   H     0.88517   0.51121   0.38727   0.00000  Uiso   1.00
H388   H     0.97153   0.51986   0.10722   0.00000  Uiso   1.00
H389   H     0.69492   0.47958   0.39280   0.00000  Uiso   1.00
H390   H     0.66668   0.46752   0.47253   0.00000  Uiso   1.00
H391   H     0.99954   0.53188   0.02755   0.00000  Uiso   1.00
H392   H     0.84334   0.46075   0.07686   0.00000  Uiso   1.00
H393   H     0.82299   0.53884   0.42295   0.00000  Uiso   1.00
H394   H     0.92424   0.37062   0.24978   0.00000  Uiso   1.00
N395   N     0.78403   0.50001   0.24999   0.00000  Uiso   1.00
N396   N     0.88264   0.49999   0.25001   0.00000  Uiso   1.00
O397   O     0.70625   0.43989   0.25000   0.00000  Uiso   1.00
O398   O     0.96760   0.41390   0.02530   0.00000  Uiso   1.00
O399   O     0.70180   0.58074   0.47098   0.00000  Uiso   1.00
O400   O     0.74145   0.55016   0.40572   0.00000  Uiso   1.00
O401   O     0.96042   0.56011   0.25000   0.00000  Uiso   1.00
O402   O     0.96039   0.43988   0.25000   0.00000  Uiso   1.00
O403   O     0.70628   0.56012   0.24999   0.00000  Uiso   1.00
O404   O     0.68519   0.50001   0.31491   0.00000  Uiso   1.00
O405   O     0.98148   0.49999   0.18508   0.00000  Uiso   1.00
O406   O     0.93933   0.50000   0.31492   0.00000  Uiso   1.00
O407   O     0.72733   0.50000   0.18508   0.00000  Uiso   1.00
O408   O     0.92800   0.44909   0.08748   0.00000  Uiso   1.00
C409   C     0.33331   0.75402   0.25003   0.00000  Uiso   1.00
C410   C     0.04249   0.68796   0.25020   0.00000  Uiso   1.00
C411   C     0.00001   0.95726   0.24999   0.00000  Uiso   1.00
C412   C     0.33331   0.70941   0.25005   0.00000  Uiso   1.00
C413   C     0.18285   0.80961   0.27977   0.00000  Uiso   1.00
C414   C     0.15049   0.85706   0.22023   0.00000  Uiso   1.00
C415   C     0.13324   0.80965   0.27979   0.00000  Uiso   1.00
C416   C     0.20009   0.85702   0.22022   0.00000  Uiso   1.00
C417   C     0.30611   0.83281   0.33610   0.00000  Uiso   1.00
C418   C     0.02722   0.83384   0.16390   0.00000  Uiso   1.00
C419   C     0.29105   0.82973   0.38518   0.00000  Uiso   1.00
C420   C     0.00002   0.91264   0.24998   0.00000  Uiso   1.00
C421   C     0.04223   0.83685   0.11481   0.00000  Uiso   1.00
C422   C     0.30681   0.80999   0.45519   0.00000  Uiso   1.00
C423   C     0.02622   0.85623   0.04478   0.00000  Uiso   1.00
C424   C     0.32356   0.81780   0.40944   0.00000  Uiso   1.00
C425   C     0.00959   0.84848   0.09055   0.00000  Uiso   1.00
C426   C     0.24239   0.83640   0.40753   0.00000  Uiso   1.00
C427   C     0.09089   0.83033   0.09240   0.00000  Uiso   1.00
C428   C     0.22466   0.83027   0.45404   0.00000  Uiso   1.00
C429   C     0.10847   0.83624   0.04585   0.00000  Uiso   1.00
C430   C     0.25697   0.81367   0.47756   0.00000  Uiso   1.00
C431   C     0.18953   0.80727   0.04386   0.00000  Uiso   1.00
C432   C     0.07607   0.85266   0.02232   0.00000  Uiso   1.00
C433   C     0.17533   0.83877   0.47708   0.00000  Uiso   1.00
C434   C     0.15776   0.82769   0.02279   0.00000  Uiso   1.00
C435   C     0.26788   0.77711   0.04719   0.00000  Uiso   1.00
C436   C     0.06537   0.88882   0.45208   0.00000  Uiso   1.00
C437   C     0.14350   0.85907   0.45597   0.00000  Uiso   1.00
C438   C     0.23852   0.80070   0.02239   0.00000  Uiso   1.00
C439   C     0.09451   0.86557   0.47740   0.00000  Uiso   1.00
C440   C     0.29081   0.68794   0.24989   0.00000  Uiso   1.00
C441   C     0.04251   0.97872   0.25016   0.00000  Uiso   1.00
C442   C     0.29083   0.97871   0.24985   0.00000  Uiso   1.00
Cu443  Cu    0.04689   0.83334   0.25000   0.00000  Uiso   1.00
Cu444  Cu    0.28645   0.83333   0.25000   0.00000  Uiso   1.00
H445   H     0.11493   0.82248   0.11263   0.00000  Uiso   1.00
H446   H     0.07575   0.96272   0.25027   0.00000  Uiso   1.00
H447   H     0.25761   0.96270   0.24970   0.00000  Uiso   1.00
H448   H     0.07572   0.70397   0.25034   0.00000  Uiso   1.00
H449   H     0.19462   0.79052   0.30357   0.00000  Uiso   1.00
H450   H     0.13870   0.87616   0.19644   0.00000  Uiso   1.00
H451   H     0.10764   0.79065   0.30362   0.00000  Uiso   1.00
H452   H     0.22569   0.87603   0.19639   0.00000  Uiso   1.00
H453   H     0.31815   0.73319   0.04603   0.00000  Uiso   1.00
H454   H     0.05324   0.90121   0.39201   0.00000  Uiso   1.00
H455   H     0.21850   0.84454   0.38727   0.00000  Uiso   1.00
H456   H     0.30487   0.85319   0.10722   0.00000  Uiso   1.00
H457   H     0.02826   0.81291   0.39280   0.00000  Uiso   1.00
H458   H     0.00001   0.80085   0.47253   0.00000  Uiso   1.00
H459   H     0.33287   0.86522   0.02755   0.00000  Uiso   1.00
H460   H     0.17667   0.79408   0.07686   0.00000  Uiso   1.00
H461   H     0.15632   0.87217   0.42295   0.00000  Uiso   1.00
H462   H     0.25757   0.70395   0.24978   0.00000  Uiso   1.00
N463   N     0.11736   0.83334   0.24999   0.00000  Uiso   1.00
N464   N     0.21597   0.83332   0.25001   0.00000  Uiso   1.00
O465   O     0.03958   0.77322   0.25000   0.00000  Uiso   1.00
O466   O     0.30093   0.74724   0.02530   0.00000  Uiso   1.00
O467   O     0.03513   0.91407   0.47098   0.00000  Uiso   1.00
O468   O     0.07479   0.88349   0.40572   0.00000  Uiso   1.00
O469   O     0.29375   0.89345   0.25000   0.00000  Uiso   1.00
O470   O     0.29372   0.77321   0.25000   0.00000  Uiso   1.00
O471   O     0.03961   0.89346   0.24999   0.00000  Uiso   1.00
O472   O     0.01852   0.83334   0.31491   0.00000  Uiso   1.00
O473   O     0.31481   0.83332   0.18508   0.00000  Uiso   1.00
O474   O     0.27267   0.83333   0.31492   0.00000  Uiso   1.00
O475   O     0.06067   0.83333   0.18508   0.00000  Uiso   1.00
O476   O     0.26133   0.78243   0.08748   0.00000  Uiso   1.00
C477   C     0.66664   0.75402   0.25003   0.00000  Uiso   1.00
C478   C     0.37582   0.68796   0.25020   0.00000  Uiso   1.00
C479   C     0.33334   0.95726   0.24999   0.00000  Uiso   1.00
C480   C     0.66665   0.70941   0.25005   0.00000  Uiso   1.00
C481   C     0.51618   0.80961   0.27977   0.00000  Uiso   1.00
C482   C     0.48382   0.85706   0.22023   0.00000  Uiso   1.00
C483   C     0.46657   0.80965   0.27979   0.00000  Uiso   1.00
C484   C     0.53343   0.85702   0.22022   0.00000  Uiso   1.00
C485   C     0.63945   0.83281   0.33610   0.00000  Uiso   1.00
C486   C     0.36055   0.83384   0.16390   0.00000  Uiso   1.00
C487   C     0.62439   0.82973   0.38518   0.00000  Uiso   1.00
C488   C     0.33335   0.91264   0.24998   0.00000  Uiso   1.00
C489   C     0.37556   0.83685   0.11481   0.00000  Uiso   1.00
C490   C     0.64014   0.80999   0.45519   0.00000  Uiso   1.00
C491   C     0.35956   0.85623   0.04478   0.00000  Uiso   1.00
C492   C     0.65690   0.81780   0.40944   0.00000  Uiso   1.00
C493   C     0.34292   0.84848   0.09055   0.00000  Uiso   1.00
C494   C     0.57572   0.83640   0.40753   0.00000  Uiso   1.00
C495   C     0.42423   0.83033   0.09240   0.00000  Uiso   1.00
C496   C     0.55799   0.83027   0.45404   0.00000  Uiso   1.00
C497   C     0.44181   0.83624   0.04585   0.00000  Uiso   1.00
C498   C     0.59030   0.81367   0.47756   0.00000  Uiso   1.00
C499   C     0.52287   0.80727   0.04386   0.00000  Uiso   1.00
C500   C     0.40940   0.85266   0.02232   0.00000  Uiso   1.00
C501   C     0.50867   0.83877   0.47708   0.00000  Uiso   1.00
C502   C     0.49110   0.82769   0.02279   0.00000  Uiso   1.00
C503   C     0.60122   0.77711   0.04719   0.00000  Uiso   1.00
C504   C     0.39871   0.88882   0.45208   0.00000  Uiso   1.00
C505   C     0.47683   0.85907   0.45597   0.00000  Uiso   1.00
C506   C     0.57186   0.80070   0.02239   0.00000  Uiso   1.00
C507   C     0.42784   0.86557   0.47740   0.00000  Uiso   1.00
C508   C     0.62415   0.68794   0.24989   0.00000  Uiso   1.00
C509   C     0.37584   0.97872   0.25016   0.00000  Uiso   1.00
C510   C     0.62416   0.97871   0.24985   0.00000  Uiso   1.00
Cu511  Cu    0.38022   0.83334   0.25000   0.00000  Uiso   1.00
Cu512  Cu    0.61978   0.83333   0.25000   0.00000  Uiso   1.00
H513   H     0.44826   0.82248   0.11263   0.00000  Uiso   1.00
H514   H     0.40908   0.96272   0.25027   0.00000  Uiso   1.00
H515   H     0.59094   0.96270   0.24970   0.00000  Uiso   1.00
H516   H     0.40905   0.70397   0.25034   0.00000  Uiso   1.00
H517   H     0.52796   0.79052   0.30357   0.00000  Uiso   1.00
H518   H     0.47204   0.87616   0.19644   0.00000  Uiso   1.00
H519   H     0.44097   0.79065   0.30362   0.00000  Uiso   1.00
H520   H     0.55902   0.87603   0.19639   0.00000  Uiso   1.00
H521   H     0.65148   0.73319   0.04603   0.00000  Uiso   1.00
H522   H     0.38658   0.90121   0.39201   0.00000  Uiso   1.00
H523   H     0.55184   0.84454   0.38727   0.00000  Uiso   1.00
H524   H     0.63820   0.85319   0.10722   0.00000  Uiso   1.00
H525   H     0.36159   0.81291   0.39280   0.00000  Uiso   1.00
H526   H     0.33335   0.80085   0.47253   0.00000  Uiso   1.00
H527   H     0.66620   0.86522   0.02755   0.00000  Uiso   1.00
H528   H     0.51001   0.79408   0.07686   0.00000  Uiso   1.00
H529   H     0.48965   0.87217   0.42295   0.00000  Uiso   1.00
H530   H     0.59090   0.70395   0.24978   0.00000  Uiso   1.00
N531   N     0.45069   0.83334   0.24999   0.00000  Uiso   1.00
N532   N     0.54931   0.83332   0.25001   0.00000  Uiso   1.00
O533   O     0.37291   0.77322   0.25000   0.00000  Uiso   1.00
O534   O     0.63426   0.74724   0.02530   0.00000  Uiso   1.00
O535   O     0.36847   0.91407   0.47098   0.00000  Uiso   1.00
O536   O     0.40812   0.88349   0.40572   0.00000  Uiso   1.00
O537   O     0.62709   0.89345   0.25000   0.00000  Uiso   1.00
O538   O     0.62706   0.77321   0.25000   0.00000  Uiso   1.00
O539   O     0.37294   0.89346   0.24999   0.00000  Uiso   1.00
O540   O     0.35186   0.83334   0.31491   0.00000  Uiso   1.00
O541   O     0.64814   0.83332   0.18508   0.00000  Uiso   1.00
O542   O     0.60600   0.83333   0.31492   0.00000  Uiso   1.00
O543   O     0.39400   0.83333   0.18508   0.00000  Uiso   1.00
O544   O     0.59467   0.78243   0.08748   0.00000  Uiso   1.00
C545   C     0.99998   0.75402   0.25003   0.00000  Uiso   1.00
C546   C     0.70916   0.68796   0.25020   0.00000  Uiso   1.00
C547   C     0.66668   0.95726   0.24999   0.00000  Uiso   1.00
C548   C     0.99998   0.70941   0.25005   0.00000  Uiso   1.00
C549   C     0.84951   0.80961   0.27977   0.00000  Uiso   1.00
C550   C     0.81715   0.85706   0.22023   0.00000  Uiso   1.00
C551   C     0.79990   0.80965   0.27979   0.00000  Uiso   1.00
C552   C     0.86676   0.85702   0.22022   0.00000  Uiso   1.00
C553   C     0.97278   0.83281   0.33610   0.00000  Uiso   1.00
C554   C     0.69388   0.83384   0.16390   0.00000  Uiso   1.00
C555   C     0.95772   0.82973   0.38518   0.00000  Uiso   1.00
C556   C     0.66668   0.91264   0.24998   0.00000  Uiso   1.00
C557   C     0.70889   0.83685   0.11481   0.00000  Uiso   1.00
C558   C     0.97347   0.80999   0.45519   0.00000  Uiso   1.00
C559   C     0.69289   0.85623   0.04478   0.00000  Uiso   1.00
C560   C     0.99023   0.81780   0.40944   0.00000  Uiso   1.00
C561   C     0.67626   0.84848   0.09055   0.00000  Uiso   1.00
C562   C     0.90906   0.83640   0.40753   0.00000  Uiso   1.00
C563   C     0.75756   0.83033   0.09240   0.00000  Uiso   1.00
C564   C     0.89133   0.83027   0.45404   0.00000  Uiso   1.00
C565   C     0.77514   0.83624   0.04585   0.00000  Uiso   1.00
C566   C     0.92364   0.81367   0.47756   0.00000  Uiso   1.00
C567   C     0.85620   0.80727   0.04386   0.00000  Uiso   1.00
C568   C     0.74273   0.85266   0.02232   0.00000  Uiso   1.00
C569   C     0.84200   0.83877   0.47708   0.00000  Uiso   1.00
C570   C     0.82443   0.82769   0.02279   0.00000  Uiso   1.00
C571   C     0.93455   0.77711   0.04719   0.00000  Uiso   1.00
C572   C     0.73204   0.88882   0.45208   0.00000  Uiso   1.00
C573   C     0.81017   0.85907   0.45597   0.00000  Uiso   1.00
C574   C     0.90519   0.80070   0.02239   0.00000  Uiso   1.00
C575   C     0.76117   0.86557   0.47740   0.00000  Uiso   1.00
C576   C     0.95748   0.68794   0.24989   0.00000  Uiso   1.00
C577   C     0.70918   0.97872   0.25016   0.00000  Uiso   1.00
C578   C     0.95750   0.97871   0.24985   0.00000  Uiso   1.00
Cu579  Cu    0.71355   0.83334   0.25000   0.00000  Uiso   1.00
Cu580  Cu    0.95311   0.83333   0.25000   0.00000  Uiso   1.00
H581   H     0.78160   0.82248   0.11263   0.00000  Uiso   1.00
H582   H     0.74242   0.96272   0.25027   0.00000  Uiso   1.00
H583   H     0.92427   0.96270   0.24970   0.00000  Uiso   1.00
H584   H     0.74238   0.70397   0.25034   0.00000  Uiso   1.00
H585   H     0.86129   0.79052   0.30357   0.00000  Uiso   1.00
H586   H     0.80537   0.87616   0.19644   0.00000  Uiso   1.00
H587   H     0.77431   0.79065   0.30362   0.00000  Uiso   1.00
H588   H     0.89235   0.87603   0.19639   0.00000  Uiso   1.00
H589   H     0.98481   0.73319   0.04603   0.00000  Uiso   1.00
H590   H     0.71991   0.90121   0.39201   0.00000  Uiso   1.00
H591   H     0.88517   0.84454   0.38727   0.00000  Uiso   1.00
H592   H     0.97153   0.85319   0.10722   0.00000  Uiso   1.00
H593   H     0.69492   0.81291   0.39280   0.00000  Uiso   1.00
H594   H     0.66668   0.80085   0.47253   0.00000  Uiso   1.00
H595   H     0.99954   0.86522   0.02755   0.00000  Uiso   1.00
H596   H     0.84334   0.79408   0.07686   0.00000  Uiso   1.00
H597   H     0.82299   0.87217   0.42295   0.00000  Uiso   1.00
H598   H     0.92424   0.70395   0.24978   0.00000  Uiso   1.00
N599   N     0.78403   0.83334   0.24999   0.00000  Uiso   1.00
N600   N     0.88264   0.83332   0.25001   0.00000  Uiso   1.00
O601   O     0.70625   0.77322   0.25000   0.00000  Uiso   1.00
O602   O     0.96760   0.74724   0.02530   0.00000  Uiso   1.00
O603   O     0.70180   0.91407   0.47098   0.00000  Uiso   1.00
O604   O     0.74145   0.88349   0.40572   0.00000  Uiso   1.00
O605   O     0.96042   0.89345   0.25000   0.00000  Uiso   1.00
O606   O     0.96039   0.77321   0.25000   0.00000  Uiso   1.00
O607   O     0.70628   0.89346   0.24999   0.00000  Uiso   1.00
O608   O     0.68519   0.83334   0.31491   0.00000  Uiso   1.00
O609   O     0.98148   0.83332   0.18508   0.00000  Uiso   1.00
O610   O     0.93933   0.83333   0.31492   0.00000  Uiso   1.00
O611   O     0.72733   0.83333   0.18508   0.00000  Uiso   1.00
O612   O     0.92800   0.78243   0.08748   0.00000  Uiso   1.00
C613   C     0.33331   0.08736   0.75003   0.00000  Uiso   1.00
C614   C     0.04249   0.02129   0.75020   0.00000  Uiso   1.00
C615   C     0.00001   0.29059   0.74999   0.00000  Uiso   1.00
C616   C     0.33331   0.04274   0.75005   0.00000  Uiso   1.00
C617   C     0.18285   0.14294   0.77977   0.00000  Uiso   1.00
C618   C     0.15049   0.19040   0.72023   0.00000  Uiso   1.00
C619   C     0.13324   0.14299   0.77979   0.00000  Uiso   1.00
C620   C     0.20009   0.19036   0.72022   0.00000  Uiso   1.00
C621   C     0.30611   0.16614   0.83610   0.00000  Uiso   1.00
C622   C     0.02722   0.16718   0.66390   0.00000  Uiso   1.00
C623   C     0.29105   0.16306   0.88518   0.00000  Uiso   1.00
C624   C     0.00002   0.24598   0.74998   0.00000  Uiso   1.00
C625   C     0.04223   0.17019   0.61481   0.00000  Uiso   1.00
C626   C     0.30681   0.14332   0.95519   0.00000  Uiso   1.00
C627   C     0.02622   0.18956   0.54478   0.00000  Uiso   1.00
C628   C     0.32356   0.15114   0.90944   0.00000  Uiso   1.00
C629   C     0.00959   0.18181   0.59055   0.00000  Uiso   1.00
C630   C     0.24239   0.16973   0.90753   0.00000  Uiso   1.00
C631   C     0.09089   0.16367   0.59240   0.00000  Uiso   1.00
C632   C     0.22466   0.16360   0.95404   0.00000  Uiso   1.00
C633   C     0.10847   0.16957   0.54585   0.00000  Uiso   1.00
C634   C     0.25697   0.14700   0.97756   0.00000  Uiso   1.00
C635   C     0.18953   0.14060   0.54386   0.00000  Uiso   1.00
C636   C     0.07607   0.18600   0.52232   0.00000  Uiso   1.00
C637   C     0.17533   0.17210   0.97708   0.00000  Uiso   1.00
C638   C     0.15776   0.16102   0.52279   0.00000  Uiso   1.00
C639   C     0.26788   0.11045   0.54719   0.00000  Uiso   1.00
C640   C     0.06537   0.22216   0.95208   0.00000  Uiso   1.00
C641   C     0.14350   0.19240   0.95597   0.00000  Uiso   1.00
C642   C     0.23852   0.13403   0.52239   0.00000  Uiso   1.00
C643   C     0.09451   0.19890   0.97740   0.00000  Uiso   1.00
C644   C     0.29081   0.02128   0.74989   0.00000  Uiso   1.00
C645   C     0.04251   0.31205   0.75016   0.00000  Uiso   1.00
C646   C     0.29083   0.31204   0.74985   0.00000  Uiso   1.00
Cu647  Cu    0.04689   0.16667   0.75000   0.00000  Uiso   1.00
Cu648  Cu    0.28645   0.16666   0.75000   0.00000  Uiso   1.00
H649   H     0.11493   0.15581   0.61263   0.00000  Uiso   1.00
H650   H     0.07575   0.29605   0.75027   0.00000  Uiso   1.00
H651   H     0.25761   0.29603   0.74970   0.00000  Uiso   1.00
H652   H     0.07572   0.03730   0.75034   0.00000  Uiso   1.00
H653   H     0.19462   0.12385   0.80357   0.00000  Uiso   1.00
H654   H     0.13870   0.20950   0.69644   0.00000  Uiso   1.00
H655   H     0.10764   0.12399   0.80362   0.00000  Uiso   1.00
H656   H     0.22569   0.20936   0.69639   0.00000  Uiso   1.00
H657   H     0.31815   0.06652   0.54603   0.00000  Uiso   1.00
H658   H     0.05324   0.23455   0.89201   0.00000  Uiso   1.00
H659   H     0.21850   0.17787   0.88727   0.00000  Uiso   1.00
H660   H     0.30487   0.18652   0.60722   0.00000  Uiso   1.00
H661   H     0.02826   0.14625   0.89280   0.00000  Uiso   1.00
H662   H     0.00001   0.13418   0.97253   0.00000  Uiso   1.00
H663   H     0.33287   0.19855   0.52755   0.00000  Uiso   1.00
H664   H     0.17667   0.12742   0.57686   0.00000  Uiso   1.00
H665   H     0.15632   0.20551   0.92295   0.00000  Uiso   1.00
H666   H     0.25757   0.03728   0.74978   0.00000  Uiso   1.00
N667   N     0.11736   0.16668   0.74999   0.00000  Uiso   1.00
N668   N     0.21597   0.16666   0.75001   0.00000  Uiso   1.00
O669   O     0.03958   0.10655   0.75000   0.00000  Uiso   1.00
O670   O     0.30093   0.08057   0.52530   0.00000  Uiso   1.00
O671   O     0.03513   0.24740   0.97098   0.00000  Uiso   1.00
O672   O     0.07479   0.21682   0.90572   0.00000  Uiso   1.00
O673   O     0.29375   0.22678   0.75000   0.00000  Uiso   1.00
O674   O     0.29372   0.10654   0.75000   0.00000  Uiso   1.00
O675   O     0.03961   0.22679   0.74999   0.00000  Uiso   1.00
O676   O     0.01852   0.16668   0.81491   0.00000  Uiso   1.00
O677   O     0.31481   0.16666   0.68508   0.00000  Uiso   1.00
O678   O     0.27267   0.16667   0.81492   0.00000  Uiso   1.00
O679   O     0.06067   0.16667   0.68508   0.00000  Uiso   1.00
O680   O     0.26133   0.11576   0.58748   0.00000  Uiso   1.00
C681   C     0.66664   0.08736   0.75003   0.00000  Uiso   1.00
C682   C     0.37582   0.02129   0.75020   0.00000  Uiso   1.00
C683   C     0.33334   0.29059   0.74999   0.00000  Uiso   1.00
C684   C     0.66665   0.04274   0.75005   0.00000  Uiso   1.00
C685   C     0.51618   0.14294   0.77977   0.00000  Uiso   1.00
C686   C     0.48382   0.19040   0.72023   0.00000  Uiso   1.00
C687   C     0.46657   0.14299   0.77979   0.00000  Uiso   1.00
C688   C     0.53343   0.19036   0.72022   0.00000  Uiso   1.00
C689   C     0.63945   0.16614   0.83610   0.00000  Uiso   1.00
C690   C     0.36055   0.16718   0.66390   0.00000  Uiso   1.00
C691   C     0.62439   0.16306   0.88518   0.00000  Uiso   1.00
C692   C     0.33335   0.24598   0.74998   0.00000  Uiso   1.00
C693   C     0.37556   0.17019   0.61481   0.00000  Uiso   1.00
C694   C     0.64014   0.14332   0.95519   0.00000  Uiso   1.00
C695   C     0.35956   0.18956   0.54478   0.00000  Uiso   1.00
C696   C     0.65690   0.15114   0.90944   0.00000  Uiso   1.00
C697   C     0.34292   0.18181   0.59055   0.00000  Uiso   1.00
C698   C     0.57572   0.16973   0.90753   0.00000  Uiso   1.00
C699   C     0.42423   0.16367   0.59240   0.00000  Uiso   1.00
C700   C     0.55799   0.16360   0.95404   0.00000  Uiso   1.00
C701   C     0.44181   0.16957   0.54585   0.00000  Uiso   1.00
C702   C     0.59030   0.14700   0.97756   0.00000  Uiso   1.00
C703   C     0.52287   0.14060   0.54386   0.00000  Uiso   1.00
C704   C     0.40940   0.18600   0.52232   0.00000  Uiso   1.00
C705   C     0.50867   0.17210   0.97708   0.00000  Uiso   1.00
C706   C     0.49110   0.16102   0.52279   0.00000  Uiso   1.00
C707   C     0.60122   0.11045   0.54719   0.00000  Uiso   1.00
C708   C     0.39871   0.22216   0.95208   0.00000  Uiso   1.00
C709   C     0.47683   0.19240   0.95597   0.00000  Uiso   1.00
C710   C     0.57186   0.13403   0.52239   0.00000  Uiso   1.00
C711   C     0.42784   0.19890   0.97740   0.00000  Uiso   1.00
C712   C     0.62415   0.02128   0.74989   0.00000  Uiso   1.00
C713   C     0.37584   0.31205   0.75016   0.00000  Uiso   1.00
C714   C     0.62416   0.31204   0.74985   0.00000  Uiso   1.00
Cu715  Cu    0.38022   0.16667   0.75000   0.00000  Uiso   1.00
Cu716  Cu    0.61978   0.16666   0.75000   0.00000  Uiso   1.00
H717   H     0.44826   0.15581   0.61263   0.00000  Uiso   1.00
H718   H     0.40908   0.29605   0.75027   0.00000  Uiso   1.00
H719   H     0.59094   0.29603   0.74970   0.00000  Uiso   1.00
H720   H     0.40905   0.03730   0.75034   0.00000  Uiso   1.00
H721   H     0.52796   0.12385   0.80357   0.00000  Uiso   1.00
H722   H     0.47204   0.20950   0.69644   0.00000  Uiso   1.00
H723   H     0.44097   0.12399   0.80362   0.00000  Uiso   1.00
H724   H     0.55902   0.20936   0.69639   0.00000  Uiso   1.00
H725   H     0.65148   0.06652   0.54603   0.00000  Uiso   1.00
H726   H     0.38658   0.23455   0.89201   0.00000  Uiso   1.00
H727   H     0.55184   0.17787   0.88727   0.00000  Uiso   1.00
H728   H     0.63820   0.18652   0.60722   0.00000  Uiso   1.00
H729   H     0.36159   0.14625   0.89280   0.00000  Uiso   1.00
H730   H     0.33335   0.13418   0.97253   0.00000  Uiso   1.00
H731   H     0.66620   0.19855   0.52755   0.00000  Uiso   1.00
H732   H     0.51001   0.12742   0.57686   0.00000  Uiso   1.00
H733   H     0.48965   0.20551   0.92295   0.00000  Uiso   1.00
H734   H     0.59090   0.03728   0.74978   0.00000  Uiso   1.00
N735   N     0.45069   0.16668   0.74999   0.00000  Uiso   1.00
N736   N     0.54931   0.16666   0.75001   0.00000  Uiso   1.00
O737   O     0.37291   0.10655   0.75000   0.00000  Uiso   1.00
O738   O     0.63426   0.08057   0.52530   0.00000  Uiso   1.00
O739   O     0.36847   0.24740   0.97098   0.00000  Uiso   1.00
O740   O     0.40812   0.21682   0.90572   0.00000  Uiso   1.00
O741   O     0.62709   0.22678   0.75000   0.00000  Uiso   1.00
O742   O     0.62706   0.10654   0.75000   0.00000  Uiso   1.00
O743   O     0.37294   0.22679   0.74999   0.00000  Uiso   1.00
O744   O     0.35186   0.16668   0.81491   0.00000  Uiso   1.00
O745   O     0.64814   0.16666   0.68508   0.00000  Uiso   1.00
O746   O     0.60600   0.16667   0.81492   0.00000  Uiso   1.00
O747   O     0.39400   0.16667   0.68508   0.00000  Uiso   1.00
O748   O     0.59467   0.11576   0.58748   0.00000  Uiso   1.00
C749   C     0.99998   0.08736   0.75003   0.00000  Uiso   1.00
C750   C     0.70916   0.02129   0.75020   0.00000  Uiso   1.00
C751   C     0.66668   0.29059   0.74999   0.00000  Uiso   1.00
C752   C     0.99998   0.04274   0.75005   0.00000  Uiso   1.00
C753   C     0.84951   0.14294   0.77977   0.00000  Uiso   1.00
C754   C     0.81715   0.19040   0.72023   0.00000  Uiso   1.00
C755   C     0.79990   0.14299   0.77979   0.00000  Uiso   1.00
C756   C     0.86676   0.19036   0.72022   0.00000  Uiso   1.00
C757   C     0.97278   0.16614   0.83610   0.00000  Uiso   1.00
C758   C     0.69388   0.16718   0.66390   0.00000  Uiso   1.00
C759   C     0.95772   0.16306   0.88518   0.00000  Uiso   1.00
C760   C     0.66668   0.24598   0.74998   0.00000  Uiso   1.00
C761   C     0.70889   0.17019   0.61481   0.00000  Uiso   1.00
C762   C     0.97347   0.14332   0.95519   0.00000  Uiso   1.00
C763   C     0.69289   0.18956   0.54478   0.00000  Uiso   1.00
C764   C     0.99023   0.15114   0.90944   0.00000  Uiso   1.00
C765   C     0.67626   0.18181   0.59055   0.00000  Uiso   1.00
C766   C     0.90906   0.16973   0.90753   0.00000  Uiso   1.00
C767   C     0.75756   0.16367   0.59240   0.00000  Uiso   1.00
C768   C     0.89133   0.16360   0.95404   0.00000  Uiso   1.00
C769   C     0.77514   0.16957   0.54585   0.00000  Uiso   1.00
C770   C     0.92364   0.14700   0.97756   0.00000  Uiso   1.00
C771   C     0.85620   0.14060   0.54386   0.00000  Uiso   1.00
C772   C     0.74273   0.18600   0.52232   0.00000  Uiso   1.00
C773   C     0.84200   0.17210   0.97708   0.00000  Uiso   1.00
C774   C     0.82443   0.16102   0.52279   0.00000  Uiso   1.00
C775   C     0.93455   0.11045   0.54719   0.00000  Uiso   1.00
C776   C     0.73204   0.22216   0.95208   0.00000  Uiso   1.00
C777   C     0.81017   0.19240   0.95597   0.00000  Uiso   1.00
C778   C     0.90519   0.13403   0.52239   0.00000  Uiso   1.00
C779   C     0.76117   0.19890   0.97740   0.00000  Uiso   1.00
C780   C     0.95748   0.02128   0.74989   0.00000  Uiso   1.00
C781   C     0.70918   0.31205   0.75016   0.00000  Uiso   1.00
C782   C     0.95750   0.31204   0.74985   0.00000  Uiso   1.00
Cu783  Cu    0.71355   0.16667   0.75000   0.00000  Uiso   1.00
Cu784  Cu    0.95311   0.16666   0.75000   0.00000  Uiso   1.00
H785   H     0.78160   0.15581   0.61263   0.00000  Uiso   1.00
H786   H     0.74242   0.29605   0.75027   0.00000  Uiso   1.00
H787   H     0.92427   0.29603   0.74970   0.00000  Uiso   1.00
H788   H     0.74238   0.03730   0.75034   0.00000  Uiso   1.00
H789   H     0.86129   0.12385   0.80357   0.00000  Uiso   1.00
H790   H     0.80537   0.20950   0.69644   0.00000  Uiso   1.00
H791   H     0.77431   0.12399   0.80362   0.00000  Uiso   1.00
H792   H     0.89235   0.20936   0.69639   0.00000  Uiso   1.00
H793   H     0.98481   0.06652   0.54603   0.00000  Uiso   1.00
H794   H     0.71991   0.23455   0.89201   0.00000  Uiso   1.00
H795   H     0.88517   0.17787   0.88727   0.00000  Uiso   1.00
H796   H     0.97153   0.18652   0.60722   0.00000  Uiso   1.00
H797   H     0.69492   0.14625   0.89280   0.00000  Uiso   1.00
H798   H     0.66668   0.13418   0.97253   0.00000  Uiso   1.00
H799   H     0.99954   0.19855   0.52755   0.00000  Uiso   1.00
H800   H     0.84334   0.12742   0.57686   0.00000  Uiso   1.00
H801   H     0.82299   0.20551   0.92295   0.00000  Uiso   1.00
H802   H     0.92424   0.03728   0.74978   0.00000  Uiso   1.00
N803   N     0.78403   0.16668   0.74999   0.00000  Uiso   1.00
N804   N     0.88264   0.16666   0.75001   0.00000  Uiso   1.00
O805   O     0.70625   0.10655   0.75000   0.00000  Uiso   1.00
O806   O     0.96760   0.08057   0.52530   0.00000  Uiso   1.00
O807   O     0.70180   0.24740   0.97098   0.00000  Uiso   1.00
O808   O     0.74145   0.21682   0.90572   0.00000  Uiso   1.00
O809   O     0.96042   0.22678   0.75000   0.00000  Uiso   1.00
O810   O     0.96039   0.10654   0.75000   0.00000  Uiso   1.00
O811   O     0.70628   0.22679   0.74999   0.00000  Uiso   1.00
O812   O     0.68519   0.16668   0.81491   0.00000  Uiso   1.00
O813   O     0.98148   0.16666   0.68508   0.00000  Uiso   1.00
O814   O     0.93933   0.16667   0.81492   0.00000  Uiso   1.00
O815   O     0.72733   0.16667   0.68508   0.00000  Uiso   1.00
O816   O     0.92800   0.11576   0.58748   0.00000  Uiso   1.00
C817   C     0.33331   0.42069   0.75003   0.00000  Uiso   1.00
C818   C     0.04249   0.35462   0.75020   0.00000  Uiso   1.00
C819   C     0.00001   0.62393   0.74999   0.00000  Uiso   1.00
C820   C     0.33331   0.37607   0.75005   0.00000  Uiso   1.00
C821   C     0.18285   0.47628   0.77977   0.00000  Uiso   1.00
C822   C     0.15049   0.52373   0.72023   0.00000  Uiso   1.00
C823   C     0.13324   0.47632   0.77979   0.00000  Uiso   1.00
C824   C     0.20009   0.52369   0.72022   0.00000  Uiso   1.00
C825   C     0.30611   0.49948   0.83610   0.00000  Uiso   1.00
C826   C     0.02722   0.50051   0.66390   0.00000  Uiso   1.00
C827   C     0.29105   0.49639   0.88518   0.00000  Uiso   1.00
C828   C     0.00002   0.57931   0.74998   0.00000  Uiso   1.00
C829   C     0.04223   0.50352   0.61481   0.00000  Uiso   1.00
C830   C     0.30681   0.47666   0.95519   0.00000  Uiso   1.00
C831   C     0.02622   0.52290   0.54478   0.00000  Uiso   1.00
C832   C     0.32356   0.48447   0.90944   0.00000  Uiso   1.00
C833   C     0.00959   0.51514   0.59055   0.00000  Uiso   1.00
C834   C     0.24239   0.50306   0.90753   0.00000  Uiso   1.00
C835   C     0.09089   0.49700   0.59240   0.00000  Uiso   1.00
C836   C     0.22466   0.49693   0.95404   0.00000  Uiso   1.00
C837   C     0.10847   0.50291   0.54585   0.00000  Uiso   1.00
C838   C     0.25697   0.48033   0.97756   0.00000  Uiso   1.00
C839   C     0.18953   0.47393   0.54386   0.00000  Uiso   1.00
C840   C     0.07607   0.51933   0.52232   0.00000  Uiso   1.00
C841   C     0.17533   0.50543   0.97708   0.00000  Uiso   1.00
C842   C     0.15776   0.49436   0.52279   0.00000  Uiso   1.00
C843   C     0.26788   0.44378   0.54719   0.00000  Uiso   1.00
C844   C     0.06537   0.55549   0.95208   0.00000  Uiso   1.00
C845   C     0.14350   0.52574   0.95597   0.00000  Uiso   1.00
C846   C     0.23852   0.46737   0.52239   0.00000  Uiso   1.00
C847   C     0.09451   0.53224   0.97740   0.00000  Uiso   1.00
C848   C     0.29081   0.35461   0.74989   0.00000  Uiso   1.00
C849   C     0.04251   0.64539   0.75016   0.00000  Uiso   1.00
C850   C     0.29083   0.64538   0.74985   0.00000  Uiso   1.00
Cu851  Cu    0.04689   0.50001   0.75000   0.00000  Uiso   1.00
Cu852  Cu    0.28645   0.49999   0.75000   0.00000  Uiso   1.00
H853   H     0.11493   0.48915   0.61263   0.00000  Uiso   1.00
H854   H     0.07575   0.62938   0.75027   0.00000  Uiso   1.00
H855   H     0.25761   0.62936   0.74970   0.00000  Uiso   1.00
H856   H     0.07572   0.37064   0.75034   0.00000  Uiso   1.00
H857   H     0.19462   0.45718   0.80357   0.00000  Uiso   1.00
H858   H     0.13870   0.54283   0.69644   0.00000  Uiso   1.00
H859   H     0.10764   0.45732   0.80362   0.00000  Uiso   1.00
H860   H     0.22569   0.54270   0.69639   0.00000  Uiso   1.00
H861   H     0.31815   0.39986   0.54603   0.00000  Uiso   1.00
H862   H     0.05324   0.56788   0.89201   0.00000  Uiso   1.00
H863   H     0.21850   0.51121   0.88727   0.00000  Uiso   1.00
H864   H     0.30487   0.51986   0.60722   0.00000  Uiso   1.00
H865   H     0.02826   0.47958   0.89280   0.00000  Uiso   1.00
H866   H     0.00001   0.46752   0.97253   0.00000  Uiso   1.00
H867   H     0.33287   0.53188   0.52755   0.00000  Uiso   1.00
H868   H     0.17667   0.46075   0.57686   0.00000  Uiso   1.00
H869   H     0.15632   0.53884   0.92295   0.00000  Uiso   1.00
H870   H     0.25757   0.37062   0.74978   0.00000  Uiso   1.00
N871   N     0.11736   0.50001   0.74999   0.00000  Uiso   1.00
N872   N     0.21597   0.49999   0.75001   0.00000  Uiso   1.00
O873   O     0.03958   0.43989   0.75000   0.00000  Uiso   1.00
O874   O     0.30093   0.41390   0.52530   0.00000  Uiso   1.00
O875   O     0.03513   0.58074   0.97098   0.00000  Uiso   1.00
O876   O     0.07479   0.55016   0.90572   0.00000  Uiso   1.00
O877   O     0.29375   0.56011   0.75000   0.00000  Uiso   1.00
O878   O     0.29372   0.43988   0.75000   0.00000  Uiso   1.00
O879   O     0.03961   0.56012   0.74999   0.00000  Uiso   1.00
O880   O     0.01852   0.50001   0.81491   0.00000  Uiso   1.00
O881   O     0.31481   0.49999   0.68508   0.00000  Uiso   1.00
O882   O     0.27267   0.50000   0.81492   0.00000  Uiso   1.00
O883   O     0.06067   0.50000   0.68508   0.00000  Uiso   1.00
O884   O     0.26133   0.44909   0.58748   0.00000  Uiso   1.00
C885   C     0.66664   0.42069   0.75003   0.00000  Uiso   1.00
C886   C     0.37582   0.35462   0.75020   0.00000  Uiso   1.00
C887   C     0.33334   0.62393   0.74999   0.00000  Uiso   1.00
C888   C     0.66665   0.37607   0.75005   0.00000  Uiso   1.00
C889   C     0.51618   0.47628   0.77977   0.00000  Uiso   1.00
C890   C     0.48382   0.52373   0.72023   0.00000  Uiso   1.00
C891   C     0.46657   0.47632   0.77979   0.00000  Uiso   1.00
C892   C     0.53343   0.52369   0.72022   0.00000  Uiso   1.00
C893   C     0.63945   0.49948   0.83610   0.00000  Uiso   1.00
C894   C     0.36055   0.50051   0.66390   0.00000  Uiso   1.00
C895   C     0.62439   0.49639   0.88518   0.00000  Uiso   1.00
C896   C     0.33335   0.57931   0.74998   0.00000  Uiso   1.00
C897   C     0.37556   0.50352   0.61481   0.00000  Uiso   1.00
C898   C     0.64014   0.47666   0.95519   0.00000  Uiso   1.00
C899   C     0.35956   0.52290   0.54478   0.00000  Uiso   1.00
C900   C     0.65690   0.48447   0.90944   0.00000  Uiso   1.00
C901   C     0.34292   0.51514   0.59055   0.00000  Uiso   1.00
C902   C     0.57572   0.50306   0.90753   0.00000  Uiso   1.00
C903   C     0.42423   0.49700   0.59240   0.00000  Uiso   1.00
C904   C     0.55799   0.49693   0.95404   0.00000  Uiso   1.00
C905   C     0.44181   0.50291   0.54585   0.00000  Uiso   1.00
C906   C     0.59030   0.48033   0.97756   0.00000  Uiso   1.00
C907   C     0.52287   0.47393   0.54386   0.00000  Uiso   1.00
C908   C     0.40940   0.51933   0.52232   0.00000  Uiso   1.00
C909   C     0.50867   0.50543   0.97708   0.00000  Uiso   1.00
C910   C     0.49110   0.49436   0.52279   0.00000  Uiso   1.00
C911   C     0.60122   0.44378   0.54719   0.00000  Uiso   1.00
C912   C     0.39871   0.55549   0.95208   0.00000  Uiso   1.00
C913   C     0.47683   0.52574   0.95597   0.00000  Uiso   1.00
C914   C     0.57186   0.46737   0.52239   0.00000  Uiso   1.00
C915   C     0.42784   0.53224   0.97740   0.00000  Uiso   1.00
C916   C     0.62415   0.35461   0.74989   0.00000  Uiso   1.00
C917   C     0.37584   0.64539   0.75016   0.00000  Uiso   1.00
C918   C     0.62416   0.64538   0.74985   0.00000  Uiso   1.00
Cu919  Cu    0.38022   0.50001   0.75000   0.00000  Uiso   1.00
Cu920  Cu    0.61978   0.49999   0.75000   0.00000  Uiso   1.00
H921   H     0.44826   0.48915   0.61263   0.00000  Uiso   1.00
H922   H     0.40908   0.62938   0.75027   0.00000  Uiso   1.00
H923   H     0.59094   0.62936   0.74970   0.00000  Uiso   1.00
H924   H     0.40905   0.37064   0.75034   0.00000  Uiso   1.00
H925   H     0.52796   0.45718   0.80357   0.00000  Uiso   1.00
H926   H     0.47204   0.54283   0.69644   0.00000  Uiso   1.00
H927   H     0.44097   0.45732   0.80362   0.00000  Uiso   1.00
H928   H     0.55902   0.54270   0.69639   0.00000  Uiso   1.00
H929   H     0.65148   0.39986   0.54603   0.00000  Uiso   1.00
H930   H     0.38658   0.56788   0.89201   0.00000  Uiso   1.00
H931   H     0.55184   0.51121   0.88727   0.00000  Uiso   1.00
H932   H     0.63820   0.51986   0.60722   0.00000  Uiso   1.00
H933   H     0.36159   0.47958   0.89280   0.00000  Uiso   1.00
H934   H     0.33335   0.46752   0.97253   0.00000  Uiso   1.00
H935   H     0.66620   0.53188   0.52755   0.00000  Uiso   1.00
H936   H     0.51001   0.46075   0.57686   0.00000  Uiso   1.00
H937   H     0.48965   0.53884   0.92295   0.00000  Uiso   1.00
H938   H     0.59090   0.37062   0.74978   0.00000  Uiso   1.00
N939   N     0.45069   0.50001   0.74999   0.00000  Uiso   1.00
N940   N     0.54931   0.49999   0.75001   0.00000  Uiso   1.00
O941   O     0.37291   0.43989   0.75000   0.00000  Uiso   1.00
O942   O     0.63426   0.41390   0.52530   0.00000  Uiso   1.00
O943   O     0.36847   0.58074   0.97098   0.00000  Uiso   1.00
O944   O     0.40812   0.55016   0.90572   0.00000  Uiso   1.00
O945   O     0.62709   0.56011   0.75000   0.00000  Uiso   1.00
O946   O     0.62706   0.43988   0.75000   0.00000  Uiso   1.00
O947   O     0.37294   0.56012   0.74999   0.00000  Uiso   1.00
O948   O     0.35186   0.50001   0.81491   0.00000  Uiso   1.00
O949   O     0.64814   0.49999   0.68508   0.00000  Uiso   1.00
O950   O     0.60600   0.50000   0.81492   0.00000  Uiso   1.00
O951   O     0.39400   0.50000   0.68508   0.00000  Uiso   1.00
O952   O     0.59467   0.44909   0.58748   0.00000  Uiso   1.00
C953   C     0.99998   0.42069   0.75003   0.00000  Uiso   1.00
C954   C     0.70916   0.35462   0.75020   0.00000  Uiso   1.00
C955   C     0.66668   0.62393   0.74999   0.00000  Uiso   1.00
C956   C     0.99998   0.37607   0.75005   0.00000  Uiso   1.00
C957   C     0.84951   0.47628   0.77977   0.00000  Uiso   1.00
C958   C     0.81715   0.52373   0.72023   0.00000  Uiso   1.00
C959   C     0.79990   0.47632   0.77979   0.00000  Uiso   1.00
C960   C     0.86676   0.52369   0.72022   0.00000  Uiso   1.00
C961   C     0.97278   0.49948   0.83610   0.00000  Uiso   1.00
C962   C     0.69388   0.50051   0.66390   0.00000  Uiso   1.00
C963   C     0.95772   0.49639   0.88518   0.00000  Uiso   1.00
C964   C     0.66668   0.57931   0.74998   0.00000  Uiso   1.00
C965   C     0.70889   0.50352   0.61481   0.00000  Uiso   1.00
C966   C     0.97347   0.47666   0.95519   0.00000  Uiso   1.00
C967   C     0.69289   0.52290   0.54478   0.00000  Uiso   1.00
C968   C     0.99023   0.48447   0.90944   0.00000  Uiso   1.00
C969   C     0.67626   0.51514   0.59055   0.00000  Uiso   1.00
C970   C     0.90906   0.50306   0.90753   0.00000  Uiso   1.00
C971   C     0.75756   0.49700   0.59240   0.00000  Uiso   1.00
C972   C     0.89133   0.49693   0.95404   0.00000  Uiso   1.00
C973   C     0.77514   0.50291   0.54585   0.00000  Uiso   1.00
C974   C     0.92364   0.48033   0.97756   0.00000  Uiso   1.00
C975   C     0.85620   0.47393   0.54386   0.00000  Uiso   1.00
C976   C     0.74273   0.51933   0.52232   0.00000  Uiso   1.00
C977   C     0.84200   0.50543   0.97708   0.00000  Uiso   1.00
C978   C     0.82443   0.49436   0.52279   0.00000  Uiso   1.00
C979   C     0.93455   0.44378   0.54719   0.00000  Uiso   1.00
C980   C     0.73204   0.55549   0.95208   0.00000  Uiso   1.00
C981   C     0.81017   0.52574   0.95597   0.00000  Uiso   1.00
C982   C     0.90519   0.46737   0.52239   0.00000  Uiso   1.00
C983   C     0.76117   0.53224   0.97740   0.00000  Uiso   1.00
C984   C     0.95748   0.35461   0.74989   0.00000  Uiso   1.00
C985   C     0.70918   0.64539   0.75016   0.00000  Uiso   1.00
C986   C     0.95750   0.64538   0.74985   0.00000  Uiso   1.00
Cu987  Cu    0.71355   0.50001   0.75000   0.00000  Uiso   1.00
Cu988  Cu    0.95311   0.49999   0.75000   0.00000  Uiso   1.00
H989   H     0.78160   0.48915   0.61263   0.00000  Uiso   1.00
H990   H     0.74242   0.62938   0.75027   0.00000  Uiso   1.00
H991   H     0.92427   0.62936   0.74970   0.00000  Uiso   1.00
H992   H     0.74238   0.37064   0.75034   0.00000  Uiso   1.00
H993   H     0.86129   0.45718   0.80357   0.00000  Uiso   1.00
H994   H     0.80537   0.54283   0.69644   0.00000  Uiso   1.00
H995   H     0.77431   0.45732   0.80362   0.00000  Uiso   1.00
H996   H     0.89235   0.54270   0.69639   0.00000  Uiso   1.00
H997   H     0.98481   0.39986   0.54603   0.00000  Uiso   1.00
H998   H     0.71991   0.56788   0.89201   0.00000  Uiso   1.00
H999   H     0.88517   0.51121   0.88727   0.00000  Uiso   1.00
H1000  H     0.97153   0.51986   0.60722   0.00000  Uiso   1.00
H1001  H     0.69492   0.47958   0.89280   0.00000  Uiso   1.00
H1002  H     0.66668   0.46752   0.97253   0.00000  Uiso   1.00
H1003  H     0.99954   0.53188   0.52755   0.00000  Uiso   1.00
H1004  H     0.84334   0.46075   0.57686   0.00000  Uiso   1.00
H1005  H     0.82299   0.53884   0.92295   0.00000  Uiso   1.00
H1006  H     0.92424   0.37062   0.74978   0.00000  Uiso   1.00
N1007  N     0.78403   0.50001   0.74999   0.00000  Uiso   1.00
N1008  N     0.88264   0.49999   0.75001   0.00000  Uiso   1.00
O1009  O     0.70625   0.43989   0.75000   0.00000  Uiso   1.00
O1010  O     0.96760   0.41390   0.52530   0.00000  Uiso   1.00
O1011  O     0.70180   0.58074   0.97098   0.00000  Uiso   1.00
O1012  O     0.74145   0.55016   0.90572   0.00000  Uiso   1.00
O1013  O     0.96042   0.56011   0.75000   0.00000  Uiso   1.00
O1014  O     0.96039   0.43988   0.75000   0.00000  Uiso   1.00
O1015  O     0.70628   0.56012   0.74999   0.00000  Uiso   1.00
O1016  O     0.68519   0.50001   0.81491   0.00000  Uiso   1.00
O1017  O     0.98148   0.49999   0.68508   0.00000  Uiso   1.00
O1018  O     0.93933   0.50000   0.81492   0.00000  Uiso   1.00
O1019  O     0.72733   0.50000   0.68508   0.00000  Uiso   1.00
O1020  O     0.92800   0.44909   0.58748   0.00000  Uiso   1.00
C1021  C     0.33331   0.75402   0.75003   0.00000  Uiso   1.00
C1022  C     0.04249   0.68796   0.75020   0.00000  Uiso   1.00
C1023  C     0.00001   0.95726   0.74999   0.00000  Uiso   1.00
C1024  C     0.33331   0.70941   0.75005   0.00000  Uiso   1.00
C1025  C     0.18285   0.80961   0.77977   0.00000  Uiso   1.00
C1026  C     0.15049   0.85706   0.72023   0.00000  Uiso   1.00
C1027  C     0.13324   0.80965   0.77979   0.00000  Uiso   1.00
C1028  C     0.20009   0.85702   0.72022   0.00000  Uiso   1.00
C1029  C     0.30611   0.83281   0.83610   0.00000  Uiso   1.00
C1030  C     0.02722   0.83384   0.66390   0.00000  Uiso   1.00
C1031  C     0.29105   0.82973   0.88518   0.00000  Uiso   1.00
C1032  C     0.00002   0.91264   0.74998   0.00000  Uiso   1.00
C1033  C     0.04223   0.83685   0.61481   0.00000  Uiso   1.00
C1034  C     0.30681   0.80999   0.95519   0.00000  Uiso   1.00
C1035  C     0.02622   0.85623   0.54478   0.00000  Uiso   1.00
C1036  C     0.32356   0.81780   0.90944   0.00000  Uiso   1.00
C1037  C     0.00959   0.84848   0.59055   0.00000  Uiso   1.00
C1038  C     0.24239   0.83640   0.90753   0.00000  Uiso   1.00
C1039  C     0.09089   0.83033   0.59240   0.00000  Uiso   1.00
C1040  C     0.22466   0.83027   0.95404   0.00000  Uiso   1.00
C1041  C     0.10847   0.83624   0.54585   0.00000  Uiso   1.00
C1042  C     0.25697   0.81367   0.97756   0.00000  Uiso   1.00
C1043  C     0.18953   0.80727   0.54386   0.00000  Uiso   1.00
C1044  C     0.07607   0.85266   0.52232   0.00000  Uiso   1.00
C1045  C     0.17533   0.83877   0.97708   0.00000  Uiso   1.00
C1046  C     0.15776   0.82769   0.52279   0.00000  Uiso   1.00
C1047  C     0.26788   0.77711   0.54719   0.00000  Uiso   1.00
C1048  C     0.06537   0.88882   0.95208   0.00000  Uiso   1.00
C1049  C     0.14350   0.85907   0.95597   0.00000  Uiso   1.00
C1050  C     0.23852   0.80070   0.52239   0.00000  Uiso   1.00
C1051  C     0.09451   0.86557   0.97740   0.00000  Uiso   1.00
C1052  C     0.29081   0.68794   0.74989   0.00000  Uiso   1.00
C1053  C     0.04251   0.97872   0.75016   0.00000  Uiso   1.00
C1054  C     0.29083   0.97871   0.74985   0.00000  Uiso   1.00
Cu1055 Cu    0.04689   0.83334   0.75000   0.00000  Uiso   1.00
Cu1056 Cu    0.28645   0.83333   0.75000   0.00000  Uiso   1.00
H1057  H     0.11493   0.82248   0.61263   0.00000  Uiso   1.00
H1058  H     0.07575   0.96272   0.75027   0.00000  Uiso   1.00
H1059  H     0.25761   0.96270   0.74970   0.00000  Uiso   1.00
H1060  H     0.07572   0.70397   0.75034   0.00000  Uiso   1.00
H1061  H     0.19462   0.79052   0.80357   0.00000  Uiso   1.00
H1062  H     0.13870   0.87616   0.69644   0.00000  Uiso   1.00
H1063  H     0.10764   0.79065   0.80362   0.00000  Uiso   1.00
H1064  H     0.22569   0.87603   0.69639   0.00000  Uiso   1.00
H1065  H     0.31815   0.73319   0.54603   0.00000  Uiso   1.00
H1066  H     0.05324   0.90121   0.89201   0.00000  Uiso   1.00
H1067  H     0.21850   0.84454   0.88727   0.00000  Uiso   1.00
H1068  H     0.30487   0.85319   0.60722   0.00000  Uiso   1.00
H1069  H     0.02826   0.81291   0.89280   0.00000  Uiso   1.00
H1070  H     0.00001   0.80085   0.97253   0.00000  Uiso   1.00
H1071  H     0.33287   0.86522   0.52755   0.00000  Uiso   1.00
H1072  H     0.17667   0.79408   0.57686   0.00000  Uiso   1.00
H1073  H     0.15632   0.87217   0.92295   0.00000  Uiso   1.00
H1074  H     0.25757   0.70395   0.74978   0.00000  Uiso   1.00
N1075  N     0.11736   0.83334   0.74999   0.00000  Uiso   1.00
N1076  N     0.21597   0.83332   0.75001   0.00000  Uiso   1.00
O1077  O     0.03958   0.77322   0.75000   0.00000  Uiso   1.00
O1078  O     0.30093   0.74724   0.52530   0.00000  Uiso   1.00
O1079  O     0.03513   0.91407   0.97098   0.00000  Uiso   1.00
O1080  O     0.07479   0.88349   0.90572   0.00000  Uiso   1.00
O1081  O     0.29375   0.89345   0.75000   0.00000  Uiso   1.00
O1082  O     0.29372   0.77321   0.75000   0.00000  Uiso   1.00
O1083  O     0.03961   0.89346   0.74999   0.00000  Uiso   1.00
O1084  O     0.01852   0.83334   0.81491   0.00000  Uiso   1.00
O1085  O     0.31481   0.83332   0.68508   0.00000  Uiso   1.00
O1086  O     0.27267   0.83333   0.81492   0.00000  Uiso   1.00
O1087  O     0.06067   0.83333   0.68508   0.00000  Uiso   1.00
O1088  O     0.26133   0.78243   0.58748   0.00000  Uiso   1.00
C1089  C     0.66664   0.75402   0.75003   0.00000  Uiso   1.00
C1090  C     0.37582   0.68796   0.75020   0.00000  Uiso   1.00
C1091  C     0.33334   0.95726   0.74999   0.00000  Uiso   1.00
C1092  C     0.66665   0.70941   0.75005   0.00000  Uiso   1.00
C1093  C     0.51618   0.80961   0.77977   0.00000  Uiso   1.00
C1094  C     0.48382   0.85706   0.72023   0.00000  Uiso   1.00
C1095  C     0.46657   0.80965   0.77979   0.00000  Uiso   1.00
C1096  C     0.53343   0.85702   0.72022   0.00000  Uiso   1.00
C1097  C     0.63945   0.83281   0.83610   0.00000  Uiso   1.00
C1098  C     0.36055   0.83384   0.66390   0.00000  Uiso   1.00
C1099  C     0.62439   0.82973   0.88518   0.00000  Uiso   1.00
C1100  C     0.33335   0.91264   0.74998   0.00000  Uiso   1.00
C1101  C     0.37556   0.83685   0.61481   0.00000  Uiso   1.00
C1102  C     0.64014   0.80999   0.95519   0.00000  Uiso   1.00
C1103  C     0.35956   0.85623   0.54478   0.00000  Uiso   1.00
C1104  C     0.65690   0.81780   0.90944   0.00000  Uiso   1.00
C1105  C     0.34292   0.84848   0.59055   0.00000  Uiso   1.00
C1106  C     0.57572   0.83640   0.90753   0.00000  Uiso   1.00
C1107  C     0.42423   0.83033   0.59240   0.00000  Uiso   1.00
C1108  C     0.55799   0.83027   0.95404   0.00000  Uiso   1.00
C1109  C     0.44181   0.83624   0.54585   0.00000  Uiso   1.00
C1110  C     0.59030   0.81367   0.97756   0.00000  Uiso   1.00
C1111  C     0.52287   0.80727   0.54386   0.00000  Uiso   1.00
C1112  C     0.40940   0.85266   0.52232   0.00000  Uiso   1.00
C1113  C     0.50867   0.83877   0.97708   0.00000  Uiso   1.00
C1114  C     0.49110   0.82769   0.52279   0.00000  Uiso   1.00
C1115  C     0.60122   0.77711   0.54719   0.00000  Uiso   1.00
C1116  C     0.39871   0.88882   0.95208   0.00000  Uiso   1.00
C1117  C     0.47683   0.85907   0.95597   0.00000  Uiso   1.00
C1118  C     0.57186   0.80070   0.52239   0.00000  Uiso   1.00
C1119  C     0.42784   0.86557   0.97740   0.00000  Uiso   1.00
C1120  C     0.62415   0.68794   0.74989   0.00000  Uiso   1.00
C1121  C     0.37584   0.97872   0.75016   0.00000  Uiso   1.00
C1122  C     0.62416   0.97871   0.74985   0.00000  Uiso   1.00
Cu1123 Cu    0.38022   0.83334   0.75000   0.00000  Uiso   1.00
Cu1124 Cu    0.61978   0.83333   0.75000   0.00000  Uiso   1.00
H1125  H     0.44826   0.82248   0.61263   0.00000  Uiso   1.00
H1126  H     0.40908   0.96272   0.75027   0.00000  Uiso   1.00
H1127  H     0.59094   0.96270   0.74970   0.00000  Uiso   1.00
H1128  H     0.40905   0.70397   0.75034   0.00000  Uiso   1.00
H1129  H     0.52796   0.79052   0.80357   0.00000  Uiso   1.00
H1130  H     0.47204   0.87616   0.69644   0.00000  Uiso   1.00
H1131  H     0.44097   0.79065   0.80362   0.00000  Uiso   1.00
H1132  H     0.55902   0.87603   0.69639   0.00000  Uiso   1.00
H1133  H     0.65148   0.73319   0.54603   0.00000  Uiso   1.00
H1134  H     0.38658   0.90121   0.89201   0.00000  Uiso   1.00
H1135  H     0.55184   0.84454   0.88727   0.00000  Uiso   1.00
H1136  H     0.63820   0.85319   0.60722   0.00000  Uiso   1.00
H1137  H     0.36159   0.81291   0.89280   0.00000  Uiso   1.00
H1138  H     0.33335   0.80085   0.97253   0.00000  Uiso   1.00
H1139  H     0.66620   0.86522   0.52755   0.00000  Uiso   1.00
H1140  H     0.51001   0.79408   0.57686   0.00000  Uiso   1.00
H1141  H     0.48965   0.87217   0.92295   0.00000  Uiso   1.00
H1142  H     0.59090   0.70395   0.74978   0.00000  Uiso   1.00
N1143  N     0.45069   0.83334   0.74999   0.00000  Uiso   1.00
N1144  N     0.54931   0.83332   0.75001   0.00000  Uiso   1.00
O1145  O     0.37291   0.77322   0.75000   0.00000  Uiso   1.00
O1146  O     0.63426   0.74724   0.52530   0.00000  Uiso   1.00
O1147  O     0.36847   0.91407   0.97098   0.00000  Uiso   1.00
O1148  O     0.40812   0.88349   0.90572   0.00000  Uiso   1.00
O1149  O     0.62709   0.89345   0.75000   0.00000  Uiso   1.00
O1150  O     0.62706   0.77321   0.75000   0.00000  Uiso   1.00
O1151  O     0.37294   0.89346   0.74999   0.00000  Uiso   1.00
O1152  O     0.35186   0.83334   0.81491   0.00000  Uiso   1.00
O1153  O     0.64814   0.83332   0.68508   0.00000  Uiso   1.00
O1154  O     0.60600   0.83333   0.81492   0.00000  Uiso   1.00
O1155  O     0.39400   0.83333   0.68508   0.00000  Uiso   1.00
O1156  O     0.59467   0.78243   0.58748   0.00000  Uiso   1.00
C1157  C     0.99998   0.75402   0.75003   0.00000  Uiso   1.00
C1158  C     0.70916   0.68796   0.75020   0.00000  Uiso   1.00
C1159  C     0.66668   0.95726   0.74999   0.00000  Uiso   1.00
C1160  C     0.99998   0.70941   0.75005   0.00000  Uiso   1.00
C1161  C     0.84951   0.80961   0.77977   0.00000  Uiso   1.00
C1162  C     0.81715   0.85706   0.72023   0.00000  Uiso   1.00
C1163  C     0.79990   0.80965   0.77979   0.00000  Uiso   1.00
C1164  C     0.86676   0.85702   0.72022   0.00000  Uiso   1.00
C1165  C     0.97278   0.83281   0.83610   0.00000  Uiso   1.00
C1166  C     0.69388   0.83384   0.66390   0.00000  Uiso   1.00
C1167  C     0.95772   0.82973   0.88518   0.00000  Uiso   1.00
C1168  C     0.66668   0.91264   0.74998   0.00000  Uiso   1.00
C1169  C     0.70889   0.83685   0.61481   0.00000  Uiso   1.00
C1170  C     0.97347   0.80999   0.95519   0.00000  Uiso   1.00
C1171  C     0.69289   0.85623   0.54478   0.00000  Uiso   1.00
C1172  C     0.99023   0.81780   0.90944   0.00000  Uiso   1.00
C1173  C     0.67626   0.84848   0.59055   0.00000  Uiso   1.00
C1174  C     0.90906   0.83640   0.90753   0.00000  Uiso   1.00
C1175  C     0.75756   0.83033   0.59240   0.00000  Uiso   1.00
C1176  C     0.89133   0.83027   0.95404   0.00000  Uiso   1.00
C1177  C     0.77514   0.83624   0.54585   0.00000  Uiso   1.00
C1178  C     0.92364   0.81367   0.97756   0.00000  Uiso   1.00
C1179  C     0.85620   0.80727   0.54386   0.00000  Uiso   1.00
C1180  C     0.74273   0.85266   0.52232   0.00000  Uiso   1.00
C1181  C     0.84200   0.83877   0.97708   0.00000  Uiso   1.00
C1182  C     0.82443   0.82769   0.52279   0.00000  Uiso   1.00
C1183  C     0.93455   0.77711   0.54719   0.00000  Uiso   1.00
C1184  C     0.73204   0.88882   0.95208   0.00000  Uiso   1.00
C1185  C     0.81017   0.85907   0.95597   0.00000  Uiso   1.00
C1186  C     0.90519   0.80070   0.52239   0.00000  Uiso   1.00
C1187  C     0.76117   0.86557   0.97740   0.00000  Uiso   1.00
C1188  C     0.95748   0.68794   0.74989   0.00000  Uiso   1.00
C1189  C     0.70918   0.97872   0.75016   0.00000  Uiso   1.00
C1190  C     0.95750   0.97871   0.74985   0.00000  Uiso   1.00
Cu1191 Cu    0.71355   0.83334   0.75000   0.00000  Uiso   1.00
Cu1192 Cu    0.95311   0.83333   0.75000   0.00000  Uiso   1.00
H1193  H     0.78160   0.82248   0.61263   0.00000  Uiso   1.00
H1194  H     0.74242   0.96272   0.75027   0.00000  Uiso   1.00
H1195  H     0.92427   0.96270   0.74970   0.00000  Uiso   1.00
H1196  H     0.74238   0.70397   0.75034   0.00000  Uiso   1.00
H1197  H     0.86129   0.79052   0.80357   0.00000  Uiso   1.00
H1198  H     0.80537   0.87616   0.69644   0.00000  Uiso   1.00
H1199  H     0.77431   0.79065   0.80362   0.00000  Uiso   1.00
H1200  H     0.89235   0.87603   0.69639   0.00000  Uiso   1.00
H1201  H     0.98481   0.73319   0.54603   0.00000  Uiso   1.00
H1202  H     0.71991   0.90121   0.89201   0.00000  Uiso   1.00
H1203  H     0.88517   0.84454   0.88727   0.00000  Uiso   1.00
H1204  H     0.97153   0.85319   0.60722   0.00000  Uiso   1.00
H1205  H     0.69492   0.81291   0.89280   0.00000  Uiso   1.00
H1206  H     0.66668   0.80085   0.97253   0.00000  Uiso   1.00
H1207  H     0.99954   0.86522   0.52755   0.00000  Uiso   1.00
H1208  H     0.84334   0.79408   0.57686   0.00000  Uiso   1.00
H1209  H     0.82299   0.87217   0.92295   0.00000  Uiso   1.00
H1210  H     0.92424   0.70395   0.74978   0.00000  Uiso   1.00
N1211  N     0.78403   0.83334   0.74999   0.00000  Uiso   1.00
N1212  N     0.88264   0.83332   0.75001   0.00000  Uiso   1.00
O1213  O     0.70625   0.77322   0.75000   0.00000  Uiso   1.00
O1214  O     0.96760   0.74724   0.52530   0.00000  Uiso   1.00
O1215  O     0.70180   0.91407   0.97098   0.00000  Uiso   1.00
O1216  O     0.74145   0.88349   0.90572   0.00000  Uiso   1.00
O1217  O     0.96042   0.89345   0.75000   0.00000  Uiso   1.00
O1218  O     0.96039   0.77321   0.75000   0.00000  Uiso   1.00
O1219  O     0.70628   0.89346   0.74999   0.00000  Uiso   1.00
O1220  O     0.68519   0.83334   0.81491   0.00000  Uiso   1.00
O1221  O     0.98148   0.83332   0.68508   0.00000  Uiso   1.00
O1222  O     0.93933   0.83333   0.81492   0.00000  Uiso   1.00
O1223  O     0.72733   0.83333   0.68508   0.00000  Uiso   1.00
O1224  O     0.92800   0.78243   0.58748   0.00000  Uiso   1.00
loop_
_geom_bond_atom_site_label_1
_geom_bond_atom_site_label_2
_geom_bond_distance
_geom_bond_site_symmetry_2
_ccdc_geom_bond_type
C1     C4      1.450   .     S
C1     O62     1.291   .     A
C1     O125    1.291   .     S
C2     H40     1.083   .     S
C2     C140    1.401   1_455 S
C2     C441    1.383   1_545 S
C3     C33     1.401   .     A
C3     C12     1.450   .     S
C3     C170    1.401   1_455 S
C4     C32     1.401   .     A
C4     C70     1.401   .     S
C5     H41     1.082   .     S
C5     N56     1.368   .     A
C5     C7      1.417   .     A
C6     N55     1.368   .     A
C6     C8      1.417   .     A
C6     H42     1.082   .     S
C7     N55     1.367   .     A
C7     H43     1.082   .     S
C8     N56     1.367   .     A
C8     H44     1.082   .     S
C9     C11     1.468   .     S
C9     O66     1.294   .     A
C9     O132    1.297   .     S
C10    O67     1.294   .     A
C10    C13     1.468   .     S
C10    O201    1.297   1_455 S
C11    C18     1.395   .     A
C11    C16     1.395   .     A
C12    O63     1.291   .     A
C12    O197    1.291   1_455 S
C13    C17     1.395   .     A
C13    C19     1.395   .     A
C14    C22     1.413   .     A
C14    C16     1.391   .     A
C14    H118    1.080   .     S
C15    C24     1.413   .     A
C15    C17     1.391   .     A
C15    H187    1.080   1_455 S
C16    H117    1.083   .     S
C17    H184    1.083   1_455 S
C18    H47     1.075   .     S
C18    C20     1.407   .     A
C19    H37     1.075   .     S
C19    C21     1.407   .     A
C20    C22     1.424   .     A
C20    C25     1.427   .     A
C21    C26     1.427   .     A
C21    C24     1.424   .     A
C22    C642    1.410   .     S
C23    H52     1.077   .     S
C23    C30     1.397   .     A
C23    C26     1.415   .     A
C24    C643    1.412   1_554 S
C25    C29     1.415   .     A
C25    C638    1.415   .     S
C26    C637    1.415   1_554 S
C27    C30     1.490   .     S
C27    O68     1.223   .     D
C27    O58     1.398   .     S
C28    O60     1.399   .     S
C28    O59     1.223   .     D
C28    C31     1.490   .     S
C29    C31     1.396   .     A
C29    H53     1.076   .     S
C30    C634    1.410   1_554 S
C31    C636    1.412   .     S
C32    H54     1.083   .     S
C32    C442    1.383   1_545 S
C33    H38     1.083   .     S
C33    C206    1.383   .     S
C34    H39     1.083   .     S
C34    C71     1.401   .     S
C34    C236    1.383   .     S
Cu35   O64     1.956   .     S
Cu35   O57     1.965   .     S
Cu35   O63     1.965   .     S
Cu35   O67     1.942   .     S
Cu35   N55     2.013   .     S
Cu35   Cu172   2.678   1_455 S
Cu36   N56     2.013   .     S
Cu36   O65     1.956   .     S
Cu36   O62     1.965   .     S
Cu36   O66     1.942   .     S
Cu36   O61     1.965   .     S
Cu36   Cu103   2.678   .     S
H45    O58     1.014   .     S
H46    O60     1.014   .     S
H48    C85     1.083   .     S
H49    C152    1.083   1_455 S
H50    C150    1.080   1_455 S
H51    C83     1.080   .     S
O57    C137    1.291   1_455 S
O61    C80     1.291   .     S
O64    C145    1.297   1_455 S
O65    C78     1.297   .     S
C69    C72     1.450   .     S
C69    O130    1.291   .     A
C69    O193    1.291   .     S
C70    H108    1.083   .     S
C70    C509    1.383   1_545 S
C71    C101    1.401   .     A
C71    C80     1.450   .     S
C72    C100    1.401   .     A
C72    C138    1.401   .     S
C73    H109    1.082   .     S
C73    N124    1.368   .     A
C73    C75     1.417   .     A
C74    N123    1.368   .     A
C74    C76     1.417   .     A
C74    H110    1.082   .     S
C75    N123    1.367   .     A
C75    H111    1.082   .     S
C76    N124    1.367   .     A
C76    H112    1.082   .     S
C77    C79     1.468   .     S
C77    O134    1.294   .     A
C77    O200    1.297   .     S
C78    O135    1.294   .     A
C78    C81     1.468   .     S
C79    C86     1.395   .     A
C79    C84     1.395   .     A
C80    O131    1.291   .     A
C81    C85     1.395   .     A
C81    C87     1.395   .     A
C82    C90     1.413   .     A
C82    C84     1.391   .     A
C82    H186    1.080   .     S
C83    C92     1.413   .     A
C83    C85     1.391   .     A
C84    H185    1.083   .     S
C86    H115    1.075   .     S
C86    C88     1.407   .     A
C87    H105    1.075   .     S
C87    C89     1.407   .     A
C88    C90     1.424   .     A
C88    C93     1.427   .     A
C89    C94     1.427   .     A
C89    C92     1.424   .     A
C90    C710    1.410   .     S
C91    H120    1.077   .     S
C91    C98     1.397   .     A
C91    C94     1.415   .     A
C92    C711    1.412   1_554 S
C93    C97     1.415   .     A
C93    C706    1.415   .     S
C94    C705    1.415   1_554 S
C95    C98     1.490   .     S
C95    O136    1.223   .     D
C95    O126    1.398   .     S
C96    O128    1.399   .     S
C96    O127    1.223   .     D
C96    C99     1.490   .     S
C97    C99     1.396   .     A
C97    H121    1.076   .     S
C98    C702    1.410   1_554 S
C99    C704    1.412   .     S
C100   H122    1.083   .     S
C100   C510    1.383   1_545 S
C101   H106    1.083   .     S
C101   C274    1.383   .     S
C102   H107    1.083   .     S
C102   C139    1.401   .     S
C102   C304    1.383   .     S
Cu103  O132    1.956   .     S
Cu103  O125    1.965   .     S
Cu103  O131    1.965   .     S
Cu103  O135    1.942   .     S
Cu103  N123    2.013   .     S
Cu104  N124    2.013   .     S
Cu104  O133    1.956   .     S
Cu104  O130    1.965   .     S
Cu104  O134    1.942   .     S
Cu104  O129    1.965   .     S
Cu104  Cu171   2.678   .     S
H113   O126    1.014   .     S
H114   O128    1.014   .     S
H116   C153    1.083   .     S
H119   C151    1.080   .     S
O129   C148    1.291   .     S
O133   C146    1.297   .     S
C137   C140    1.450   .     S
C137   O198    1.291   .     A
C137   O57     1.291   1_655 S
C138   H176    1.083   .     S
C138   C577    1.383   1_545 S
C139   C169    1.401   .     A
C139   C148    1.450   .     S
C140   C168    1.401   .     A
C140   C2      1.401   1_655 S
C141   H177    1.082   .     S
C141   N192    1.368   .     A
C141   C143    1.417   .     A
C142   N191    1.368   .     A
C142   C144    1.417   .     A
C142   H178    1.082   .     S
C143   N191    1.367   .     A
C143   H179    1.082   .     S
C144   N192    1.367   .     A
C144   H180    1.082   .     S
C145   C147    1.468   .     S
C145   O202    1.294   .     A
C145   O64     1.297   1_655 S
C146   O203    1.294   .     A
C146   C149    1.468   .     S
C147   C154    1.395   .     A
C147   C152    1.395   .     A
C148   O199    1.291   .     A
C149   C153    1.395   .     A
C149   C155    1.395   .     A
C150   C158    1.413   .     A
C150   C152    1.391   .     A
C150   H50     1.080   1_655 S
C151   C160    1.413   .     A
C151   C153    1.391   .     A
C152   H49     1.083   1_655 S
C154   H183    1.075   .     S
C154   C156    1.407   .     A
C155   H173    1.075   .     S
C155   C157    1.407   .     A
C156   C158    1.424   .     A
C156   C161    1.427   .     A
C157   C162    1.427   .     A
C157   C160    1.424   .     A
C158   C778    1.410   .     S
C159   H188    1.077   .     S
C159   C166    1.397   .     A
C159   C162    1.415   .     A
C160   C779    1.412   1_554 S
C161   C165    1.415   .     A
C161   C774    1.415   .     S
C162   C773    1.415   1_554 S
C163   C166    1.490   .     S
C163   O204    1.223   .     D
C163   O194    1.398   .     S
C164   O196    1.399   .     S
C164   O195    1.223   .     D
C164   C167    1.490   .     S
C165   C167    1.396   .     A
C165   H189    1.076   .     S
C166   C770    1.410   1_554 S
C167   C772    1.412   .     S
C168   H190    1.083   .     S
C168   C578    1.383   1_545 S
C169   H174    1.083   .     S
C169   C342    1.383   .     S
C170   H175    1.083   .     S
C170   C3      1.401   1_655 S
C170   C372    1.383   .     S
Cu171  O200    1.956   .     S
Cu171  O193    1.965   .     S
Cu171  O199    1.965   .     S
Cu171  O203    1.942   .     S
Cu171  N191    2.013   .     S
Cu172  N192    2.013   .     S
Cu172  O201    1.956   .     S
Cu172  O198    1.965   .     S
Cu172  O202    1.942   .     S
Cu172  O197    1.965   .     S
Cu172  Cu35    2.678   1_655 S
H181   O194    1.014   .     S
H182   O196    1.014   .     S
H184   C17     1.083   1_655 S
H187   C15     1.080   1_655 S
O197   C12     1.291   1_655 S
O201   C10     1.297   1_655 S
C205   C208    1.450   .     S
C205   O266    1.291   .     A
C205   O329    1.291   .     S
C206   H244    1.083   .     S
C206   C344    1.401   1_455 S
C207   C237    1.401   .     A
C207   C216    1.450   .     S
C207   C374    1.401   1_455 S
C208   C236    1.401   .     A
C208   C274    1.401   .     S
C209   H245    1.082   .     S
C209   N260    1.368   .     A
C209   C211    1.417   .     A
C210   N259    1.368   .     A
C210   C212    1.417   .     A
C210   H246    1.082   .     S
C211   N259    1.367   .     A
C211   H247    1.082   .     S
C212   N260    1.367   .     A
C212   H248    1.082   .     S
C213   C215    1.468   .     S
C213   O270    1.294   .     A
C213   O336    1.297   .     S
C214   O271    1.294   .     A
C214   C217    1.468   .     S
C214   O405    1.297   1_455 S
C215   C222    1.395   .     A
C215   C220    1.395   .     A
C216   O267    1.291   .     A
C216   O401    1.291   1_455 S
C217   C221    1.395   .     A
C217   C223    1.395   .     A
C218   C226    1.413   .     A
C218   C220    1.391   .     A
C218   H322    1.080   .     S
C219   C228    1.413   .     A
C219   C221    1.391   .     A
C219   H391    1.080   1_455 S
C220   H321    1.083   .     S
C221   H388    1.083   1_455 S
C222   H251    1.075   .     S
C222   C224    1.407   .     A
C223   H241    1.075   .     S
C223   C225    1.407   .     A
C224   C226    1.424   .     A
C224   C229    1.427   .     A
C225   C230    1.427   .     A
C225   C228    1.424   .     A
C226   C846    1.410   .     S
C227   H256    1.077   .     S
C227   C234    1.397   .     A
C227   C230    1.415   .     A
C228   C847    1.412   1_554 S
C229   C233    1.415   .     A
C229   C842    1.415   .     S
C230   C841    1.415   1_554 S
C231   C234    1.490   .     S
C231   O272    1.223   .     D
C231   O262    1.398   .     S
C232   O264    1.399   .     S
C232   O263    1.223   .     D
C232   C235    1.490   .     S
C233   C235    1.396   .     A
C233   H257    1.076   .     S
C234   C838    1.410   1_554 S
C235   C840    1.412   .     S
C236   H258    1.083   .     S
C237   H242    1.083   .     S
C237   C410    1.383   .     S
C238   H243    1.083   .     S
C238   C275    1.401   .     S
C238   C440    1.383   .     S
Cu239  O268    1.956   .     S
Cu239  O261    1.965   .     S
Cu239  O267    1.965   .     S
Cu239  O271    1.942   .     S
Cu239  N259    2.013   .     S
Cu239  Cu376   2.678   1_455 S
Cu240  N260    2.013   .     S
Cu240  O269    1.956   .     S
Cu240  O266    1.965   .     S
Cu240  O270    1.942   .     S
Cu240  O265    1.965   .     S
Cu240  Cu307   2.678   .     S
H249   O262    1.014   .     S
H250   O264    1.014   .     S
H252   C289    1.083   .     S
H253   C356    1.083   1_455 S
H254   C354    1.080   1_455 S
H255   C287    1.080   .     S
O261   C341    1.291   1_455 S
O265   C284    1.291   .     S
O268   C349    1.297   1_455 S
O269   C282    1.297   .     S
C273   C276    1.450   .     S
C273   O334    1.291   .     A
C273   O397    1.291   .     S
C274   H312    1.083   .     S
C275   C305    1.401   .     A
C275   C284    1.450   .     S
C276   C304    1.401   .     A
C276   C342    1.401   .     S
C277   H313    1.082   .     S
C277   N328    1.368   .     A
C277   C279    1.417   .     A
C278   N327    1.368   .     A
C278   C280    1.417   .     A
C278   H314    1.082   .     S
C279   N327    1.367   .     A
C279   H315    1.082   .     S
C280   N328    1.367   .     A
C280   H316    1.082   .     S
C281   C283    1.468   .     S
C281   O338    1.294   .     A
C281   O404    1.297   .     S
C282   O339    1.294   .     A
C282   C285    1.468   .     S
C283   C290    1.395   .     A
C283   C288    1.395   .     A
C284   O335    1.291   .     A
C285   C289    1.395   .     A
C285   C291    1.395   .     A
C286   C294    1.413   .     A
C286   C288    1.391   .     A
C286   H390    1.080   .     S
C287   C296    1.413   .     A
C287   C289    1.391   .     A
C288   H389    1.083   .     S
C290   H319    1.075   .     S
C290   C292    1.407   .     A
C291   H309    1.075   .     S
C291   C293    1.407   .     A
C292   C294    1.424   .     A
C292   C297    1.427   .     A
C293   C298    1.427   .     A
C293   C296    1.424   .     A
C294   C914    1.410   .     S
C295   H324    1.077   .     S
C295   C302    1.397   .     A
C295   C298    1.415   .     A
C296   C915    1.412   1_554 S
C297   C301    1.415   .     A
C297   C910    1.415   .     S
C298   C909    1.415   1_554 S
C299   C302    1.490   .     S
C299   O340    1.223   .     D
C299   O330    1.398   .     S
C300   O332    1.399   .     S
C300   O331    1.223   .     D
C300   C303    1.490   .     S
C301   C303    1.396   .     A
C301   H325    1.076   .     S
C302   C906    1.410   1_554 S
C303   C908    1.412   .     S
C304   H326    1.083   .     S
C305   H310    1.083   .     S
C305   C478    1.383   .     S
C306   H311    1.083   .     S
C306   C343    1.401   .     S
C306   C508    1.383   .     S
Cu307  O336    1.956   .     S
Cu307  O329    1.965   .     S
Cu307  O335    1.965   .     S
Cu307  O339    1.942   .     S
Cu307  N327    2.013   .     S
Cu308  N328    2.013   .     S
Cu308  O337    1.956   .     S
Cu308  O334    1.965   .     S
Cu308  O338    1.942   .     S
Cu308  O333    1.965   .     S
Cu308  Cu375   2.678   .     S
H317   O330    1.014   .     S
H318   O332    1.014   .     S
H320   C357    1.083   .     S
H323   C355    1.080   .     S
O333   C352    1.291   .     S
O337   C350    1.297   .     S
C341   C344    1.450   .     S
C341   O402    1.291   .     A
C341   O261    1.291   1_655 S
C342   H380    1.083   .     S
C343   C373    1.401   .     A
C343   C352    1.450   .     S
C344   C372    1.401   .     A
C344   C206    1.401   1_655 S
C345   H381    1.082   .     S
C345   N396    1.368   .     A
C345   C347    1.417   .     A
C346   N395    1.368   .     A
C346   C348    1.417   .     A
C346   H382    1.082   .     S
C347   N395    1.367   .     A
C347   H383    1.082   .     S
C348   N396    1.367   .     A
C348   H384    1.082   .     S
C349   C351    1.468   .     S
C349   O406    1.294   .     A
C349   O268    1.297   1_655 S
C350   O407    1.294   .     A
C350   C353    1.468   .     S
C351   C358    1.395   .     A
C351   C356    1.395   .     A
C352   O403    1.291   .     A
C353   C357    1.395   .     A
C353   C359    1.395   .     A
C354   C362    1.413   .     A
C354   C356    1.391   .     A
C354   H254    1.080   1_655 S
C355   C364    1.413   .     A
C355   C357    1.391   .     A
C356   H253    1.083   1_655 S
C358   H387    1.075   .     S
C358   C360    1.407   .     A
C359   H377    1.075   .     S
C359   C361    1.407   .     A
C360   C362    1.424   .     A
C360   C365    1.427   .     A
C361   C366    1.427   .     A
C361   C364    1.424   .     A
C362   C982    1.410   .     S
C363   H392    1.077   .     S
C363   C370    1.397   .     A
C363   C366    1.415   .     A
C364   C983    1.412   1_554 S
C365   C369    1.415   .     A
C365   C978    1.415   .     S
C366   C977    1.415   1_554 S
C367   C370    1.490   .     S
C367   O408    1.223   .     D
C367   O398    1.398   .     S
C368   O400    1.399   .     S
C368   O399    1.223   .     D
C368   C371    1.490   .     S
C369   C371    1.396   .     A
C369   H393    1.076   .     S
C370   C974    1.410   1_554 S
C371   C976    1.412   .     S
C372   H394    1.083   .     S
C373   H378    1.083   .     S
C373   C546    1.383   .     S
C374   H379    1.083   .     S
C374   C207    1.401   1_655 S
C374   C576    1.383   .     S
Cu375  O404    1.956   .     S
Cu375  O397    1.965   .     S
Cu375  O403    1.965   .     S
Cu375  O407    1.942   .     S
Cu375  N395    2.013   .     S
Cu376  N396    2.013   .     S
Cu376  O405    1.956   .     S
Cu376  O402    1.965   .     S
Cu376  O406    1.942   .     S
Cu376  O401    1.965   .     S
Cu376  Cu239   2.678   1_655 S
H385   O398    1.014   .     S
H386   O400    1.014   .     S
H388   C221    1.083   1_655 S
H391   C219    1.080   1_655 S
O401   C216    1.291   1_655 S
O405   C214    1.297   1_655 S
C409   C412    1.450   .     S
C409   O470    1.291   .     A
C409   O533    1.291   .     S
C410   H448    1.083   .     S
C410   C548    1.401   1_455 S
C411   C441    1.401   .     A
C411   C420    1.450   .     S
C411   C578    1.401   1_455 S
C412   C440    1.401   .     A
C412   C478    1.401   .     S
C413   H449    1.082   .     S
C413   N464    1.368   .     A
C413   C415    1.417   .     A
C414   N463    1.368   .     A
C414   C416    1.417   .     A
C414   H450    1.082   .     S
C415   N463    1.367   .     A
C415   H451    1.082   .     S
C416   N464    1.367   .     A
C416   H452    1.082   .     S
C417   C419    1.468   .     S
C417   O474    1.294   .     A
C417   O540    1.297   .     S
C418   O475    1.294   .     A
C418   C421    1.468   .     S
C418   O609    1.297   1_455 S
C419   C426    1.395   .     A
C419   C424    1.395   .     A
C420   O471    1.291   .     A
C420   O605    1.291   1_455 S
C421   C425    1.395   .     A
C421   C427    1.395   .     A
C422   C430    1.413   .     A
C422   C424    1.391   .     A
C422   H526    1.080   .     S
C423   C432    1.413   .     A
C423   C425    1.391   .     A
C423   H595    1.080   1_455 S
C424   H525    1.083   .     S
C425   H592    1.083   1_455 S
C426   H455    1.075   .     S
C426   C428    1.407   .     A
C427   H445    1.075   .     S
C427   C429    1.407   .     A
C428   C430    1.424   .     A
C428   C433    1.427   .     A
C429   C434    1.427   .     A
C429   C432    1.424   .     A
C430   C1050   1.410   .     S
C431   H460    1.077   .     S
C431   C438    1.397   .     A
C431   C434    1.415   .     A
C432   C1051   1.412   1_554 S
C433   C437    1.415   .     A
C433   C1046   1.415   .     S
C434   C1045   1.415   1_554 S
C435   C438    1.490   .     S
C435   O476    1.223   .     D
C435   O466    1.398   .     S
C436   O468    1.399   .     S
C436   O467    1.223   .     D
C436   C439    1.490   .     S
C437   C439    1.396   .     A
C437   H461    1.076   .     S
C438   C1042   1.410   1_554 S
C439   C1044   1.412   .     S
C440   H462    1.083   .     S
C441   H446    1.083   .     S
C441   C2      1.383   1_565 S
C442   H447    1.083   .     S
C442   C479    1.401   .     S
C442   C32     1.383   1_565 S
Cu443  O472    1.956   .     S
Cu443  O465    1.965   .     S
Cu443  O471    1.965   .     S
Cu443  O475    1.942   .     S
Cu443  N463    2.013   .     S
Cu443  Cu580   2.678   1_455 S
Cu444  N464    2.013   .     S
Cu444  O473    1.956   .     S
Cu444  O470    1.965   .     S
Cu444  O474    1.942   .     S
Cu444  O469    1.965   .     S
Cu444  Cu511   2.678   .     S
H453   O466    1.014   .     S
H454   O468    1.014   .     S
H456   C493    1.083   .     S
H457   C560    1.083   1_455 S
H458   C558    1.080   1_455 S
H459   C491    1.080   .     S
O465   C545    1.291   1_455 S
O469   C488    1.291   .     S
O472   C553    1.297   1_455 S
O473   C486    1.297   .     S
C477   C480    1.450   .     S
C477   O538    1.291   .     A
C477   O601    1.291   .     S
C478   H516    1.083   .     S
C479   C509    1.401   .     A
C479   C488    1.450   .     S
C480   C508    1.401   .     A
C480   C546    1.401   .     S
C481   H517    1.082   .     S
C481   N532    1.368   .     A
C481   C483    1.417   .     A
C482   N531    1.368   .     A
C482   C484    1.417   .     A
C482   H518    1.082   .     S
C483   N531    1.367   .     A
C483   H519    1.082   .     S
C484   N532    1.367   .     A
C484   H520    1.082   .     S
C485   C487    1.468   .     S
C485   O542    1.294   .     A
C485   O608    1.297   .     S
C486   O543    1.294   .     A
C486   C489    1.468   .     S
C487   C494    1.395   .     A
C487   C492    1.395   .     A
C488   O539    1.291   .     A
C489   C493    1.395   .     A
C489   C495    1.395   .     A
C490   C498    1.413   .     A
C490   C492    1.391   .     A
C490   H594    1.080   .     S
C491   C500    1.413   .     A
C491   C493    1.391   .     A
C492   H593    1.083   .     S
C494   H523    1.075   .     S
C494   C496    1.407   .     A
C495   H513    1.075   .     S
C495   C497    1.407   .     A
C496   C498    1.424   .     A
C496   C501    1.427   .     A
C497   C502    1.427   .     A
C497   C500    1.424   .     A
C498   C1118   1.410   .     S
C499   H528    1.077   .     S
C499   C506    1.397   .     A
C499   C502    1.415   .     A
C500   C1119   1.412   1_554 S
C501   C505    1.415   .     A
C501   C1114   1.415   .     S
C502   C1113   1.415   1_554 S
C503   C506    1.490   .     S
C503   O544    1.223   .     D
C503   O534    1.398   .     S
C504   O536    1.399   .     S
C504   O535    1.223   .     D
C504   C507    1.490   .     S
C505   C507    1.396   .     A
C505   H529    1.076   .     S
C506   C1110   1.410   1_554 S
C507   C1112   1.412   .     S
C508   H530    1.083   .     S
C509   H514    1.083   .     S
C509   C70     1.383   1_565 S
C510   H515    1.083   .     S
C510   C547    1.401   .     S
C510   C100    1.383   1_565 S
Cu511  O540    1.956   .     S
Cu511  O533    1.965   .     S
Cu511  O539    1.965   .     S
Cu511  O543    1.942   .     S
Cu511  N531    2.013   .     S
Cu512  N532    2.013   .     S
Cu512  O541    1.956   .     S
Cu512  O538    1.965   .     S
Cu512  O542    1.942   .     S
Cu512  O537    1.965   .     S
Cu512  Cu579   2.678   .     S
H521   O534    1.014   .     S
H522   O536    1.014   .     S
H524   C561    1.083   .     S
H527   C559    1.080   .     S
O537   C556    1.291   .     S
O541   C554    1.297   .     S
C545   C548    1.450   .     S
C545   O606    1.291   .     A
C545   O465    1.291   1_655 S
C546   H584    1.083   .     S
C547   C577    1.401   .     A
C547   C556    1.450   .     S
C548   C576    1.401   .     A
C548   C410    1.401   1_655 S
C549   H585    1.082   .     S
C549   N600    1.368   .     A
C549   C551    1.417   .     A
C550   N599    1.368   .     A
C550   C552    1.417   .     A
C550   H586    1.082   .     S
C551   N599    1.367   .     A
C551   H587    1.082   .     S
C552   N600    1.367   .     A
C552   H588    1.082   .     S
C553   C555    1.468   .     S
C553   O610    1.294   .     A
C553   O472    1.297   1_655 S
C554   O611    1.294   .     A
C554   C557    1.468   .     S
C555   C562    1.395   .     A
C555   C560    1.395   .     A
C556   O607    1.291   .     A
C557   C561    1.395   .     A
C557   C563    1.395   .     A
C558   C566    1.413   .     A
C558   C560    1.391   .     A
C558   H458    1.080   1_655 S
C559   C568    1.413   .     A
C559   C561    1.391   .     A
C560   H457    1.083   1_655 S
C562   H591    1.075   .     S
C562   C564    1.407   .     A
C563   H581    1.075   .     S
C563   C565    1.407   .     A
C564   C566    1.424   .     A
C564   C569    1.427   .     A
C565   C570    1.427   .     A
C565   C568    1.424   .     A
C566   C1186   1.410   .     S
C567   H596    1.077   .     S
C567   C574    1.397   .     A
C567   C570    1.415   .     A
C568   C1187   1.412   1_554 S
C569   C573    1.415   .     A
C569   C1182   1.415   .     S
C570   C1181   1.415   1_554 S
C571   C574    1.490   .     S
C571   O612    1.223   .     D
C571   O602    1.398   .     S
C572   O604    1.399   .     S
C572   O603    1.223   .     D
C572   C575    1.490   .     S
C573   C575    1.396   .     A
C573   H597    1.076   .     S
C574   C1178   1.410   1_554 S
C575   C1180   1.412   .     S
C576   H598    1.083   .     S
C577   H582    1.083   .     S
C577   C138    1.383   1_565 S
C578   H583    1.083   .     S
C578   C411    1.401   1_655 S
C578   C168    1.383   1_565 S
Cu579  O608    1.956   .     S
Cu579  O601    1.965   .     S
Cu579  O607    1.965   .     S
Cu579  O611    1.942   .     S
Cu579  N599    2.013   .     S
Cu580  N600    2.013   .     S
Cu580  O609    1.956   .     S
Cu580  O606    1.965   .     S
Cu580  O610    1.942   .     S
Cu580  O605    1.965   .     S
Cu580  Cu443   2.678   1_655 S
H589   O602    1.014   .     S
H590   O604    1.014   .     S
H592   C425    1.083   1_655 S
H595   C423    1.080   1_655 S
O605   C420    1.291   1_655 S
O609   C418    1.297   1_655 S
C613   C616    1.450   .     S
C613   O674    1.291   .     A
C613   O737    1.291   .     S
C614   H652    1.083   .     S
C614   C752    1.401   1_455 S
C614   C1053   1.383   1_545 S
C615   C645    1.401   .     A
C615   C624    1.450   .     S
C615   C782    1.401   1_455 S
C616   C644    1.401   .     A
C616   C682    1.401   .     S
C617   H653    1.082   .     S
C617   N668    1.368   .     A
C617   C619    1.417   .     A
C618   N667    1.368   .     A
C618   C620    1.417   .     A
C618   H654    1.082   .     S
C619   N667    1.367   .     A
C619   H655    1.082   .     S
C620   N668    1.367   .     A
C620   H656    1.082   .     S
C621   C623    1.468   .     S
C621   O678    1.294   .     A
C621   O744    1.297   .     S
C622   O679    1.294   .     A
C622   C625    1.468   .     S
C622   O813    1.297   1_455 S
C623   C630    1.395   .     A
C623   C628    1.395   .     A
C624   O675    1.291   .     A
C624   O809    1.291   1_455 S
C625   C629    1.395   .     A
C625   C631    1.395   .     A
C626   C634    1.413   .     A
C626   C628    1.391   .     A
C626   H730    1.080   .     S
C627   C636    1.413   .     A
C627   C629    1.391   .     A
C627   H799    1.080   1_455 S
C628   H729    1.083   .     S
C629   H796    1.083   1_455 S
C630   H659    1.075   .     S
C630   C632    1.407   .     A
C631   H649    1.075   .     S
C631   C633    1.407   .     A
C632   C634    1.424   .     A
C632   C637    1.427   .     A
C633   C638    1.427   .     A
C633   C636    1.424   .     A
C634   C30     1.410   1_556 S
C635   H664    1.077   .     S
C635   C642    1.397   .     A
C635   C638    1.415   .     A
C637   C641    1.415   .     A
C637   C26     1.415   1_556 S
C639   C642    1.490   .     S
C639   O680    1.223   .     D
C639   O670    1.398   .     S
C640   O672    1.399   .     S
C640   O671    1.223   .     D
C640   C643    1.490   .     S
C641   C643    1.396   .     A
C641   H665    1.076   .     S
C643   C24     1.412   1_556 S
C644   H666    1.083   .     S
C644   C1054   1.383   1_545 S
C645   H650    1.083   .     S
C645   C818    1.383   .     S
C646   H651    1.083   .     S
C646   C683    1.401   .     S
C646   C848    1.383   .     S
Cu647  O676    1.956   .     S
Cu647  O669    1.965   .     S
Cu647  O675    1.965   .     S
Cu647  O679    1.942   .     S
Cu647  N667    2.013   .     S
Cu647  Cu784   2.678   1_455 S
Cu648  N668    2.013   .     S
Cu648  O677    1.956   .     S
Cu648  O674    1.965   .     S
Cu648  O678    1.942   .     S
Cu648  O673    1.965   .     S
Cu648  Cu715   2.678   .     S
H657   O670    1.014   .     S
H658   O672    1.014   .     S
H660   C697    1.083   .     S
H661   C764    1.083   1_455 S
H662   C762    1.080   1_455 S
H663   C695    1.080   .     S
O669   C749    1.291   1_455 S
O673   C692    1.291   .     S
O676   C757    1.297   1_455 S
O677   C690    1.297   .     S
C681   C684    1.450   .     S
C681   O742    1.291   .     A
C681   O805    1.291   .     S
C682   H720    1.083   .     S
C682   C1121   1.383   1_545 S
C683   C713    1.401   .     A
C683   C692    1.450   .     S
C684   C712    1.401   .     A
C684   C750    1.401   .     S
C685   H721    1.082   .     S
C685   N736    1.368   .     A
C685   C687    1.417   .     A
C686   N735    1.368   .     A
C686   C688    1.417   .     A
C686   H722    1.082   .     S
C687   N735    1.367   .     A
C687   H723    1.082   .     S
C688   N736    1.367   .     A
C688   H724    1.082   .     S
C689   C691    1.468   .     S
C689   O746    1.294   .     A
C689   O812    1.297   .     S
C690   O747    1.294   .     A
C690   C693    1.468   .     S
C691   C698    1.395   .     A
C691   C696    1.395   .     A
C692   O743    1.291   .     A
C693   C697    1.395   .     A
C693   C699    1.395   .     A
C694   C702    1.413   .     A
C694   C696    1.391   .     A
C694   H798    1.080   .     S
C695   C704    1.413   .     A
C695   C697    1.391   .     A
C696   H797    1.083   .     S
C698   H727    1.075   .     S
C698   C700    1.407   .     A
C699   H717    1.075   .     S
C699   C701    1.407   .     A
C700   C702    1.424   .     A
C700   C705    1.427   .     A
C701   C706    1.427   .     A
C701   C704    1.424   .     A
C702   C98     1.410   1_556 S
C703   H732    1.077   .     S
C703   C710    1.397   .     A
C703   C706    1.415   .     A
C705   C709    1.415   .     A
C705   C94     1.415   1_556 S
C707   C710    1.490   .     S
C707   O748    1.223   .     D
C707   O738    1.398   .     S
C708   O740    1.399   .     S
C708   O739    1.223   .     D
C708   C711    1.490   .     S
C709   C711    1.396   .     A
C709   H733    1.076   .     S
C711   C92     1.412   1_556 S
C712   H734    1.083   .     S
C712   C1122   1.383   1_545 S
C713   H718    1.083   .     S
C713   C886    1.383   .     S
C714   H719    1.083   .     S
C714   C751    1.401   .     S
C714   C916    1.383   .     S
Cu715  O744    1.956   .     S
Cu715  O737    1.965   .     S
Cu715  O743    1.965   .     S
Cu715  O747    1.942   .     S
Cu715  N735    2.013   .     S
Cu716  N736    2.013   .     S
Cu716  O745    1.956   .     S
Cu716  O742    1.965   .     S
Cu716  O746    1.942   .     S
Cu716  O741    1.965   .     S
Cu716  Cu783   2.678   .     S
H725   O738    1.014   .     S
H726   O740    1.014   .     S
H728   C765    1.083   .     S
H731   C763    1.080   .     S
O741   C760    1.291   .     S
O745   C758    1.297   .     S
C749   C752    1.450   .     S
C749   O810    1.291   .     A
C749   O669    1.291   1_655 S
C750   H788    1.083   .     S
C750   C1189   1.383   1_545 S
C751   C781    1.401   .     A
C751   C760    1.450   .     S
C752   C780    1.401   .     A
C752   C614    1.401   1_655 S
C753   H789    1.082   .     S
C753   N804    1.368   .     A
C753   C755    1.417   .     A
C754   N803    1.368   .     A
C754   C756    1.417   .     A
C754   H790    1.082   .     S
C755   N803    1.367   .     A
C755   H791    1.082   .     S
C756   N804    1.367   .     A
C756   H792    1.082   .     S
C757   C759    1.468   .     S
C757   O814    1.294   .     A
C757   O676    1.297   1_655 S
C758   O815    1.294   .     A
C758   C761    1.468   .     S
C759   C766    1.395   .     A
C759   C764    1.395   .     A
C760   O811    1.291   .     A
C761   C765    1.395   .     A
C761   C767    1.395   .     A
C762   C770    1.413   .     A
C762   C764    1.391   .     A
C762   H662    1.080   1_655 S
C763   C772    1.413   .     A
C763   C765    1.391   .     A
C764   H661    1.083   1_655 S
C766   H795    1.075   .     S
C766   C768    1.407   .     A
C767   H785    1.075   .     S
C767   C769    1.407   .     A
C768   C770    1.424   .     A
C768   C773    1.427   .     A
C769   C774    1.427   .     A
C769   C772    1.424   .     A
C770   C166    1.410   1_556 S
C771   H800    1.077   .     S
C771   C778    1.397   .     A
C771   C774    1.415   .     A
C773   C777    1.415   .     A
C773   C162    1.415   1_556 S
C775   C778    1.490   .     S
C775   O816    1.223   .     D
C775   O806    1.398   .     S
C776   O808    1.399   .     S
C776   O807    1.223   .     D
C776   C779    1.490   .     S
C777   C779    1.396   .     A
C777   H801    1.076   .     S
C779   C160    1.412   1_556 S
C780   H802    1.083   .     S
C780   C1190   1.383   1_545 S
C781   H786    1.083   .     S
C781   C954    1.383   .     S
C782   H787    1.083   .     S
C782   C615    1.401   1_655 S
C782   C984    1.383   .     S
Cu783  O812    1.956   .     S
Cu783  O805    1.965   .     S
Cu783  O811    1.965   .     S
Cu783  O815    1.942   .     S
Cu783  N803    2.013   .     S
Cu784  N804    2.013   .     S
Cu784  O813    1.956   .     S
Cu784  O810    1.965   .     S
Cu784  O814    1.942   .     S
Cu784  O809    1.965   .     S
Cu784  Cu647   2.678   1_655 S
H793   O806    1.014   .     S
H794   O808    1.014   .     S
H796   C629    1.083   1_655 S
H799   C627    1.080   1_655 S
O809   C624    1.291   1_655 S
O813   C622    1.297   1_655 S
C817   C820    1.450   .     S
C817   O878    1.291   .     A
C817   O941    1.291   .     S
C818   H856    1.083   .     S
C818   C956    1.401   1_455 S
C819   C849    1.401   .     A
C819   C828    1.450   .     S
C819   C986    1.401   1_455 S
C820   C848    1.401   .     A
C820   C886    1.401   .     S
C821   H857    1.082   .     S
C821   N872    1.368   .     A
C821   C823    1.417   .     A
C822   N871    1.368   .     A
C822   C824    1.417   .     A
C822   H858    1.082   .     S
C823   N871    1.367   .     A
C823   H859    1.082   .     S
C824   N872    1.367   .     A
C824   H860    1.082   .     S
C825   C827    1.468   .     S
C825   O882    1.294   .     A
C825   O948    1.297   .     S
C826   O883    1.294   .     A
C826   C829    1.468   .     S
C826   O1017   1.297   1_455 S
C827   C834    1.395   .     A
C827   C832    1.395   .     A
C828   O879    1.291   .     A
C828   O1013   1.291   1_455 S
C829   C833    1.395   .     A
C829   C835    1.395   .     A
C830   C838    1.413   .     A
C830   C832    1.391   .     A
C830   H934    1.080   .     S
C831   C840    1.413   .     A
C831   C833    1.391   .     A
C831   H1003   1.080   1_455 S
C832   H933    1.083   .     S
C833   H1000   1.083   1_455 S
C834   H863    1.075   .     S
C834   C836    1.407   .     A
C835   H853    1.075   .     S
C835   C837    1.407   .     A
C836   C838    1.424   .     A
C836   C841    1.427   .     A
C837   C842    1.427   .     A
C837   C840    1.424   .     A
C838   C234    1.410   1_556 S
C839   H868    1.077   .     S
C839   C846    1.397   .     A
C839   C842    1.415   .     A
C841   C845    1.415   .     A
C841   C230    1.415   1_556 S
C843   C846    1.490   .     S
C843   O884    1.223   .     D
C843   O874    1.398   .     S
C844   O876    1.399   .     S
C844   O875    1.223   .     D
C844   C847    1.490   .     S
C845   C847    1.396   .     A
C845   H869    1.076   .     S
C847   C228    1.412   1_556 S
C848   H870    1.083   .     S
C849   H854    1.083   .     S
C849   C1022   1.383   .     S
C850   H855    1.083   .     S
C850   C887    1.401   .     S
C850   C1052   1.383   .     S
Cu851  O880    1.956   .     S
Cu851  O873    1.965   .     S
Cu851  O879    1.965   .     S
Cu851  O883    1.942   .     S
Cu851  N871    2.013   .     S
Cu851  Cu988   2.678   1_455 S
Cu852  N872    2.013   .     S
Cu852  O881    1.956   .     S
Cu852  O878    1.965   .     S
Cu852  O882    1.942   .     S
Cu852  O877    1.965   .     S
Cu852  Cu919   2.678   .     S
H861   O874    1.014   .     S
H862   O876    1.014   .     S
H864   C901    1.083   .     S
H865   C968    1.083   1_455 S
H866   C966    1.080   1_455 S
H867   C899    1.080   .     S
O873   C953    1.291   1_455 S
O877   C896    1.291   .     S
O880   C961    1.297   1_455 S
O881   C894    1.297   .     S
C885   C888    1.450   .     S
C885   O946    1.291   .     A
C885   O1009   1.291   .     S
C886   H924    1.083   .     S
C887   C917    1.401   .     A
C887   C896    1.450   .     S
C888   C916    1.401   .     A
C888   C954    1.401   .     S
C889   H925    1.082   .     S
C889   N940    1.368   .     A
C889   C891    1.417   .     A
C890   N939    1.368   .     A
C890   C892    1.417   .     A
C890   H926    1.082   .     S
C891   N939    1.367   .     A
C891   H927    1.082   .     S
C892   N940    1.367   .     A
C892   H928    1.082   .     S
C893   C895    1.468   .     S
C893   O950    1.294   .     A
C893   O1016   1.297   .     S
C894   O951    1.294   .     A
C894   C897    1.468   .     S
C895   C902    1.395   .     A
C895   C900    1.395   .     A
C896   O947    1.291   .     A
C897   C901    1.395   .     A
C897   C903    1.395   .     A
C898   C906    1.413   .     A
C898   C900    1.391   .     A
C898   H1002   1.080   .     S
C899   C908    1.413   .     A
C899   C901    1.391   .     A
C900   H1001   1.083   .     S
C902   H931    1.075   .     S
C902   C904    1.407   .     A
C903   H921    1.075   .     S
C903   C905    1.407   .     A
C904   C906    1.424   .     A
C904   C909    1.427   .     A
C905   C910    1.427   .     A
C905   C908    1.424   .     A
C906   C302    1.410   1_556 S
C907   H936    1.077   .     S
C907   C914    1.397   .     A
C907   C910    1.415   .     A
C909   C913    1.415   .     A
C909   C298    1.415   1_556 S
C911   C914    1.490   .     S
C911   O952    1.223   .     D
C911   O942    1.398   .     S
C912   O944    1.399   .     S
C912   O943    1.223   .     D
C912   C915    1.490   .     S
C913   C915    1.396   .     A
C913   H937    1.076   .     S
C915   C296    1.412   1_556 S
C916   H938    1.083   .     S
C917   H922    1.083   .     S
C917   C1090   1.383   .     S
C918   H923    1.083   .     S
C918   C955    1.401   .     S
C918   C1120   1.383   .     S
Cu919  O948    1.956   .     S
Cu919  O941    1.965   .     S
Cu919  O947    1.965   .     S
Cu919  O951    1.942   .     S
Cu919  N939    2.013   .     S
Cu920  N940    2.013   .     S
Cu920  O949    1.956   .     S
Cu920  O946    1.965   .     S
Cu920  O950    1.942   .     S
Cu920  O945    1.965   .     S
Cu920  Cu987   2.678   .     S
H929   O942    1.014   .     S
H930   O944    1.014   .     S
H932   C969    1.083   .     S
H935   C967    1.080   .     S
O945   C964    1.291   .     S
O949   C962    1.297   .     S
C953   C956    1.450   .     S
C953   O1014   1.291   .     A
C953   O873    1.291   1_655 S
C954   H992    1.083   .     S
C955   C985    1.401   .     A
C955   C964    1.450   .     S
C956   C984    1.401   .     A
C956   C818    1.401   1_655 S
C957   H993    1.082   .     S
C957   N1008   1.368   .     A
C957   C959    1.417   .     A
C958   N1007   1.368   .     A
C958   C960    1.417   .     A
C958   H994    1.082   .     S
C959   N1007   1.367   .     A
C959   H995    1.082   .     S
C960   N1008   1.367   .     A
C960   H996    1.082   .     S
C961   C963    1.468   .     S
C961   O1018   1.294   .     A
C961   O880    1.297   1_655 S
C962   O1019   1.294   .     A
C962   C965    1.468   .     S
C963   C970    1.395   .     A
C963   C968    1.395   .     A
C964   O1015   1.291   .     A
C965   C969    1.395   .     A
C965   C971    1.395   .     A
C966   C974    1.413   .     A
C966   C968    1.391   .     A
C966   H866    1.080   1_655 S
C967   C976    1.413   .     A
C967   C969    1.391   .     A
C968   H865    1.083   1_655 S
C970   H999    1.075   .     S
C970   C972    1.407   .     A
C971   H989    1.075   .     S
C971   C973    1.407   .     A
C972   C974    1.424   .     A
C972   C977    1.427   .     A
C973   C978    1.427   .     A
C973   C976    1.424   .     A
C974   C370    1.410   1_556 S
C975   H1004   1.077   .     S
C975   C982    1.397   .     A
C975   C978    1.415   .     A
C977   C981    1.415   .     A
C977   C366    1.415   1_556 S
C979   C982    1.490   .     S
C979   O1020   1.223   .     D
C979   O1010   1.398   .     S
C980   O1012   1.399   .     S
C980   O1011   1.223   .     D
C980   C983    1.490   .     S
C981   C983    1.396   .     A
C981   H1005   1.076   .     S
C983   C364    1.412   1_556 S
C984   H1006   1.083   .     S
C985   H990    1.083   .     S
C985   C1158   1.383   .     S
C986   H991    1.083   .     S
C986   C819    1.401   1_655 S
C986   C1188   1.383   .     S
Cu987  O1016   1.956   .     S
Cu987  O1009   1.965   .     S
Cu987  O1015   1.965   .     S
Cu987  O1019   1.942   .     S
Cu987  N1007   2.013   .     S
Cu988  N1008   2.013   .     S
Cu988  O1017   1.956   .     S
Cu988  O1014   1.965   .     S
Cu988  O1018   1.942   .     S
Cu988  O1013   1.965   .     S
Cu988  Cu851   2.678   1_655 S
H997   O1010   1.014   .     S
H998   O1012   1.014   .     S
H1000  C833    1.083   1_655 S
H1003  C831    1.080   1_655 S
O1013  C828    1.291   1_655 S
O1017  C826    1.297   1_655 S
C1021  C1024   1.450   .     S
C1021  O1082   1.291   .     A
C1021  O1145   1.291   .     S
C1022  H1060   1.083   .     S
C1022  C1160   1.401   1_455 S
C1023  C1053   1.401   .     A
C1023  C1032   1.450   .     S
C1023  C1190   1.401   1_455 S
C1024  C1052   1.401   .     A
C1024  C1090   1.401   .     S
C1025  H1061   1.082   .     S
C1025  N1076   1.368   .     A
C1025  C1027   1.417   .     A
C1026  N1075   1.368   .     A
C1026  C1028   1.417   .     A
C1026  H1062   1.082   .     S
C1027  N1075   1.367   .     A
C1027  H1063   1.082   .     S
C1028  N1076   1.367   .     A
C1028  H1064   1.082   .     S
C1029  C1031   1.468   .     S
C1029  O1086   1.294   .     A
C1029  O1152   1.297   .     S
C1030  O1087   1.294   .     A
C1030  C1033   1.468   .     S
C1030  O1221   1.297   1_455 S
C1031  C1038   1.395   .     A
C1031  C1036   1.395   .     A
C1032  O1083   1.291   .     A
C1032  O1217   1.291   1_455 S
C1033  C1037   1.395   .     A
C1033  C1039   1.395   .     A
C1034  C1042   1.413   .     A
C1034  C1036   1.391   .     A
C1034  H1138   1.080   .     S
C1035  C1044   1.413   .     A
C1035  C1037   1.391   .     A
C1035  H1207   1.080   1_455 S
C1036  H1137   1.083   .     S
C1037  H1204   1.083   1_455 S
C1038  H1067   1.075   .     S
C1038  C1040   1.407   .     A
C1039  H1057   1.075   .     S
C1039  C1041   1.407   .     A
C1040  C1042   1.424   .     A
C1040  C1045   1.427   .     A
C1041  C1046   1.427   .     A
C1041  C1044   1.424   .     A
C1042  C438    1.410   1_556 S
C1043  H1072   1.077   .     S
C1043  C1050   1.397   .     A
C1043  C1046   1.415   .     A
C1045  C1049   1.415   .     A
C1045  C434    1.415   1_556 S
C1047  C1050   1.490   .     S
C1047  O1088   1.223   .     D
C1047  O1078   1.398   .     S
C1048  O1080   1.399   .     S
C1048  O1079   1.223   .     D
C1048  C1051   1.490   .     S
C1049  C1051   1.396   .     A
C1049  H1073   1.076   .     S
C1051  C432    1.412   1_556 S
C1052  H1074   1.083   .     S
C1053  H1058   1.083   .     S
C1053  C614    1.383   1_565 S
C1054  H1059   1.083   .     S
C1054  C1091   1.401   .     S
C1054  C644    1.383   1_565 S
Cu1055 O1084   1.956   .     S
Cu1055 O1077   1.965   .     S
Cu1055 O1083   1.965   .     S
Cu1055 O1087   1.942   .     S
Cu1055 N1075   2.013   .     S
Cu1055 Cu1192  2.678   1_455 S
Cu1056 N1076   2.013   .     S
Cu1056 O1085   1.956   .     S
Cu1056 O1082   1.965   .     S
Cu1056 O1086   1.942   .     S
Cu1056 O1081   1.965   .     S
Cu1056 Cu1123  2.678   .     S
H1065  O1078   1.014   .     S
H1066  O1080   1.014   .     S
H1068  C1105   1.083   .     S
H1069  C1172   1.083   1_455 S
H1070  C1170   1.080   1_455 S
H1071  C1103   1.080   .     S
O1077  C1157   1.291   1_455 S
O1081  C1100   1.291   .     S
O1084  C1165   1.297   1_455 S
O1085  C1098   1.297   .     S
C1089  C1092   1.450   .     S
C1089  O1150   1.291   .     A
C1089  O1213   1.291   .     S
C1090  H1128   1.083   .     S
C1091  C1121   1.401   .     A
C1091  C1100   1.450   .     S
C1092  C1120   1.401   .     A
C1092  C1158   1.401   .     S
C1093  H1129   1.082   .     S
C1093  N1144   1.368   .     A
C1093  C1095   1.417   .     A
C1094  N1143   1.368   .     A
C1094  C1096   1.417   .     A
C1094  H1130   1.082   .     S
C1095  N1143   1.367   .     A
C1095  H1131   1.082   .     S
C1096  N1144   1.367   .     A
C1096  H1132   1.082   .     S
C1097  C1099   1.468   .     S
C1097  O1154   1.294   .     A
C1097  O1220   1.297   .     S
C1098  O1155   1.294   .     A
C1098  C1101   1.468   .     S
C1099  C1106   1.395   .     A
C1099  C1104   1.395   .     A
C1100  O1151   1.291   .     A
C1101  C1105   1.395   .     A
C1101  C1107   1.395   .     A
C1102  C1110   1.413   .     A
C1102  C1104   1.391   .     A
C1102  H1206   1.080   .     S
C1103  C1112   1.413   .     A
C1103  C1105   1.391   .     A
C1104  H1205   1.083   .     S
C1106  H1135   1.075   .     S
C1106  C1108   1.407   .     A
C1107  H1125   1.075   .     S
C1107  C1109   1.407   .     A
C1108  C1110   1.424   .     A
C1108  C1113   1.427   .     A
C1109  C1114   1.427   .     A
C1109  C1112   1.424   .     A
C1110  C506    1.410   1_556 S
C1111  H1140   1.077   .     S
C1111  C1118   1.397   .     A
C1111  C1114   1.415   .     A
C1113  C1117   1.415   .     A
C1113  C502    1.415   1_556 S
C1115  C1118   1.490   .     S
C1115  O1156   1.223   .     D
C1115  O1146   1.398   .     S
C1116  O1148   1.399   .     S
C1116  O1147   1.223   .     D
C1116  C1119   1.490   .     S
C1117  C1119   1.396   .     A
C1117  H1141   1.076   .     S
C1119  C500    1.412   1_556 S
C1120  H1142   1.083   .     S
C1121  H1126   1.083   .     S
C1121  C682    1.383   1_565 S
C1122  H1127   1.083   .     S
C1122  C1159   1.401   .     S
C1122  C712    1.383   1_565 S
Cu1123 O1152   1.956   .     S
Cu1123 O1145   1.965   .     S
Cu1123 O1151   1.965   .     S
Cu1123 O1155   1.942   .     S
Cu1123 N1143   2.013   .     S
Cu1124 N1144   2.013   .     S
Cu1124 O1153   1.956   .     S
Cu1124 O1150   1.965   .     S
Cu1124 O1154   1.942   .     S
Cu1124 O1149   1.965   .     S
Cu1124 Cu1191  2.678   .     S
H1133  O1146   1.014   .     S
H1134  O1148   1.014   .     S
H1136  C1173   1.083   .     S
H1139  C1171   1.080   .     S
O1149  C1168   1.291   .     S
O1153  C1166   1.297   .     S
C1157  C1160   1.450   .     S
C1157  O1218   1.291   .     A
C1157  O1077   1.291   1_655 S
C1158  H1196   1.083   .     S
C1159  C1189   1.401   .     A
C1159  C1168   1.450   .     S
C1160  C1188   1.401   .     A
C1160  C1022   1.401   1_655 S
C1161  H1197   1.082   .     S
C1161  N1212   1.368   .     A
C1161  C1163   1.417   .     A
C1162  N1211   1.368   .     A
C1162  C1164   1.417   .     A
C1162  H1198   1.082   .     S
C1163  N1211   1.367   .     A
C1163  H1199   1.082   .     S
C1164  N1212   1.367   .     A
C1164  H1200   1.082   .     S
C1165  C1167   1.468   .     S
C1165  O1222   1.294   .     A
C1165  O1084   1.297   1_655 S
C1166  O1223   1.294   .     A
C1166  C1169   1.468   .     S
C1167  C1174   1.395   .     A
C1167  C1172   1.395   .     A
C1168  O1219   1.291   .     A
C1169  C1173   1.395   .     A
C1169  C1175   1.395   .     A
C1170  C1178   1.413   .     A
C1170  C1172   1.391   .     A
C1170  H1070   1.080   1_655 S
C1171  C1180   1.413   .     A
C1171  C1173   1.391   .     A
C1172  H1069   1.083   1_655 S
C1174  H1203   1.075   .     S
C1174  C1176   1.407   .     A
C1175  H1193   1.075   .     S
C1175  C1177   1.407   .     A
C1176  C1178   1.424   .     A
C1176  C1181   1.427   .     A
C1177  C1182   1.427   .     A
C1177  C1180   1.424   .     A
C1178  C574    1.410   1_556 S
C1179  H1208   1.077   .     S
C1179  C1186   1.397   .     A
C1179  C1182   1.415   .     A
C1181  C1185   1.415   .     A
C1181  C570    1.415   1_556 S
C1183  C1186   1.490   .     S
C1183  O1224   1.223   .     D
C1183  O1214   1.398   .     S
C1184  O1216   1.399   .     S
C1184  O1215   1.223   .     D
C1184  C1187   1.490   .     S
C1185  C1187   1.396   .     A
C1185  H1209   1.076   .     S
C1187  C568    1.412   1_556 S
C1188  H1210   1.083   .     S
C1189  H1194   1.083   .     S
C1189  C750    1.383   1_565 S
C1190  H1195   1.083   .     S
C1190  C1023   1.401   1_655 S
C1190  C780    1.383   1_565 S
Cu1191 O1220   1.956   .     S
Cu1191 O1213   1.965   .     S
Cu1191 O1219   1.965   .     S
Cu1191 O1223   1.942   .     S
Cu1191 N1211   2.013   .     S
Cu1192 N1212   2.013   .     S
Cu1192 O1221   1.956   .     S
Cu1192 O1218   1.965   .     S
Cu1192 O1222   1.942   .     S
Cu1192 O1217   1.965   .     S
Cu1192 Cu1055  2.678   1_655 S
H1201  O1214   1.014   .     S
H1202  O1216   1.014   .     S
H1204  C1037   1.083   1_655 S
H1207  C1035   1.080   1_655 S
O1217  C1032   1.291   1_655 S
O1221  C1030   1.297   1_655 S
