data_str_m2_o1_o18_pcu_sym.102
_audit_creation_date              2020-01-03
_audit_creation_method            'Materials Studio'
_symmetry_space_group_name_H-M    'P1'
_symmetry_Int_Tables_number       1
_symmetry_cell_setting            triclinic
loop_
_symmetry_equiv_pos_as_xyz
  x,y,z
_cell_length_a                    28.5452
_cell_length_b                    32.5016
_cell_length_c                    30.6630
_cell_angle_alpha                 89.8487
_cell_angle_beta                  75.1792
_cell_angle_gamma                 90.0176
loop_
_atom_site_label
_atom_site_type_symbol
_atom_site_fract_x
_atom_site_fract_y
_atom_site_fract_z
_atom_site_U_iso_or_equiv
_atom_site_adp_type
_atom_site_occupancy
C1     C     0.33331   0.08735   0.25004   0.00000  Uiso   1.00
C2     C     0.00003   0.24598   0.24996   0.00000  Uiso   1.00
C3     C     0.19095   0.14804   0.04731   0.00000  Uiso   1.00
C4     C     0.14235   0.18507   0.45266   0.00000  Uiso   1.00
C5     C     0.23837   0.13850   0.02540   0.00000  Uiso   1.00
C6     C     0.09493   0.19462   0.47455   0.00000  Uiso   1.00
C7     C     0.29087   0.02127   0.24958   0.00000  Uiso   1.00
C8     C     0.04246   0.31207   0.25042   0.00000  Uiso   1.00
C9     C     0.29090   0.31203   0.24950   0.00000  Uiso   1.00
C10    C     0.04243   0.02130   0.25050   0.00000  Uiso   1.00
C11    C     0.00003   0.29059   0.24994   0.00000  Uiso   1.00
C12    C     0.33331   0.04274   0.25006   0.00000  Uiso   1.00
C13    C     0.18512   0.13718   0.27299   0.00000  Uiso   1.00
C14    C     0.14821   0.19616   0.22701   0.00000  Uiso   1.00
C15    C     0.13556   0.13714   0.27290   0.00000  Uiso   1.00
C16    C     0.19778   0.19619   0.22710   0.00000  Uiso   1.00
C17    C     0.30644   0.16508   0.33635   0.00000  Uiso   1.00
C18    C     0.02689   0.16825   0.16364   0.00000  Uiso   1.00
C19    C     0.29211   0.15997   0.38598   0.00000  Uiso   1.00
C20    C     0.04122   0.17332   0.11402   0.00000  Uiso   1.00
C21    C     0.30428   0.13392   0.45685   0.00000  Uiso   1.00
C22    C     0.02904   0.19927   0.04311   0.00000  Uiso   1.00
C23    C     0.32224   0.14133   0.41040   0.00000  Uiso   1.00
C24    C     0.01109   0.19192   0.08957   0.00000  Uiso   1.00
C25    C     0.24486   0.17107   0.40846   0.00000  Uiso   1.00
C26    C     0.08847   0.16219   0.09155   0.00000  Uiso   1.00
C27    C     0.22507   0.16220   0.45438   0.00000  Uiso   1.00
C28    C     0.10824   0.17099   0.04560   0.00000  Uiso   1.00
C29    C     0.25602   0.14463   0.47898   0.00000  Uiso   1.00
C30    C     0.07729   0.18853   0.02099   0.00000  Uiso   1.00
C31    C     0.17538   0.17034   0.47641   0.00000  Uiso   1.00
C32    C     0.15792   0.16282   0.02357   0.00000  Uiso   1.00
Cu33   Cu    0.04689   0.16667   0.25000   0.00000  Uiso   1.00
Cu34   Cu    0.28645   0.16666   0.25000   0.00000  Uiso   1.00
H35    H     0.26124   0.12676   0.04578   0.00000  Uiso   1.00
H36    H     0.07204   0.20632   0.45416   0.00000  Uiso   1.00
H37    H     0.10908   0.14633   0.11118   0.00000  Uiso   1.00
H38    H     0.22426   0.18699   0.38884   0.00000  Uiso   1.00
H39    H     0.18179   0.14364   0.08327   0.00000  Uiso   1.00
H40    H     0.15150   0.18941   0.41668   0.00000  Uiso   1.00
H41    H     0.25768   0.03726   0.24924   0.00000  Uiso   1.00
H42    H     0.07565   0.29607   0.25076   0.00000  Uiso   1.00
H43    H     0.25774   0.29601   0.24910   0.00000  Uiso   1.00
H44    H     0.07560   0.03732   0.25090   0.00000  Uiso   1.00
H45    H     0.19866   0.11359   0.29152   0.00000  Uiso   1.00
H46    H     0.13467   0.21974   0.20848   0.00000  Uiso   1.00
H47    H     0.11190   0.11340   0.29112   0.00000  Uiso   1.00
H48    H     0.22144   0.21993   0.20887   0.00000  Uiso   1.00
N49    N     0.11736   0.16668   0.24999   0.00000  Uiso   1.00
N50    N     0.21597   0.16666   0.25001   0.00000  Uiso   1.00
O51    O     0.03958   0.10655   0.25000   0.00000  Uiso   1.00
O52    O     0.29375   0.22678   0.25000   0.00000  Uiso   1.00
O53    O     0.29372   0.10654   0.25000   0.00000  Uiso   1.00
O54    O     0.03961   0.22679   0.24999   0.00000  Uiso   1.00
O55    O     0.01852   0.16668   0.31491   0.00000  Uiso   1.00
O56    O     0.31481   0.16666   0.18508   0.00000  Uiso   1.00
O57    O     0.27267   0.16667   0.31492   0.00000  Uiso   1.00
O58    O     0.06067   0.16667   0.18508   0.00000  Uiso   1.00
Cl59   Cl    0.28478   0.20795   0.11629   0.00000  Uiso   1.00
Cl60   Cl    0.04856   0.12533   0.38367   0.00000  Uiso   1.00
Cl61   Cl    0.00899   0.10926   0.48645   0.00000  Uiso   1.00
Cl62   Cl    0.32433   0.22390   0.01349   0.00000  Uiso   1.00
C63    C     0.66664   0.08735   0.25004   0.00000  Uiso   1.00
C64    C     0.33336   0.24598   0.24996   0.00000  Uiso   1.00
C65    C     0.52428   0.14804   0.04731   0.00000  Uiso   1.00
C66    C     0.47568   0.18507   0.45266   0.00000  Uiso   1.00
C67    C     0.57170   0.13850   0.02540   0.00000  Uiso   1.00
C68    C     0.42826   0.19462   0.47455   0.00000  Uiso   1.00
C69    C     0.62421   0.02127   0.24958   0.00000  Uiso   1.00
C70    C     0.37579   0.31207   0.25042   0.00000  Uiso   1.00
C71    C     0.62424   0.31203   0.24950   0.00000  Uiso   1.00
C72    C     0.37576   0.02130   0.25050   0.00000  Uiso   1.00
C73    C     0.33336   0.29059   0.24994   0.00000  Uiso   1.00
C74    C     0.66664   0.04274   0.25006   0.00000  Uiso   1.00
C75    C     0.51846   0.13718   0.27299   0.00000  Uiso   1.00
C76    C     0.48154   0.19616   0.22701   0.00000  Uiso   1.00
C77    C     0.46889   0.13714   0.27290   0.00000  Uiso   1.00
C78    C     0.53111   0.19619   0.22710   0.00000  Uiso   1.00
C79    C     0.63978   0.16508   0.33635   0.00000  Uiso   1.00
C80    C     0.36022   0.16825   0.16364   0.00000  Uiso   1.00
C81    C     0.62545   0.15997   0.38598   0.00000  Uiso   1.00
C82    C     0.37455   0.17332   0.11402   0.00000  Uiso   1.00
C83    C     0.63761   0.13392   0.45685   0.00000  Uiso   1.00
C84    C     0.36237   0.19927   0.04311   0.00000  Uiso   1.00
C85    C     0.65557   0.14133   0.41040   0.00000  Uiso   1.00
C86    C     0.34442   0.19192   0.08957   0.00000  Uiso   1.00
C87    C     0.57819   0.17107   0.40846   0.00000  Uiso   1.00
C88    C     0.42180   0.16219   0.09155   0.00000  Uiso   1.00
C89    C     0.55840   0.16220   0.45438   0.00000  Uiso   1.00
C90    C     0.44158   0.17099   0.04560   0.00000  Uiso   1.00
C91    C     0.58935   0.14463   0.47898   0.00000  Uiso   1.00
C92    C     0.41062   0.18853   0.02099   0.00000  Uiso   1.00
C93    C     0.50872   0.17034   0.47641   0.00000  Uiso   1.00
C94    C     0.49126   0.16282   0.02357   0.00000  Uiso   1.00
Cu95   Cu    0.38022   0.16667   0.25000   0.00000  Uiso   1.00
Cu96   Cu    0.61978   0.16666   0.25000   0.00000  Uiso   1.00
H97    H     0.59458   0.12676   0.04578   0.00000  Uiso   1.00
H98    H     0.40538   0.20632   0.45416   0.00000  Uiso   1.00
H99    H     0.44241   0.14633   0.11118   0.00000  Uiso   1.00
H100   H     0.55759   0.18699   0.38884   0.00000  Uiso   1.00
H101   H     0.51512   0.14364   0.08327   0.00000  Uiso   1.00
H102   H     0.48483   0.18941   0.41668   0.00000  Uiso   1.00
H103   H     0.59101   0.03726   0.24924   0.00000  Uiso   1.00
H104   H     0.40899   0.29607   0.25076   0.00000  Uiso   1.00
H105   H     0.59107   0.29601   0.24910   0.00000  Uiso   1.00
H106   H     0.40893   0.03732   0.25090   0.00000  Uiso   1.00
H107   H     0.53200   0.11359   0.29152   0.00000  Uiso   1.00
H108   H     0.46800   0.21974   0.20848   0.00000  Uiso   1.00
H109   H     0.44523   0.11340   0.29112   0.00000  Uiso   1.00
H110   H     0.55477   0.21993   0.20887   0.00000  Uiso   1.00
N111   N     0.45069   0.16668   0.24999   0.00000  Uiso   1.00
N112   N     0.54931   0.16666   0.25001   0.00000  Uiso   1.00
O113   O     0.37291   0.10655   0.25000   0.00000  Uiso   1.00
O114   O     0.62709   0.22678   0.25000   0.00000  Uiso   1.00
O115   O     0.62706   0.10654   0.25000   0.00000  Uiso   1.00
O116   O     0.37294   0.22679   0.24999   0.00000  Uiso   1.00
O117   O     0.35186   0.16668   0.31491   0.00000  Uiso   1.00
O118   O     0.64814   0.16666   0.18508   0.00000  Uiso   1.00
O119   O     0.60600   0.16667   0.31492   0.00000  Uiso   1.00
O120   O     0.39400   0.16667   0.18508   0.00000  Uiso   1.00
Cl121  Cl    0.61811   0.20795   0.11629   0.00000  Uiso   1.00
Cl122  Cl    0.38189   0.12533   0.38367   0.00000  Uiso   1.00
Cl123  Cl    0.34232   0.10926   0.48645   0.00000  Uiso   1.00
Cl124  Cl    0.65766   0.22390   0.01349   0.00000  Uiso   1.00
C125   C     0.99997   0.08735   0.25004   0.00000  Uiso   1.00
C126   C     0.66669   0.24598   0.24996   0.00000  Uiso   1.00
C127   C     0.85762   0.14804   0.04731   0.00000  Uiso   1.00
C128   C     0.80901   0.18507   0.45266   0.00000  Uiso   1.00
C129   C     0.90503   0.13850   0.02540   0.00000  Uiso   1.00
C130   C     0.76160   0.19462   0.47455   0.00000  Uiso   1.00
C131   C     0.95754   0.02127   0.24958   0.00000  Uiso   1.00
C132   C     0.70913   0.31207   0.25042   0.00000  Uiso   1.00
C133   C     0.95757   0.31203   0.24950   0.00000  Uiso   1.00
C134   C     0.70910   0.02130   0.25050   0.00000  Uiso   1.00
C135   C     0.66669   0.29059   0.24994   0.00000  Uiso   1.00
C136   C     0.99997   0.04274   0.25006   0.00000  Uiso   1.00
C137   C     0.85179   0.13718   0.27299   0.00000  Uiso   1.00
C138   C     0.81488   0.19616   0.22701   0.00000  Uiso   1.00
C139   C     0.80223   0.13714   0.27290   0.00000  Uiso   1.00
C140   C     0.86444   0.19619   0.22710   0.00000  Uiso   1.00
C141   C     0.97311   0.16508   0.33635   0.00000  Uiso   1.00
C142   C     0.69356   0.16825   0.16364   0.00000  Uiso   1.00
C143   C     0.95878   0.15997   0.38598   0.00000  Uiso   1.00
C144   C     0.70789   0.17332   0.11402   0.00000  Uiso   1.00
C145   C     0.97095   0.13392   0.45685   0.00000  Uiso   1.00
C146   C     0.69570   0.19927   0.04311   0.00000  Uiso   1.00
C147   C     0.98891   0.14133   0.41040   0.00000  Uiso   1.00
C148   C     0.67775   0.19192   0.08957   0.00000  Uiso   1.00
C149   C     0.91152   0.17107   0.40846   0.00000  Uiso   1.00
C150   C     0.75514   0.16219   0.09155   0.00000  Uiso   1.00
C151   C     0.89174   0.16220   0.45438   0.00000  Uiso   1.00
C152   C     0.77491   0.17099   0.04560   0.00000  Uiso   1.00
C153   C     0.92269   0.14463   0.47898   0.00000  Uiso   1.00
C154   C     0.74395   0.18853   0.02099   0.00000  Uiso   1.00
C155   C     0.84205   0.17034   0.47641   0.00000  Uiso   1.00
C156   C     0.82459   0.16282   0.02357   0.00000  Uiso   1.00
Cu157  Cu    0.71355   0.16667   0.25000   0.00000  Uiso   1.00
Cu158  Cu    0.95311   0.16666   0.25000   0.00000  Uiso   1.00
H159   H     0.92791   0.12676   0.04578   0.00000  Uiso   1.00
H160   H     0.73871   0.20632   0.45416   0.00000  Uiso   1.00
H161   H     0.77575   0.14633   0.11118   0.00000  Uiso   1.00
H162   H     0.89093   0.18699   0.38884   0.00000  Uiso   1.00
H163   H     0.84846   0.14364   0.08327   0.00000  Uiso   1.00
H164   H     0.81817   0.18941   0.41668   0.00000  Uiso   1.00
H165   H     0.92435   0.03726   0.24924   0.00000  Uiso   1.00
H166   H     0.74232   0.29607   0.25076   0.00000  Uiso   1.00
H167   H     0.92440   0.29601   0.24910   0.00000  Uiso   1.00
H168   H     0.74226   0.03732   0.25090   0.00000  Uiso   1.00
H169   H     0.86533   0.11359   0.29152   0.00000  Uiso   1.00
H170   H     0.80134   0.21974   0.20848   0.00000  Uiso   1.00
H171   H     0.77856   0.11340   0.29112   0.00000  Uiso   1.00
H172   H     0.88810   0.21993   0.20887   0.00000  Uiso   1.00
N173   N     0.78403   0.16668   0.24999   0.00000  Uiso   1.00
N174   N     0.88264   0.16666   0.25001   0.00000  Uiso   1.00
O175   O     0.70625   0.10655   0.25000   0.00000  Uiso   1.00
O176   O     0.96042   0.22678   0.25000   0.00000  Uiso   1.00
O177   O     0.96039   0.10654   0.25000   0.00000  Uiso   1.00
O178   O     0.70628   0.22679   0.24999   0.00000  Uiso   1.00
O179   O     0.68519   0.16668   0.31491   0.00000  Uiso   1.00
O180   O     0.98148   0.16666   0.18508   0.00000  Uiso   1.00
O181   O     0.93933   0.16667   0.31492   0.00000  Uiso   1.00
O182   O     0.72733   0.16667   0.18508   0.00000  Uiso   1.00
Cl183  Cl    0.95145   0.20795   0.11629   0.00000  Uiso   1.00
Cl184  Cl    0.71522   0.12533   0.38367   0.00000  Uiso   1.00
Cl185  Cl    0.67565   0.10926   0.48645   0.00000  Uiso   1.00
Cl186  Cl    0.99099   0.22390   0.01349   0.00000  Uiso   1.00
C187   C     0.33331   0.42069   0.25004   0.00000  Uiso   1.00
C188   C     0.00003   0.57931   0.24996   0.00000  Uiso   1.00
C189   C     0.19095   0.48138   0.04731   0.00000  Uiso   1.00
C190   C     0.14235   0.51840   0.45266   0.00000  Uiso   1.00
C191   C     0.23837   0.47183   0.02540   0.00000  Uiso   1.00
C192   C     0.09493   0.52795   0.47455   0.00000  Uiso   1.00
C193   C     0.29087   0.35460   0.24958   0.00000  Uiso   1.00
C194   C     0.04246   0.64540   0.25042   0.00000  Uiso   1.00
C195   C     0.29090   0.64537   0.24950   0.00000  Uiso   1.00
C196   C     0.04243   0.35463   0.25050   0.00000  Uiso   1.00
C197   C     0.00003   0.62393   0.24994   0.00000  Uiso   1.00
C198   C     0.33331   0.37607   0.25006   0.00000  Uiso   1.00
C199   C     0.18512   0.47051   0.27299   0.00000  Uiso   1.00
C200   C     0.14821   0.52949   0.22701   0.00000  Uiso   1.00
C201   C     0.13556   0.47048   0.27290   0.00000  Uiso   1.00
C202   C     0.19778   0.52952   0.22710   0.00000  Uiso   1.00
C203   C     0.30644   0.49841   0.33635   0.00000  Uiso   1.00
C204   C     0.02689   0.50158   0.16364   0.00000  Uiso   1.00
C205   C     0.29211   0.49330   0.38598   0.00000  Uiso   1.00
C206   C     0.04122   0.50665   0.11402   0.00000  Uiso   1.00
C207   C     0.30428   0.46725   0.45685   0.00000  Uiso   1.00
C208   C     0.02904   0.53261   0.04311   0.00000  Uiso   1.00
C209   C     0.32224   0.47466   0.41040   0.00000  Uiso   1.00
C210   C     0.01109   0.52525   0.08957   0.00000  Uiso   1.00
C211   C     0.24486   0.50441   0.40846   0.00000  Uiso   1.00
C212   C     0.08847   0.49553   0.09155   0.00000  Uiso   1.00
C213   C     0.22507   0.49554   0.45438   0.00000  Uiso   1.00
C214   C     0.10824   0.50432   0.04560   0.00000  Uiso   1.00
C215   C     0.25602   0.47797   0.47898   0.00000  Uiso   1.00
C216   C     0.07729   0.52187   0.02099   0.00000  Uiso   1.00
C217   C     0.17538   0.50367   0.47641   0.00000  Uiso   1.00
C218   C     0.15792   0.49615   0.02357   0.00000  Uiso   1.00
Cu219  Cu    0.04689   0.50001   0.25000   0.00000  Uiso   1.00
Cu220  Cu    0.28645   0.49999   0.25000   0.00000  Uiso   1.00
H221   H     0.26124   0.46009   0.04578   0.00000  Uiso   1.00
H222   H     0.07204   0.53966   0.45416   0.00000  Uiso   1.00
H223   H     0.10908   0.47966   0.11118   0.00000  Uiso   1.00
H224   H     0.22426   0.52033   0.38884   0.00000  Uiso   1.00
H225   H     0.18179   0.47698   0.08327   0.00000  Uiso   1.00
H226   H     0.15150   0.52274   0.41668   0.00000  Uiso   1.00
H227   H     0.25768   0.37060   0.24924   0.00000  Uiso   1.00
H228   H     0.07565   0.62940   0.25076   0.00000  Uiso   1.00
H229   H     0.25774   0.62934   0.24910   0.00000  Uiso   1.00
H230   H     0.07560   0.37066   0.25090   0.00000  Uiso   1.00
H231   H     0.19866   0.44693   0.29152   0.00000  Uiso   1.00
H232   H     0.13467   0.55307   0.20848   0.00000  Uiso   1.00
H233   H     0.11190   0.44673   0.29112   0.00000  Uiso   1.00
H234   H     0.22144   0.55326   0.20887   0.00000  Uiso   1.00
N235   N     0.11736   0.50001   0.24999   0.00000  Uiso   1.00
N236   N     0.21597   0.49999   0.25001   0.00000  Uiso   1.00
O237   O     0.03958   0.43989   0.25000   0.00000  Uiso   1.00
O238   O     0.29375   0.56011   0.25000   0.00000  Uiso   1.00
O239   O     0.29372   0.43988   0.25000   0.00000  Uiso   1.00
O240   O     0.03961   0.56012   0.24999   0.00000  Uiso   1.00
O241   O     0.01852   0.50001   0.31491   0.00000  Uiso   1.00
O242   O     0.31481   0.49999   0.18508   0.00000  Uiso   1.00
O243   O     0.27267   0.50000   0.31492   0.00000  Uiso   1.00
O244   O     0.06067   0.50000   0.18508   0.00000  Uiso   1.00
Cl245  Cl    0.28478   0.54128   0.11629   0.00000  Uiso   1.00
Cl246  Cl    0.04856   0.45867   0.38367   0.00000  Uiso   1.00
Cl247  Cl    0.00899   0.44259   0.48645   0.00000  Uiso   1.00
Cl248  Cl    0.32433   0.55724   0.01349   0.00000  Uiso   1.00
C249   C     0.66664   0.42069   0.25004   0.00000  Uiso   1.00
C250   C     0.33336   0.57931   0.24996   0.00000  Uiso   1.00
C251   C     0.52428   0.48138   0.04731   0.00000  Uiso   1.00
C252   C     0.47568   0.51840   0.45266   0.00000  Uiso   1.00
C253   C     0.57170   0.47183   0.02540   0.00000  Uiso   1.00
C254   C     0.42826   0.52795   0.47455   0.00000  Uiso   1.00
C255   C     0.62421   0.35460   0.24958   0.00000  Uiso   1.00
C256   C     0.37579   0.64540   0.25042   0.00000  Uiso   1.00
C257   C     0.62424   0.64537   0.24950   0.00000  Uiso   1.00
C258   C     0.37576   0.35463   0.25050   0.00000  Uiso   1.00
C259   C     0.33336   0.62393   0.24994   0.00000  Uiso   1.00
C260   C     0.66664   0.37607   0.25006   0.00000  Uiso   1.00
C261   C     0.51846   0.47051   0.27299   0.00000  Uiso   1.00
C262   C     0.48154   0.52949   0.22701   0.00000  Uiso   1.00
C263   C     0.46889   0.47048   0.27290   0.00000  Uiso   1.00
C264   C     0.53111   0.52952   0.22710   0.00000  Uiso   1.00
C265   C     0.63978   0.49841   0.33635   0.00000  Uiso   1.00
C266   C     0.36022   0.50158   0.16364   0.00000  Uiso   1.00
C267   C     0.62545   0.49330   0.38598   0.00000  Uiso   1.00
C268   C     0.37455   0.50665   0.11402   0.00000  Uiso   1.00
C269   C     0.63761   0.46725   0.45685   0.00000  Uiso   1.00
C270   C     0.36237   0.53261   0.04311   0.00000  Uiso   1.00
C271   C     0.65557   0.47466   0.41040   0.00000  Uiso   1.00
C272   C     0.34442   0.52525   0.08957   0.00000  Uiso   1.00
C273   C     0.57819   0.50441   0.40846   0.00000  Uiso   1.00
C274   C     0.42180   0.49553   0.09155   0.00000  Uiso   1.00
C275   C     0.55840   0.49554   0.45438   0.00000  Uiso   1.00
C276   C     0.44158   0.50432   0.04560   0.00000  Uiso   1.00
C277   C     0.58935   0.47797   0.47898   0.00000  Uiso   1.00
C278   C     0.41062   0.52187   0.02099   0.00000  Uiso   1.00
C279   C     0.50872   0.50367   0.47641   0.00000  Uiso   1.00
C280   C     0.49126   0.49615   0.02357   0.00000  Uiso   1.00
Cu281  Cu    0.38022   0.50001   0.25000   0.00000  Uiso   1.00
Cu282  Cu    0.61978   0.49999   0.25000   0.00000  Uiso   1.00
H283   H     0.59458   0.46009   0.04578   0.00000  Uiso   1.00
H284   H     0.40538   0.53966   0.45416   0.00000  Uiso   1.00
H285   H     0.44241   0.47966   0.11118   0.00000  Uiso   1.00
H286   H     0.55759   0.52033   0.38884   0.00000  Uiso   1.00
H287   H     0.51512   0.47698   0.08327   0.00000  Uiso   1.00
H288   H     0.48483   0.52274   0.41668   0.00000  Uiso   1.00
H289   H     0.59101   0.37060   0.24924   0.00000  Uiso   1.00
H290   H     0.40899   0.62940   0.25076   0.00000  Uiso   1.00
H291   H     0.59107   0.62934   0.24910   0.00000  Uiso   1.00
H292   H     0.40893   0.37066   0.25090   0.00000  Uiso   1.00
H293   H     0.53200   0.44693   0.29152   0.00000  Uiso   1.00
H294   H     0.46800   0.55307   0.20848   0.00000  Uiso   1.00
H295   H     0.44523   0.44673   0.29112   0.00000  Uiso   1.00
H296   H     0.55477   0.55326   0.20887   0.00000  Uiso   1.00
N297   N     0.45069   0.50001   0.24999   0.00000  Uiso   1.00
N298   N     0.54931   0.49999   0.25001   0.00000  Uiso   1.00
O299   O     0.37291   0.43989   0.25000   0.00000  Uiso   1.00
O300   O     0.62709   0.56011   0.25000   0.00000  Uiso   1.00
O301   O     0.62706   0.43988   0.25000   0.00000  Uiso   1.00
O302   O     0.37294   0.56012   0.24999   0.00000  Uiso   1.00
O303   O     0.35186   0.50001   0.31491   0.00000  Uiso   1.00
O304   O     0.64814   0.49999   0.18508   0.00000  Uiso   1.00
O305   O     0.60600   0.50000   0.31492   0.00000  Uiso   1.00
O306   O     0.39400   0.50000   0.18508   0.00000  Uiso   1.00
Cl307  Cl    0.61811   0.54128   0.11629   0.00000  Uiso   1.00
Cl308  Cl    0.38189   0.45867   0.38367   0.00000  Uiso   1.00
Cl309  Cl    0.34232   0.44259   0.48645   0.00000  Uiso   1.00
Cl310  Cl    0.65766   0.55724   0.01349   0.00000  Uiso   1.00
C311   C     0.99997   0.42069   0.25004   0.00000  Uiso   1.00
C312   C     0.66669   0.57931   0.24996   0.00000  Uiso   1.00
C313   C     0.85762   0.48138   0.04731   0.00000  Uiso   1.00
C314   C     0.80901   0.51840   0.45266   0.00000  Uiso   1.00
C315   C     0.90503   0.47183   0.02540   0.00000  Uiso   1.00
C316   C     0.76160   0.52795   0.47455   0.00000  Uiso   1.00
C317   C     0.95754   0.35460   0.24958   0.00000  Uiso   1.00
C318   C     0.70913   0.64540   0.25042   0.00000  Uiso   1.00
C319   C     0.95757   0.64537   0.24950   0.00000  Uiso   1.00
C320   C     0.70910   0.35463   0.25050   0.00000  Uiso   1.00
C321   C     0.66669   0.62393   0.24994   0.00000  Uiso   1.00
C322   C     0.99997   0.37607   0.25006   0.00000  Uiso   1.00
C323   C     0.85179   0.47051   0.27299   0.00000  Uiso   1.00
C324   C     0.81488   0.52949   0.22701   0.00000  Uiso   1.00
C325   C     0.80223   0.47048   0.27290   0.00000  Uiso   1.00
C326   C     0.86444   0.52952   0.22710   0.00000  Uiso   1.00
C327   C     0.97311   0.49841   0.33635   0.00000  Uiso   1.00
C328   C     0.69356   0.50158   0.16364   0.00000  Uiso   1.00
C329   C     0.95878   0.49330   0.38598   0.00000  Uiso   1.00
C330   C     0.70789   0.50665   0.11402   0.00000  Uiso   1.00
C331   C     0.97095   0.46725   0.45685   0.00000  Uiso   1.00
C332   C     0.69570   0.53261   0.04311   0.00000  Uiso   1.00
C333   C     0.98891   0.47466   0.41040   0.00000  Uiso   1.00
C334   C     0.67775   0.52525   0.08957   0.00000  Uiso   1.00
C335   C     0.91152   0.50441   0.40846   0.00000  Uiso   1.00
C336   C     0.75514   0.49553   0.09155   0.00000  Uiso   1.00
C337   C     0.89174   0.49554   0.45438   0.00000  Uiso   1.00
C338   C     0.77491   0.50432   0.04560   0.00000  Uiso   1.00
C339   C     0.92269   0.47797   0.47898   0.00000  Uiso   1.00
C340   C     0.74395   0.52187   0.02099   0.00000  Uiso   1.00
C341   C     0.84205   0.50367   0.47641   0.00000  Uiso   1.00
C342   C     0.82459   0.49615   0.02357   0.00000  Uiso   1.00
Cu343  Cu    0.71355   0.50001   0.25000   0.00000  Uiso   1.00
Cu344  Cu    0.95311   0.49999   0.25000   0.00000  Uiso   1.00
H345   H     0.92791   0.46009   0.04578   0.00000  Uiso   1.00
H346   H     0.73871   0.53966   0.45416   0.00000  Uiso   1.00
H347   H     0.77575   0.47966   0.11118   0.00000  Uiso   1.00
H348   H     0.89093   0.52033   0.38884   0.00000  Uiso   1.00
H349   H     0.84846   0.47698   0.08327   0.00000  Uiso   1.00
H350   H     0.81817   0.52274   0.41668   0.00000  Uiso   1.00
H351   H     0.92435   0.37060   0.24924   0.00000  Uiso   1.00
H352   H     0.74232   0.62940   0.25076   0.00000  Uiso   1.00
H353   H     0.92440   0.62934   0.24910   0.00000  Uiso   1.00
H354   H     0.74226   0.37066   0.25090   0.00000  Uiso   1.00
H355   H     0.86533   0.44693   0.29152   0.00000  Uiso   1.00
H356   H     0.80134   0.55307   0.20848   0.00000  Uiso   1.00
H357   H     0.77856   0.44673   0.29112   0.00000  Uiso   1.00
H358   H     0.88810   0.55326   0.20887   0.00000  Uiso   1.00
N359   N     0.78403   0.50001   0.24999   0.00000  Uiso   1.00
N360   N     0.88264   0.49999   0.25001   0.00000  Uiso   1.00
O361   O     0.70625   0.43989   0.25000   0.00000  Uiso   1.00
O362   O     0.96042   0.56011   0.25000   0.00000  Uiso   1.00
O363   O     0.96039   0.43988   0.25000   0.00000  Uiso   1.00
O364   O     0.70628   0.56012   0.24999   0.00000  Uiso   1.00
O365   O     0.68519   0.50001   0.31491   0.00000  Uiso   1.00
O366   O     0.98148   0.49999   0.18508   0.00000  Uiso   1.00
O367   O     0.93933   0.50000   0.31492   0.00000  Uiso   1.00
O368   O     0.72733   0.50000   0.18508   0.00000  Uiso   1.00
Cl369  Cl    0.95145   0.54128   0.11629   0.00000  Uiso   1.00
Cl370  Cl    0.71522   0.45867   0.38367   0.00000  Uiso   1.00
Cl371  Cl    0.67565   0.44259   0.48645   0.00000  Uiso   1.00
Cl372  Cl    0.99099   0.55724   0.01349   0.00000  Uiso   1.00
C373   C     0.33331   0.75402   0.25004   0.00000  Uiso   1.00
C374   C     0.00003   0.91265   0.24996   0.00000  Uiso   1.00
C375   C     0.19095   0.81471   0.04731   0.00000  Uiso   1.00
C376   C     0.14235   0.85174   0.45266   0.00000  Uiso   1.00
C377   C     0.23837   0.80516   0.02540   0.00000  Uiso   1.00
C378   C     0.09493   0.86129   0.47455   0.00000  Uiso   1.00
C379   C     0.29087   0.68793   0.24958   0.00000  Uiso   1.00
C380   C     0.04246   0.97873   0.25042   0.00000  Uiso   1.00
C381   C     0.29090   0.97870   0.24950   0.00000  Uiso   1.00
C382   C     0.04243   0.68797   0.25050   0.00000  Uiso   1.00
C383   C     0.00003   0.95726   0.24994   0.00000  Uiso   1.00
C384   C     0.33331   0.70940   0.25006   0.00000  Uiso   1.00
C385   C     0.18512   0.80384   0.27299   0.00000  Uiso   1.00
C386   C     0.14821   0.86282   0.22701   0.00000  Uiso   1.00
C387   C     0.13556   0.80381   0.27290   0.00000  Uiso   1.00
C388   C     0.19778   0.86286   0.22710   0.00000  Uiso   1.00
C389   C     0.30644   0.83174   0.33635   0.00000  Uiso   1.00
C390   C     0.02689   0.83492   0.16364   0.00000  Uiso   1.00
C391   C     0.29211   0.82664   0.38598   0.00000  Uiso   1.00
C392   C     0.04122   0.83998   0.11402   0.00000  Uiso   1.00
C393   C     0.30428   0.80059   0.45685   0.00000  Uiso   1.00
C394   C     0.02904   0.86594   0.04311   0.00000  Uiso   1.00
C395   C     0.32224   0.80800   0.41040   0.00000  Uiso   1.00
C396   C     0.01109   0.85859   0.08957   0.00000  Uiso   1.00
C397   C     0.24486   0.83774   0.40846   0.00000  Uiso   1.00
C398   C     0.08847   0.82886   0.09155   0.00000  Uiso   1.00
C399   C     0.22507   0.82887   0.45438   0.00000  Uiso   1.00
C400   C     0.10824   0.83766   0.04560   0.00000  Uiso   1.00
C401   C     0.25602   0.81130   0.47898   0.00000  Uiso   1.00
C402   C     0.07729   0.85520   0.02099   0.00000  Uiso   1.00
C403   C     0.17538   0.83701   0.47641   0.00000  Uiso   1.00
C404   C     0.15792   0.82949   0.02357   0.00000  Uiso   1.00
Cu405  Cu    0.04689   0.83334   0.25000   0.00000  Uiso   1.00
Cu406  Cu    0.28645   0.83333   0.25000   0.00000  Uiso   1.00
H407   H     0.26124   0.79342   0.04578   0.00000  Uiso   1.00
H408   H     0.07204   0.87299   0.45416   0.00000  Uiso   1.00
H409   H     0.10908   0.81300   0.11118   0.00000  Uiso   1.00
H410   H     0.22426   0.85366   0.38884   0.00000  Uiso   1.00
H411   H     0.18179   0.81031   0.08327   0.00000  Uiso   1.00
H412   H     0.15150   0.85608   0.41668   0.00000  Uiso   1.00
H413   H     0.25768   0.70393   0.24924   0.00000  Uiso   1.00
H414   H     0.07565   0.96274   0.25076   0.00000  Uiso   1.00
H415   H     0.25774   0.96268   0.24910   0.00000  Uiso   1.00
H416   H     0.07560   0.70399   0.25090   0.00000  Uiso   1.00
H417   H     0.19866   0.78026   0.29152   0.00000  Uiso   1.00
H418   H     0.13467   0.88641   0.20848   0.00000  Uiso   1.00
H419   H     0.11190   0.78007   0.29112   0.00000  Uiso   1.00
H420   H     0.22144   0.88660   0.20887   0.00000  Uiso   1.00
N421   N     0.11736   0.83334   0.24999   0.00000  Uiso   1.00
N422   N     0.21597   0.83332   0.25001   0.00000  Uiso   1.00
O423   O     0.03958   0.77322   0.25000   0.00000  Uiso   1.00
O424   O     0.29375   0.89345   0.25000   0.00000  Uiso   1.00
O425   O     0.29372   0.77321   0.25000   0.00000  Uiso   1.00
O426   O     0.03961   0.89346   0.24999   0.00000  Uiso   1.00
O427   O     0.01852   0.83334   0.31491   0.00000  Uiso   1.00
O428   O     0.31481   0.83332   0.18508   0.00000  Uiso   1.00
O429   O     0.27267   0.83333   0.31492   0.00000  Uiso   1.00
O430   O     0.06067   0.83333   0.18508   0.00000  Uiso   1.00
Cl431  Cl    0.28478   0.87462   0.11629   0.00000  Uiso   1.00
Cl432  Cl    0.04856   0.79200   0.38367   0.00000  Uiso   1.00
Cl433  Cl    0.00899   0.77593   0.48645   0.00000  Uiso   1.00
Cl434  Cl    0.32433   0.89057   0.01349   0.00000  Uiso   1.00
C435   C     0.66664   0.75402   0.25004   0.00000  Uiso   1.00
C436   C     0.33336   0.91265   0.24996   0.00000  Uiso   1.00
C437   C     0.52428   0.81471   0.04731   0.00000  Uiso   1.00
C438   C     0.47568   0.85174   0.45266   0.00000  Uiso   1.00
C439   C     0.57170   0.80516   0.02540   0.00000  Uiso   1.00
C440   C     0.42826   0.86129   0.47455   0.00000  Uiso   1.00
C441   C     0.62421   0.68793   0.24958   0.00000  Uiso   1.00
C442   C     0.37579   0.97873   0.25042   0.00000  Uiso   1.00
C443   C     0.62424   0.97870   0.24950   0.00000  Uiso   1.00
C444   C     0.37576   0.68797   0.25050   0.00000  Uiso   1.00
C445   C     0.33336   0.95726   0.24994   0.00000  Uiso   1.00
C446   C     0.66664   0.70940   0.25006   0.00000  Uiso   1.00
C447   C     0.51846   0.80384   0.27299   0.00000  Uiso   1.00
C448   C     0.48154   0.86282   0.22701   0.00000  Uiso   1.00
C449   C     0.46889   0.80381   0.27290   0.00000  Uiso   1.00
C450   C     0.53111   0.86286   0.22710   0.00000  Uiso   1.00
C451   C     0.63978   0.83174   0.33635   0.00000  Uiso   1.00
C452   C     0.36022   0.83492   0.16364   0.00000  Uiso   1.00
C453   C     0.62545   0.82664   0.38598   0.00000  Uiso   1.00
C454   C     0.37455   0.83998   0.11402   0.00000  Uiso   1.00
C455   C     0.63761   0.80059   0.45685   0.00000  Uiso   1.00
C456   C     0.36237   0.86594   0.04311   0.00000  Uiso   1.00
C457   C     0.65557   0.80800   0.41040   0.00000  Uiso   1.00
C458   C     0.34442   0.85859   0.08957   0.00000  Uiso   1.00
C459   C     0.57819   0.83774   0.40846   0.00000  Uiso   1.00
C460   C     0.42180   0.82886   0.09155   0.00000  Uiso   1.00
C461   C     0.55840   0.82887   0.45438   0.00000  Uiso   1.00
C462   C     0.44158   0.83766   0.04560   0.00000  Uiso   1.00
C463   C     0.58935   0.81130   0.47898   0.00000  Uiso   1.00
C464   C     0.41062   0.85520   0.02099   0.00000  Uiso   1.00
C465   C     0.50872   0.83701   0.47641   0.00000  Uiso   1.00
C466   C     0.49126   0.82949   0.02357   0.00000  Uiso   1.00
Cu467  Cu    0.38022   0.83334   0.25000   0.00000  Uiso   1.00
Cu468  Cu    0.61978   0.83333   0.25000   0.00000  Uiso   1.00
H469   H     0.59458   0.79342   0.04578   0.00000  Uiso   1.00
H470   H     0.40538   0.87299   0.45416   0.00000  Uiso   1.00
H471   H     0.44241   0.81300   0.11118   0.00000  Uiso   1.00
H472   H     0.55759   0.85366   0.38884   0.00000  Uiso   1.00
H473   H     0.51512   0.81031   0.08327   0.00000  Uiso   1.00
H474   H     0.48483   0.85608   0.41668   0.00000  Uiso   1.00
H475   H     0.59101   0.70393   0.24924   0.00000  Uiso   1.00
H476   H     0.40899   0.96274   0.25076   0.00000  Uiso   1.00
H477   H     0.59107   0.96268   0.24910   0.00000  Uiso   1.00
H478   H     0.40893   0.70399   0.25090   0.00000  Uiso   1.00
H479   H     0.53200   0.78026   0.29152   0.00000  Uiso   1.00
H480   H     0.46800   0.88641   0.20848   0.00000  Uiso   1.00
H481   H     0.44523   0.78007   0.29112   0.00000  Uiso   1.00
H482   H     0.55477   0.88660   0.20887   0.00000  Uiso   1.00
N483   N     0.45069   0.83334   0.24999   0.00000  Uiso   1.00
N484   N     0.54931   0.83332   0.25001   0.00000  Uiso   1.00
O485   O     0.37291   0.77322   0.25000   0.00000  Uiso   1.00
O486   O     0.62709   0.89345   0.25000   0.00000  Uiso   1.00
O487   O     0.62706   0.77321   0.25000   0.00000  Uiso   1.00
O488   O     0.37294   0.89346   0.24999   0.00000  Uiso   1.00
O489   O     0.35186   0.83334   0.31491   0.00000  Uiso   1.00
O490   O     0.64814   0.83332   0.18508   0.00000  Uiso   1.00
O491   O     0.60600   0.83333   0.31492   0.00000  Uiso   1.00
O492   O     0.39400   0.83333   0.18508   0.00000  Uiso   1.00
Cl493  Cl    0.61811   0.87462   0.11629   0.00000  Uiso   1.00
Cl494  Cl    0.38189   0.79200   0.38367   0.00000  Uiso   1.00
Cl495  Cl    0.34232   0.77593   0.48645   0.00000  Uiso   1.00
Cl496  Cl    0.65766   0.89057   0.01349   0.00000  Uiso   1.00
C497   C     0.99997   0.75402   0.25004   0.00000  Uiso   1.00
C498   C     0.66669   0.91265   0.24996   0.00000  Uiso   1.00
C499   C     0.85762   0.81471   0.04731   0.00000  Uiso   1.00
C500   C     0.80901   0.85174   0.45266   0.00000  Uiso   1.00
C501   C     0.90503   0.80516   0.02540   0.00000  Uiso   1.00
C502   C     0.76160   0.86129   0.47455   0.00000  Uiso   1.00
C503   C     0.95754   0.68793   0.24958   0.00000  Uiso   1.00
C504   C     0.70913   0.97873   0.25042   0.00000  Uiso   1.00
C505   C     0.95757   0.97870   0.24950   0.00000  Uiso   1.00
C506   C     0.70910   0.68797   0.25050   0.00000  Uiso   1.00
C507   C     0.66669   0.95726   0.24994   0.00000  Uiso   1.00
C508   C     0.99997   0.70940   0.25006   0.00000  Uiso   1.00
C509   C     0.85179   0.80384   0.27299   0.00000  Uiso   1.00
C510   C     0.81488   0.86282   0.22701   0.00000  Uiso   1.00
C511   C     0.80223   0.80381   0.27290   0.00000  Uiso   1.00
C512   C     0.86444   0.86286   0.22710   0.00000  Uiso   1.00
C513   C     0.97311   0.83174   0.33635   0.00000  Uiso   1.00
C514   C     0.69356   0.83492   0.16364   0.00000  Uiso   1.00
C515   C     0.95878   0.82664   0.38598   0.00000  Uiso   1.00
C516   C     0.70789   0.83998   0.11402   0.00000  Uiso   1.00
C517   C     0.97095   0.80059   0.45685   0.00000  Uiso   1.00
C518   C     0.69570   0.86594   0.04311   0.00000  Uiso   1.00
C519   C     0.98891   0.80800   0.41040   0.00000  Uiso   1.00
C520   C     0.67775   0.85859   0.08957   0.00000  Uiso   1.00
C521   C     0.91152   0.83774   0.40846   0.00000  Uiso   1.00
C522   C     0.75514   0.82886   0.09155   0.00000  Uiso   1.00
C523   C     0.89174   0.82887   0.45438   0.00000  Uiso   1.00
C524   C     0.77491   0.83766   0.04560   0.00000  Uiso   1.00
C525   C     0.92269   0.81130   0.47898   0.00000  Uiso   1.00
C526   C     0.74395   0.85520   0.02099   0.00000  Uiso   1.00
C527   C     0.84205   0.83701   0.47641   0.00000  Uiso   1.00
C528   C     0.82459   0.82949   0.02357   0.00000  Uiso   1.00
Cu529  Cu    0.71355   0.83334   0.25000   0.00000  Uiso   1.00
Cu530  Cu    0.95311   0.83333   0.25000   0.00000  Uiso   1.00
H531   H     0.92791   0.79342   0.04578   0.00000  Uiso   1.00
H532   H     0.73871   0.87299   0.45416   0.00000  Uiso   1.00
H533   H     0.77575   0.81300   0.11118   0.00000  Uiso   1.00
H534   H     0.89093   0.85366   0.38884   0.00000  Uiso   1.00
H535   H     0.84846   0.81031   0.08327   0.00000  Uiso   1.00
H536   H     0.81817   0.85608   0.41668   0.00000  Uiso   1.00
H537   H     0.92435   0.70393   0.24924   0.00000  Uiso   1.00
H538   H     0.74232   0.96274   0.25076   0.00000  Uiso   1.00
H539   H     0.92440   0.96268   0.24910   0.00000  Uiso   1.00
H540   H     0.74226   0.70399   0.25090   0.00000  Uiso   1.00
H541   H     0.86533   0.78026   0.29152   0.00000  Uiso   1.00
H542   H     0.80134   0.88641   0.20848   0.00000  Uiso   1.00
H543   H     0.77856   0.78007   0.29112   0.00000  Uiso   1.00
H544   H     0.88810   0.88660   0.20887   0.00000  Uiso   1.00
N545   N     0.78403   0.83334   0.24999   0.00000  Uiso   1.00
N546   N     0.88264   0.83332   0.25001   0.00000  Uiso   1.00
O547   O     0.70625   0.77322   0.25000   0.00000  Uiso   1.00
O548   O     0.96042   0.89345   0.25000   0.00000  Uiso   1.00
O549   O     0.96039   0.77321   0.25000   0.00000  Uiso   1.00
O550   O     0.70628   0.89346   0.24999   0.00000  Uiso   1.00
O551   O     0.68519   0.83334   0.31491   0.00000  Uiso   1.00
O552   O     0.98148   0.83332   0.18508   0.00000  Uiso   1.00
O553   O     0.93933   0.83333   0.31492   0.00000  Uiso   1.00
O554   O     0.72733   0.83333   0.18508   0.00000  Uiso   1.00
Cl555  Cl    0.95145   0.87462   0.11629   0.00000  Uiso   1.00
Cl556  Cl    0.71522   0.79200   0.38367   0.00000  Uiso   1.00
Cl557  Cl    0.67565   0.77593   0.48645   0.00000  Uiso   1.00
Cl558  Cl    0.99099   0.89057   0.01349   0.00000  Uiso   1.00
C559   C     0.33331   0.08735   0.75004   0.00000  Uiso   1.00
C560   C     0.00003   0.24598   0.74996   0.00000  Uiso   1.00
C561   C     0.19095   0.14804   0.54731   0.00000  Uiso   1.00
C562   C     0.14235   0.18507   0.95266   0.00000  Uiso   1.00
C563   C     0.23837   0.13850   0.52540   0.00000  Uiso   1.00
C564   C     0.09493   0.19462   0.97455   0.00000  Uiso   1.00
C565   C     0.29087   0.02127   0.74958   0.00000  Uiso   1.00
C566   C     0.04246   0.31207   0.75042   0.00000  Uiso   1.00
C567   C     0.29090   0.31203   0.74950   0.00000  Uiso   1.00
C568   C     0.04243   0.02130   0.75050   0.00000  Uiso   1.00
C569   C     0.00003   0.29059   0.74994   0.00000  Uiso   1.00
C570   C     0.33331   0.04274   0.75006   0.00000  Uiso   1.00
C571   C     0.18512   0.13718   0.77299   0.00000  Uiso   1.00
C572   C     0.14821   0.19616   0.72701   0.00000  Uiso   1.00
C573   C     0.13556   0.13714   0.77290   0.00000  Uiso   1.00
C574   C     0.19778   0.19619   0.72710   0.00000  Uiso   1.00
C575   C     0.30644   0.16508   0.83635   0.00000  Uiso   1.00
C576   C     0.02689   0.16825   0.66364   0.00000  Uiso   1.00
C577   C     0.29211   0.15997   0.88598   0.00000  Uiso   1.00
C578   C     0.04122   0.17332   0.61402   0.00000  Uiso   1.00
C579   C     0.30428   0.13392   0.95685   0.00000  Uiso   1.00
C580   C     0.02904   0.19927   0.54311   0.00000  Uiso   1.00
C581   C     0.32224   0.14133   0.91040   0.00000  Uiso   1.00
C582   C     0.01109   0.19192   0.58957   0.00000  Uiso   1.00
C583   C     0.24486   0.17107   0.90846   0.00000  Uiso   1.00
C584   C     0.08847   0.16219   0.59155   0.00000  Uiso   1.00
C585   C     0.22507   0.16220   0.95438   0.00000  Uiso   1.00
C586   C     0.10824   0.17099   0.54560   0.00000  Uiso   1.00
C587   C     0.25602   0.14463   0.97898   0.00000  Uiso   1.00
C588   C     0.07729   0.18853   0.52099   0.00000  Uiso   1.00
C589   C     0.17538   0.17034   0.97641   0.00000  Uiso   1.00
C590   C     0.15792   0.16282   0.52357   0.00000  Uiso   1.00
Cu591  Cu    0.04689   0.16667   0.75000   0.00000  Uiso   1.00
Cu592  Cu    0.28645   0.16666   0.75000   0.00000  Uiso   1.00
H593   H     0.26124   0.12676   0.54578   0.00000  Uiso   1.00
H594   H     0.07204   0.20632   0.95416   0.00000  Uiso   1.00
H595   H     0.10908   0.14633   0.61118   0.00000  Uiso   1.00
H596   H     0.22426   0.18699   0.88884   0.00000  Uiso   1.00
H597   H     0.18179   0.14364   0.58327   0.00000  Uiso   1.00
H598   H     0.15150   0.18941   0.91668   0.00000  Uiso   1.00
H599   H     0.25768   0.03726   0.74924   0.00000  Uiso   1.00
H600   H     0.07565   0.29607   0.75076   0.00000  Uiso   1.00
H601   H     0.25774   0.29601   0.74910   0.00000  Uiso   1.00
H602   H     0.07560   0.03732   0.75090   0.00000  Uiso   1.00
H603   H     0.19866   0.11359   0.79152   0.00000  Uiso   1.00
H604   H     0.13467   0.21974   0.70848   0.00000  Uiso   1.00
H605   H     0.11190   0.11340   0.79112   0.00000  Uiso   1.00
H606   H     0.22144   0.21993   0.70887   0.00000  Uiso   1.00
N607   N     0.11736   0.16668   0.74999   0.00000  Uiso   1.00
N608   N     0.21597   0.16666   0.75001   0.00000  Uiso   1.00
O609   O     0.03958   0.10655   0.75000   0.00000  Uiso   1.00
O610   O     0.29375   0.22678   0.75000   0.00000  Uiso   1.00
O611   O     0.29372   0.10654   0.75000   0.00000  Uiso   1.00
O612   O     0.03961   0.22679   0.74999   0.00000  Uiso   1.00
O613   O     0.01852   0.16668   0.81491   0.00000  Uiso   1.00
O614   O     0.31481   0.16666   0.68508   0.00000  Uiso   1.00
O615   O     0.27267   0.16667   0.81492   0.00000  Uiso   1.00
O616   O     0.06067   0.16667   0.68508   0.00000  Uiso   1.00
Cl617  Cl    0.28478   0.20795   0.61629   0.00000  Uiso   1.00
Cl618  Cl    0.04856   0.12533   0.88367   0.00000  Uiso   1.00
Cl619  Cl    0.00899   0.10926   0.98645   0.00000  Uiso   1.00
Cl620  Cl    0.32433   0.22390   0.51349   0.00000  Uiso   1.00
C621   C     0.66664   0.08735   0.75004   0.00000  Uiso   1.00
C622   C     0.33336   0.24598   0.74996   0.00000  Uiso   1.00
C623   C     0.52428   0.14804   0.54731   0.00000  Uiso   1.00
C624   C     0.47568   0.18507   0.95266   0.00000  Uiso   1.00
C625   C     0.57170   0.13850   0.52540   0.00000  Uiso   1.00
C626   C     0.42826   0.19462   0.97455   0.00000  Uiso   1.00
C627   C     0.62421   0.02127   0.74958   0.00000  Uiso   1.00
C628   C     0.37579   0.31207   0.75042   0.00000  Uiso   1.00
C629   C     0.62424   0.31203   0.74950   0.00000  Uiso   1.00
C630   C     0.37576   0.02130   0.75050   0.00000  Uiso   1.00
C631   C     0.33336   0.29059   0.74994   0.00000  Uiso   1.00
C632   C     0.66664   0.04274   0.75006   0.00000  Uiso   1.00
C633   C     0.51846   0.13718   0.77299   0.00000  Uiso   1.00
C634   C     0.48154   0.19616   0.72701   0.00000  Uiso   1.00
C635   C     0.46889   0.13714   0.77290   0.00000  Uiso   1.00
C636   C     0.53111   0.19619   0.72710   0.00000  Uiso   1.00
C637   C     0.63978   0.16508   0.83635   0.00000  Uiso   1.00
C638   C     0.36022   0.16825   0.66364   0.00000  Uiso   1.00
C639   C     0.62545   0.15997   0.88598   0.00000  Uiso   1.00
C640   C     0.37455   0.17332   0.61402   0.00000  Uiso   1.00
C641   C     0.63761   0.13392   0.95685   0.00000  Uiso   1.00
C642   C     0.36237   0.19927   0.54311   0.00000  Uiso   1.00
C643   C     0.65557   0.14133   0.91040   0.00000  Uiso   1.00
C644   C     0.34442   0.19192   0.58957   0.00000  Uiso   1.00
C645   C     0.57819   0.17107   0.90846   0.00000  Uiso   1.00
C646   C     0.42180   0.16219   0.59155   0.00000  Uiso   1.00
C647   C     0.55840   0.16220   0.95438   0.00000  Uiso   1.00
C648   C     0.44158   0.17099   0.54560   0.00000  Uiso   1.00
C649   C     0.58935   0.14463   0.97898   0.00000  Uiso   1.00
C650   C     0.41062   0.18853   0.52099   0.00000  Uiso   1.00
C651   C     0.50872   0.17034   0.97641   0.00000  Uiso   1.00
C652   C     0.49126   0.16282   0.52357   0.00000  Uiso   1.00
Cu653  Cu    0.38022   0.16667   0.75000   0.00000  Uiso   1.00
Cu654  Cu    0.61978   0.16666   0.75000   0.00000  Uiso   1.00
H655   H     0.59458   0.12676   0.54578   0.00000  Uiso   1.00
H656   H     0.40538   0.20632   0.95416   0.00000  Uiso   1.00
H657   H     0.44241   0.14633   0.61118   0.00000  Uiso   1.00
H658   H     0.55759   0.18699   0.88884   0.00000  Uiso   1.00
H659   H     0.51512   0.14364   0.58327   0.00000  Uiso   1.00
H660   H     0.48483   0.18941   0.91668   0.00000  Uiso   1.00
H661   H     0.59101   0.03726   0.74924   0.00000  Uiso   1.00
H662   H     0.40899   0.29607   0.75076   0.00000  Uiso   1.00
H663   H     0.59107   0.29601   0.74910   0.00000  Uiso   1.00
H664   H     0.40893   0.03732   0.75090   0.00000  Uiso   1.00
H665   H     0.53200   0.11359   0.79152   0.00000  Uiso   1.00
H666   H     0.46800   0.21974   0.70848   0.00000  Uiso   1.00
H667   H     0.44523   0.11340   0.79112   0.00000  Uiso   1.00
H668   H     0.55477   0.21993   0.70887   0.00000  Uiso   1.00
N669   N     0.45069   0.16668   0.74999   0.00000  Uiso   1.00
N670   N     0.54931   0.16666   0.75001   0.00000  Uiso   1.00
O671   O     0.37291   0.10655   0.75000   0.00000  Uiso   1.00
O672   O     0.62709   0.22678   0.75000   0.00000  Uiso   1.00
O673   O     0.62706   0.10654   0.75000   0.00000  Uiso   1.00
O674   O     0.37294   0.22679   0.74999   0.00000  Uiso   1.00
O675   O     0.35186   0.16668   0.81491   0.00000  Uiso   1.00
O676   O     0.64814   0.16666   0.68508   0.00000  Uiso   1.00
O677   O     0.60600   0.16667   0.81492   0.00000  Uiso   1.00
O678   O     0.39400   0.16667   0.68508   0.00000  Uiso   1.00
Cl679  Cl    0.61811   0.20795   0.61629   0.00000  Uiso   1.00
Cl680  Cl    0.38189   0.12533   0.88367   0.00000  Uiso   1.00
Cl681  Cl    0.34232   0.10926   0.98645   0.00000  Uiso   1.00
Cl682  Cl    0.65766   0.22390   0.51349   0.00000  Uiso   1.00
C683   C     0.99997   0.08735   0.75004   0.00000  Uiso   1.00
C684   C     0.66669   0.24598   0.74996   0.00000  Uiso   1.00
C685   C     0.85762   0.14804   0.54731   0.00000  Uiso   1.00
C686   C     0.80901   0.18507   0.95266   0.00000  Uiso   1.00
C687   C     0.90503   0.13850   0.52540   0.00000  Uiso   1.00
C688   C     0.76160   0.19462   0.97455   0.00000  Uiso   1.00
C689   C     0.95754   0.02127   0.74958   0.00000  Uiso   1.00
C690   C     0.70913   0.31207   0.75042   0.00000  Uiso   1.00
C691   C     0.95757   0.31203   0.74950   0.00000  Uiso   1.00
C692   C     0.70910   0.02130   0.75050   0.00000  Uiso   1.00
C693   C     0.66669   0.29059   0.74994   0.00000  Uiso   1.00
C694   C     0.99997   0.04274   0.75006   0.00000  Uiso   1.00
C695   C     0.85179   0.13718   0.77299   0.00000  Uiso   1.00
C696   C     0.81488   0.19616   0.72701   0.00000  Uiso   1.00
C697   C     0.80223   0.13714   0.77290   0.00000  Uiso   1.00
C698   C     0.86444   0.19619   0.72710   0.00000  Uiso   1.00
C699   C     0.97311   0.16508   0.83635   0.00000  Uiso   1.00
C700   C     0.69356   0.16825   0.66364   0.00000  Uiso   1.00
C701   C     0.95878   0.15997   0.88598   0.00000  Uiso   1.00
C702   C     0.70789   0.17332   0.61402   0.00000  Uiso   1.00
C703   C     0.97095   0.13392   0.95685   0.00000  Uiso   1.00
C704   C     0.69570   0.19927   0.54311   0.00000  Uiso   1.00
C705   C     0.98891   0.14133   0.91040   0.00000  Uiso   1.00
C706   C     0.67775   0.19192   0.58957   0.00000  Uiso   1.00
C707   C     0.91152   0.17107   0.90846   0.00000  Uiso   1.00
C708   C     0.75514   0.16219   0.59155   0.00000  Uiso   1.00
C709   C     0.89174   0.16220   0.95438   0.00000  Uiso   1.00
C710   C     0.77491   0.17099   0.54560   0.00000  Uiso   1.00
C711   C     0.92269   0.14463   0.97898   0.00000  Uiso   1.00
C712   C     0.74395   0.18853   0.52099   0.00000  Uiso   1.00
C713   C     0.84205   0.17034   0.97641   0.00000  Uiso   1.00
C714   C     0.82459   0.16282   0.52357   0.00000  Uiso   1.00
Cu715  Cu    0.71355   0.16667   0.75000   0.00000  Uiso   1.00
Cu716  Cu    0.95311   0.16666   0.75000   0.00000  Uiso   1.00
H717   H     0.92791   0.12676   0.54578   0.00000  Uiso   1.00
H718   H     0.73871   0.20632   0.95416   0.00000  Uiso   1.00
H719   H     0.77575   0.14633   0.61118   0.00000  Uiso   1.00
H720   H     0.89093   0.18699   0.88884   0.00000  Uiso   1.00
H721   H     0.84846   0.14364   0.58327   0.00000  Uiso   1.00
H722   H     0.81817   0.18941   0.91668   0.00000  Uiso   1.00
H723   H     0.92435   0.03726   0.74924   0.00000  Uiso   1.00
H724   H     0.74232   0.29607   0.75076   0.00000  Uiso   1.00
H725   H     0.92440   0.29601   0.74910   0.00000  Uiso   1.00
H726   H     0.74226   0.03732   0.75090   0.00000  Uiso   1.00
H727   H     0.86533   0.11359   0.79152   0.00000  Uiso   1.00
H728   H     0.80134   0.21974   0.70848   0.00000  Uiso   1.00
H729   H     0.77856   0.11340   0.79112   0.00000  Uiso   1.00
H730   H     0.88810   0.21993   0.70887   0.00000  Uiso   1.00
N731   N     0.78403   0.16668   0.74999   0.00000  Uiso   1.00
N732   N     0.88264   0.16666   0.75001   0.00000  Uiso   1.00
O733   O     0.70625   0.10655   0.75000   0.00000  Uiso   1.00
O734   O     0.96042   0.22678   0.75000   0.00000  Uiso   1.00
O735   O     0.96039   0.10654   0.75000   0.00000  Uiso   1.00
O736   O     0.70628   0.22679   0.74999   0.00000  Uiso   1.00
O737   O     0.68519   0.16668   0.81491   0.00000  Uiso   1.00
O738   O     0.98148   0.16666   0.68508   0.00000  Uiso   1.00
O739   O     0.93933   0.16667   0.81492   0.00000  Uiso   1.00
O740   O     0.72733   0.16667   0.68508   0.00000  Uiso   1.00
Cl741  Cl    0.95145   0.20795   0.61629   0.00000  Uiso   1.00
Cl742  Cl    0.71522   0.12533   0.88367   0.00000  Uiso   1.00
Cl743  Cl    0.67565   0.10926   0.98645   0.00000  Uiso   1.00
Cl744  Cl    0.99099   0.22390   0.51349   0.00000  Uiso   1.00
C745   C     0.33331   0.42069   0.75004   0.00000  Uiso   1.00
C746   C     0.00003   0.57931   0.74996   0.00000  Uiso   1.00
C747   C     0.19095   0.48138   0.54731   0.00000  Uiso   1.00
C748   C     0.14235   0.51840   0.95266   0.00000  Uiso   1.00
C749   C     0.23837   0.47183   0.52540   0.00000  Uiso   1.00
C750   C     0.09493   0.52795   0.97455   0.00000  Uiso   1.00
C751   C     0.29087   0.35460   0.74958   0.00000  Uiso   1.00
C752   C     0.04246   0.64540   0.75042   0.00000  Uiso   1.00
C753   C     0.29090   0.64537   0.74950   0.00000  Uiso   1.00
C754   C     0.04243   0.35463   0.75050   0.00000  Uiso   1.00
C755   C     0.00003   0.62393   0.74994   0.00000  Uiso   1.00
C756   C     0.33331   0.37607   0.75006   0.00000  Uiso   1.00
C757   C     0.18512   0.47051   0.77299   0.00000  Uiso   1.00
C758   C     0.14821   0.52949   0.72701   0.00000  Uiso   1.00
C759   C     0.13556   0.47048   0.77290   0.00000  Uiso   1.00
C760   C     0.19778   0.52952   0.72710   0.00000  Uiso   1.00
C761   C     0.30644   0.49841   0.83635   0.00000  Uiso   1.00
C762   C     0.02689   0.50158   0.66364   0.00000  Uiso   1.00
C763   C     0.29211   0.49330   0.88598   0.00000  Uiso   1.00
C764   C     0.04122   0.50665   0.61402   0.00000  Uiso   1.00
C765   C     0.30428   0.46725   0.95685   0.00000  Uiso   1.00
C766   C     0.02904   0.53261   0.54311   0.00000  Uiso   1.00
C767   C     0.32224   0.47466   0.91040   0.00000  Uiso   1.00
C768   C     0.01109   0.52525   0.58957   0.00000  Uiso   1.00
C769   C     0.24486   0.50441   0.90846   0.00000  Uiso   1.00
C770   C     0.08847   0.49553   0.59155   0.00000  Uiso   1.00
C771   C     0.22507   0.49554   0.95438   0.00000  Uiso   1.00
C772   C     0.10824   0.50432   0.54560   0.00000  Uiso   1.00
C773   C     0.25602   0.47797   0.97898   0.00000  Uiso   1.00
C774   C     0.07729   0.52187   0.52099   0.00000  Uiso   1.00
C775   C     0.17538   0.50367   0.97641   0.00000  Uiso   1.00
C776   C     0.15792   0.49615   0.52357   0.00000  Uiso   1.00
Cu777  Cu    0.04689   0.50001   0.75000   0.00000  Uiso   1.00
Cu778  Cu    0.28645   0.49999   0.75000   0.00000  Uiso   1.00
H779   H     0.26124   0.46009   0.54578   0.00000  Uiso   1.00
H780   H     0.07204   0.53966   0.95416   0.00000  Uiso   1.00
H781   H     0.10908   0.47966   0.61118   0.00000  Uiso   1.00
H782   H     0.22426   0.52033   0.88884   0.00000  Uiso   1.00
H783   H     0.18179   0.47698   0.58327   0.00000  Uiso   1.00
H784   H     0.15150   0.52274   0.91668   0.00000  Uiso   1.00
H785   H     0.25768   0.37060   0.74924   0.00000  Uiso   1.00
H786   H     0.07565   0.62940   0.75076   0.00000  Uiso   1.00
H787   H     0.25774   0.62934   0.74910   0.00000  Uiso   1.00
H788   H     0.07560   0.37066   0.75090   0.00000  Uiso   1.00
H789   H     0.19866   0.44693   0.79152   0.00000  Uiso   1.00
H790   H     0.13467   0.55307   0.70848   0.00000  Uiso   1.00
H791   H     0.11190   0.44673   0.79112   0.00000  Uiso   1.00
H792   H     0.22144   0.55326   0.70887   0.00000  Uiso   1.00
N793   N     0.11736   0.50001   0.74999   0.00000  Uiso   1.00
N794   N     0.21597   0.49999   0.75001   0.00000  Uiso   1.00
O795   O     0.03958   0.43989   0.75000   0.00000  Uiso   1.00
O796   O     0.29375   0.56011   0.75000   0.00000  Uiso   1.00
O797   O     0.29372   0.43988   0.75000   0.00000  Uiso   1.00
O798   O     0.03961   0.56012   0.74999   0.00000  Uiso   1.00
O799   O     0.01852   0.50001   0.81491   0.00000  Uiso   1.00
O800   O     0.31481   0.49999   0.68508   0.00000  Uiso   1.00
O801   O     0.27267   0.50000   0.81492   0.00000  Uiso   1.00
O802   O     0.06067   0.50000   0.68508   0.00000  Uiso   1.00
Cl803  Cl    0.28478   0.54128   0.61629   0.00000  Uiso   1.00
Cl804  Cl    0.04856   0.45867   0.88367   0.00000  Uiso   1.00
Cl805  Cl    0.00899   0.44259   0.98645   0.00000  Uiso   1.00
Cl806  Cl    0.32433   0.55724   0.51349   0.00000  Uiso   1.00
C807   C     0.66664   0.42069   0.75004   0.00000  Uiso   1.00
C808   C     0.33336   0.57931   0.74996   0.00000  Uiso   1.00
C809   C     0.52428   0.48138   0.54731   0.00000  Uiso   1.00
C810   C     0.47568   0.51840   0.95266   0.00000  Uiso   1.00
C811   C     0.57170   0.47183   0.52540   0.00000  Uiso   1.00
C812   C     0.42826   0.52795   0.97455   0.00000  Uiso   1.00
C813   C     0.62421   0.35460   0.74958   0.00000  Uiso   1.00
C814   C     0.37579   0.64540   0.75042   0.00000  Uiso   1.00
C815   C     0.62424   0.64537   0.74950   0.00000  Uiso   1.00
C816   C     0.37576   0.35463   0.75050   0.00000  Uiso   1.00
C817   C     0.33336   0.62393   0.74994   0.00000  Uiso   1.00
C818   C     0.66664   0.37607   0.75006   0.00000  Uiso   1.00
C819   C     0.51846   0.47051   0.77299   0.00000  Uiso   1.00
C820   C     0.48154   0.52949   0.72701   0.00000  Uiso   1.00
C821   C     0.46889   0.47048   0.77290   0.00000  Uiso   1.00
C822   C     0.53111   0.52952   0.72710   0.00000  Uiso   1.00
C823   C     0.63978   0.49841   0.83635   0.00000  Uiso   1.00
C824   C     0.36022   0.50158   0.66364   0.00000  Uiso   1.00
C825   C     0.62545   0.49330   0.88598   0.00000  Uiso   1.00
C826   C     0.37455   0.50665   0.61402   0.00000  Uiso   1.00
C827   C     0.63761   0.46725   0.95685   0.00000  Uiso   1.00
C828   C     0.36237   0.53261   0.54311   0.00000  Uiso   1.00
C829   C     0.65557   0.47466   0.91040   0.00000  Uiso   1.00
C830   C     0.34442   0.52525   0.58957   0.00000  Uiso   1.00
C831   C     0.57819   0.50441   0.90846   0.00000  Uiso   1.00
C832   C     0.42180   0.49553   0.59155   0.00000  Uiso   1.00
C833   C     0.55840   0.49554   0.95438   0.00000  Uiso   1.00
C834   C     0.44158   0.50432   0.54560   0.00000  Uiso   1.00
C835   C     0.58935   0.47797   0.97898   0.00000  Uiso   1.00
C836   C     0.41062   0.52187   0.52099   0.00000  Uiso   1.00
C837   C     0.50872   0.50367   0.97641   0.00000  Uiso   1.00
C838   C     0.49126   0.49615   0.52357   0.00000  Uiso   1.00
Cu839  Cu    0.38022   0.50001   0.75000   0.00000  Uiso   1.00
Cu840  Cu    0.61978   0.49999   0.75000   0.00000  Uiso   1.00
H841   H     0.59458   0.46009   0.54578   0.00000  Uiso   1.00
H842   H     0.40538   0.53966   0.95416   0.00000  Uiso   1.00
H843   H     0.44241   0.47966   0.61118   0.00000  Uiso   1.00
H844   H     0.55759   0.52033   0.88884   0.00000  Uiso   1.00
H845   H     0.51512   0.47698   0.58327   0.00000  Uiso   1.00
H846   H     0.48483   0.52274   0.91668   0.00000  Uiso   1.00
H847   H     0.59101   0.37060   0.74924   0.00000  Uiso   1.00
H848   H     0.40899   0.62940   0.75076   0.00000  Uiso   1.00
H849   H     0.59107   0.62934   0.74910   0.00000  Uiso   1.00
H850   H     0.40893   0.37066   0.75090   0.00000  Uiso   1.00
H851   H     0.53200   0.44693   0.79152   0.00000  Uiso   1.00
H852   H     0.46800   0.55307   0.70848   0.00000  Uiso   1.00
H853   H     0.44523   0.44673   0.79112   0.00000  Uiso   1.00
H854   H     0.55477   0.55326   0.70887   0.00000  Uiso   1.00
N855   N     0.45069   0.50001   0.74999   0.00000  Uiso   1.00
N856   N     0.54931   0.49999   0.75001   0.00000  Uiso   1.00
O857   O     0.37291   0.43989   0.75000   0.00000  Uiso   1.00
O858   O     0.62709   0.56011   0.75000   0.00000  Uiso   1.00
O859   O     0.62706   0.43988   0.75000   0.00000  Uiso   1.00
O860   O     0.37294   0.56012   0.74999   0.00000  Uiso   1.00
O861   O     0.35186   0.50001   0.81491   0.00000  Uiso   1.00
O862   O     0.64814   0.49999   0.68508   0.00000  Uiso   1.00
O863   O     0.60600   0.50000   0.81492   0.00000  Uiso   1.00
O864   O     0.39400   0.50000   0.68508   0.00000  Uiso   1.00
Cl865  Cl    0.61811   0.54128   0.61629   0.00000  Uiso   1.00
Cl866  Cl    0.38189   0.45867   0.88367   0.00000  Uiso   1.00
Cl867  Cl    0.34232   0.44259   0.98645   0.00000  Uiso   1.00
Cl868  Cl    0.65766   0.55724   0.51349   0.00000  Uiso   1.00
C869   C     0.99997   0.42069   0.75004   0.00000  Uiso   1.00
C870   C     0.66669   0.57931   0.74996   0.00000  Uiso   1.00
C871   C     0.85762   0.48138   0.54731   0.00000  Uiso   1.00
C872   C     0.80901   0.51840   0.95266   0.00000  Uiso   1.00
C873   C     0.90503   0.47183   0.52540   0.00000  Uiso   1.00
C874   C     0.76160   0.52795   0.97455   0.00000  Uiso   1.00
C875   C     0.95754   0.35460   0.74958   0.00000  Uiso   1.00
C876   C     0.70913   0.64540   0.75042   0.00000  Uiso   1.00
C877   C     0.95757   0.64537   0.74950   0.00000  Uiso   1.00
C878   C     0.70910   0.35463   0.75050   0.00000  Uiso   1.00
C879   C     0.66669   0.62393   0.74994   0.00000  Uiso   1.00
C880   C     0.99997   0.37607   0.75006   0.00000  Uiso   1.00
C881   C     0.85179   0.47051   0.77299   0.00000  Uiso   1.00
C882   C     0.81488   0.52949   0.72701   0.00000  Uiso   1.00
C883   C     0.80223   0.47048   0.77290   0.00000  Uiso   1.00
C884   C     0.86444   0.52952   0.72710   0.00000  Uiso   1.00
C885   C     0.97311   0.49841   0.83635   0.00000  Uiso   1.00
C886   C     0.69356   0.50158   0.66364   0.00000  Uiso   1.00
C887   C     0.95878   0.49330   0.88598   0.00000  Uiso   1.00
C888   C     0.70789   0.50665   0.61402   0.00000  Uiso   1.00
C889   C     0.97095   0.46725   0.95685   0.00000  Uiso   1.00
C890   C     0.69570   0.53261   0.54311   0.00000  Uiso   1.00
C891   C     0.98891   0.47466   0.91040   0.00000  Uiso   1.00
C892   C     0.67775   0.52525   0.58957   0.00000  Uiso   1.00
C893   C     0.91152   0.50441   0.90846   0.00000  Uiso   1.00
C894   C     0.75514   0.49553   0.59155   0.00000  Uiso   1.00
C895   C     0.89174   0.49554   0.95438   0.00000  Uiso   1.00
C896   C     0.77491   0.50432   0.54560   0.00000  Uiso   1.00
C897   C     0.92269   0.47797   0.97898   0.00000  Uiso   1.00
C898   C     0.74395   0.52187   0.52099   0.00000  Uiso   1.00
C899   C     0.84205   0.50367   0.97641   0.00000  Uiso   1.00
C900   C     0.82459   0.49615   0.52357   0.00000  Uiso   1.00
Cu901  Cu    0.71355   0.50001   0.75000   0.00000  Uiso   1.00
Cu902  Cu    0.95311   0.49999   0.75000   0.00000  Uiso   1.00
H903   H     0.92791   0.46009   0.54578   0.00000  Uiso   1.00
H904   H     0.73871   0.53966   0.95416   0.00000  Uiso   1.00
H905   H     0.77575   0.47966   0.61118   0.00000  Uiso   1.00
H906   H     0.89093   0.52033   0.88884   0.00000  Uiso   1.00
H907   H     0.84846   0.47698   0.58327   0.00000  Uiso   1.00
H908   H     0.81817   0.52274   0.91668   0.00000  Uiso   1.00
H909   H     0.92435   0.37060   0.74924   0.00000  Uiso   1.00
H910   H     0.74232   0.62940   0.75076   0.00000  Uiso   1.00
H911   H     0.92440   0.62934   0.74910   0.00000  Uiso   1.00
H912   H     0.74226   0.37066   0.75090   0.00000  Uiso   1.00
H913   H     0.86533   0.44693   0.79152   0.00000  Uiso   1.00
H914   H     0.80134   0.55307   0.70848   0.00000  Uiso   1.00
H915   H     0.77856   0.44673   0.79112   0.00000  Uiso   1.00
H916   H     0.88810   0.55326   0.70887   0.00000  Uiso   1.00
N917   N     0.78403   0.50001   0.74999   0.00000  Uiso   1.00
N918   N     0.88264   0.49999   0.75001   0.00000  Uiso   1.00
O919   O     0.70625   0.43989   0.75000   0.00000  Uiso   1.00
O920   O     0.96042   0.56011   0.75000   0.00000  Uiso   1.00
O921   O     0.96039   0.43988   0.75000   0.00000  Uiso   1.00
O922   O     0.70628   0.56012   0.74999   0.00000  Uiso   1.00
O923   O     0.68519   0.50001   0.81491   0.00000  Uiso   1.00
O924   O     0.98148   0.49999   0.68508   0.00000  Uiso   1.00
O925   O     0.93933   0.50000   0.81492   0.00000  Uiso   1.00
O926   O     0.72733   0.50000   0.68508   0.00000  Uiso   1.00
Cl927  Cl    0.95145   0.54128   0.61629   0.00000  Uiso   1.00
Cl928  Cl    0.71522   0.45867   0.88367   0.00000  Uiso   1.00
Cl929  Cl    0.67565   0.44259   0.98645   0.00000  Uiso   1.00
Cl930  Cl    0.99099   0.55724   0.51349   0.00000  Uiso   1.00
C931   C     0.33331   0.75402   0.75004   0.00000  Uiso   1.00
C932   C     0.00003   0.91265   0.74996   0.00000  Uiso   1.00
C933   C     0.19095   0.81471   0.54731   0.00000  Uiso   1.00
C934   C     0.14235   0.85174   0.95266   0.00000  Uiso   1.00
C935   C     0.23837   0.80516   0.52540   0.00000  Uiso   1.00
C936   C     0.09493   0.86129   0.97455   0.00000  Uiso   1.00
C937   C     0.29087   0.68793   0.74958   0.00000  Uiso   1.00
C938   C     0.04246   0.97873   0.75042   0.00000  Uiso   1.00
C939   C     0.29090   0.97870   0.74950   0.00000  Uiso   1.00
C940   C     0.04243   0.68797   0.75050   0.00000  Uiso   1.00
C941   C     0.00003   0.95726   0.74994   0.00000  Uiso   1.00
C942   C     0.33331   0.70940   0.75006   0.00000  Uiso   1.00
C943   C     0.18512   0.80384   0.77299   0.00000  Uiso   1.00
C944   C     0.14821   0.86282   0.72701   0.00000  Uiso   1.00
C945   C     0.13556   0.80381   0.77290   0.00000  Uiso   1.00
C946   C     0.19778   0.86286   0.72710   0.00000  Uiso   1.00
C947   C     0.30644   0.83174   0.83635   0.00000  Uiso   1.00
C948   C     0.02689   0.83492   0.66364   0.00000  Uiso   1.00
C949   C     0.29211   0.82664   0.88598   0.00000  Uiso   1.00
C950   C     0.04122   0.83998   0.61402   0.00000  Uiso   1.00
C951   C     0.30428   0.80059   0.95685   0.00000  Uiso   1.00
C952   C     0.02904   0.86594   0.54311   0.00000  Uiso   1.00
C953   C     0.32224   0.80800   0.91040   0.00000  Uiso   1.00
C954   C     0.01109   0.85859   0.58957   0.00000  Uiso   1.00
C955   C     0.24486   0.83774   0.90846   0.00000  Uiso   1.00
C956   C     0.08847   0.82886   0.59155   0.00000  Uiso   1.00
C957   C     0.22507   0.82887   0.95438   0.00000  Uiso   1.00
C958   C     0.10824   0.83766   0.54560   0.00000  Uiso   1.00
C959   C     0.25602   0.81130   0.97898   0.00000  Uiso   1.00
C960   C     0.07729   0.85520   0.52099   0.00000  Uiso   1.00
C961   C     0.17538   0.83701   0.97641   0.00000  Uiso   1.00
C962   C     0.15792   0.82949   0.52357   0.00000  Uiso   1.00
Cu963  Cu    0.04689   0.83334   0.75000   0.00000  Uiso   1.00
Cu964  Cu    0.28645   0.83333   0.75000   0.00000  Uiso   1.00
H965   H     0.26124   0.79342   0.54578   0.00000  Uiso   1.00
H966   H     0.07204   0.87299   0.95416   0.00000  Uiso   1.00
H967   H     0.10908   0.81300   0.61118   0.00000  Uiso   1.00
H968   H     0.22426   0.85366   0.88884   0.00000  Uiso   1.00
H969   H     0.18179   0.81031   0.58327   0.00000  Uiso   1.00
H970   H     0.15150   0.85608   0.91668   0.00000  Uiso   1.00
H971   H     0.25768   0.70393   0.74924   0.00000  Uiso   1.00
H972   H     0.07565   0.96274   0.75076   0.00000  Uiso   1.00
H973   H     0.25774   0.96268   0.74910   0.00000  Uiso   1.00
H974   H     0.07560   0.70399   0.75090   0.00000  Uiso   1.00
H975   H     0.19866   0.78026   0.79152   0.00000  Uiso   1.00
H976   H     0.13467   0.88641   0.70848   0.00000  Uiso   1.00
H977   H     0.11190   0.78007   0.79112   0.00000  Uiso   1.00
H978   H     0.22144   0.88660   0.70887   0.00000  Uiso   1.00
N979   N     0.11736   0.83334   0.74999   0.00000  Uiso   1.00
N980   N     0.21597   0.83332   0.75001   0.00000  Uiso   1.00
O981   O     0.03958   0.77322   0.75000   0.00000  Uiso   1.00
O982   O     0.29375   0.89345   0.75000   0.00000  Uiso   1.00
O983   O     0.29372   0.77321   0.75000   0.00000  Uiso   1.00
O984   O     0.03961   0.89346   0.74999   0.00000  Uiso   1.00
O985   O     0.01852   0.83334   0.81491   0.00000  Uiso   1.00
O986   O     0.31481   0.83332   0.68508   0.00000  Uiso   1.00
O987   O     0.27267   0.83333   0.81492   0.00000  Uiso   1.00
O988   O     0.06067   0.83333   0.68508   0.00000  Uiso   1.00
Cl989  Cl    0.28478   0.87462   0.61629   0.00000  Uiso   1.00
Cl990  Cl    0.04856   0.79200   0.88367   0.00000  Uiso   1.00
Cl991  Cl    0.00899   0.77593   0.98645   0.00000  Uiso   1.00
Cl992  Cl    0.32433   0.89057   0.51349   0.00000  Uiso   1.00
C993   C     0.66664   0.75402   0.75004   0.00000  Uiso   1.00
C994   C     0.33336   0.91265   0.74996   0.00000  Uiso   1.00
C995   C     0.52428   0.81471   0.54731   0.00000  Uiso   1.00
C996   C     0.47568   0.85174   0.95266   0.00000  Uiso   1.00
C997   C     0.57170   0.80516   0.52540   0.00000  Uiso   1.00
C998   C     0.42826   0.86129   0.97455   0.00000  Uiso   1.00
C999   C     0.62421   0.68793   0.74958   0.00000  Uiso   1.00
C1000  C     0.37579   0.97873   0.75042   0.00000  Uiso   1.00
C1001  C     0.62424   0.97870   0.74950   0.00000  Uiso   1.00
C1002  C     0.37576   0.68797   0.75050   0.00000  Uiso   1.00
C1003  C     0.33336   0.95726   0.74994   0.00000  Uiso   1.00
C1004  C     0.66664   0.70940   0.75006   0.00000  Uiso   1.00
C1005  C     0.51846   0.80384   0.77299   0.00000  Uiso   1.00
C1006  C     0.48154   0.86282   0.72701   0.00000  Uiso   1.00
C1007  C     0.46889   0.80381   0.77290   0.00000  Uiso   1.00
C1008  C     0.53111   0.86286   0.72710   0.00000  Uiso   1.00
C1009  C     0.63978   0.83174   0.83635   0.00000  Uiso   1.00
C1010  C     0.36022   0.83492   0.66364   0.00000  Uiso   1.00
C1011  C     0.62545   0.82664   0.88598   0.00000  Uiso   1.00
C1012  C     0.37455   0.83998   0.61402   0.00000  Uiso   1.00
C1013  C     0.63761   0.80059   0.95685   0.00000  Uiso   1.00
C1014  C     0.36237   0.86594   0.54311   0.00000  Uiso   1.00
C1015  C     0.65557   0.80800   0.91040   0.00000  Uiso   1.00
C1016  C     0.34442   0.85859   0.58957   0.00000  Uiso   1.00
C1017  C     0.57819   0.83774   0.90846   0.00000  Uiso   1.00
C1018  C     0.42180   0.82886   0.59155   0.00000  Uiso   1.00
C1019  C     0.55840   0.82887   0.95438   0.00000  Uiso   1.00
C1020  C     0.44158   0.83766   0.54560   0.00000  Uiso   1.00
C1021  C     0.58935   0.81130   0.97898   0.00000  Uiso   1.00
C1022  C     0.41062   0.85520   0.52099   0.00000  Uiso   1.00
C1023  C     0.50872   0.83701   0.97641   0.00000  Uiso   1.00
C1024  C     0.49126   0.82949   0.52357   0.00000  Uiso   1.00
Cu1025 Cu    0.38022   0.83334   0.75000   0.00000  Uiso   1.00
Cu1026 Cu    0.61978   0.83333   0.75000   0.00000  Uiso   1.00
H1027  H     0.59458   0.79342   0.54578   0.00000  Uiso   1.00
H1028  H     0.40538   0.87299   0.95416   0.00000  Uiso   1.00
H1029  H     0.44241   0.81300   0.61118   0.00000  Uiso   1.00
H1030  H     0.55759   0.85366   0.88884   0.00000  Uiso   1.00
H1031  H     0.51512   0.81031   0.58327   0.00000  Uiso   1.00
H1032  H     0.48483   0.85608   0.91668   0.00000  Uiso   1.00
H1033  H     0.59101   0.70393   0.74924   0.00000  Uiso   1.00
H1034  H     0.40899   0.96274   0.75076   0.00000  Uiso   1.00
H1035  H     0.59107   0.96268   0.74910   0.00000  Uiso   1.00
H1036  H     0.40893   0.70399   0.75090   0.00000  Uiso   1.00
H1037  H     0.53200   0.78026   0.79152   0.00000  Uiso   1.00
H1038  H     0.46800   0.88641   0.70848   0.00000  Uiso   1.00
H1039  H     0.44523   0.78007   0.79112   0.00000  Uiso   1.00
H1040  H     0.55477   0.88660   0.70887   0.00000  Uiso   1.00
N1041  N     0.45069   0.83334   0.74999   0.00000  Uiso   1.00
N1042  N     0.54931   0.83332   0.75001   0.00000  Uiso   1.00
O1043  O     0.37291   0.77322   0.75000   0.00000  Uiso   1.00
O1044  O     0.62709   0.89345   0.75000   0.00000  Uiso   1.00
O1045  O     0.62706   0.77321   0.75000   0.00000  Uiso   1.00
O1046  O     0.37294   0.89346   0.74999   0.00000  Uiso   1.00
O1047  O     0.35186   0.83334   0.81491   0.00000  Uiso   1.00
O1048  O     0.64814   0.83332   0.68508   0.00000  Uiso   1.00
O1049  O     0.60600   0.83333   0.81492   0.00000  Uiso   1.00
O1050  O     0.39400   0.83333   0.68508   0.00000  Uiso   1.00
Cl1051 Cl    0.61811   0.87462   0.61629   0.00000  Uiso   1.00
Cl1052 Cl    0.38189   0.79200   0.88367   0.00000  Uiso   1.00
Cl1053 Cl    0.34232   0.77593   0.98645   0.00000  Uiso   1.00
Cl1054 Cl    0.65766   0.89057   0.51349   0.00000  Uiso   1.00
C1055  C     0.99997   0.75402   0.75004   0.00000  Uiso   1.00
C1056  C     0.66669   0.91265   0.74996   0.00000  Uiso   1.00
C1057  C     0.85762   0.81471   0.54731   0.00000  Uiso   1.00
C1058  C     0.80901   0.85174   0.95266   0.00000  Uiso   1.00
C1059  C     0.90503   0.80516   0.52540   0.00000  Uiso   1.00
C1060  C     0.76160   0.86129   0.97455   0.00000  Uiso   1.00
C1061  C     0.95754   0.68793   0.74958   0.00000  Uiso   1.00
C1062  C     0.70913   0.97873   0.75042   0.00000  Uiso   1.00
C1063  C     0.95757   0.97870   0.74950   0.00000  Uiso   1.00
C1064  C     0.70910   0.68797   0.75050   0.00000  Uiso   1.00
C1065  C     0.66669   0.95726   0.74994   0.00000  Uiso   1.00
C1066  C     0.99997   0.70940   0.75006   0.00000  Uiso   1.00
C1067  C     0.85179   0.80384   0.77299   0.00000  Uiso   1.00
C1068  C     0.81488   0.86282   0.72701   0.00000  Uiso   1.00
C1069  C     0.80223   0.80381   0.77290   0.00000  Uiso   1.00
C1070  C     0.86444   0.86286   0.72710   0.00000  Uiso   1.00
C1071  C     0.97311   0.83174   0.83635   0.00000  Uiso   1.00
C1072  C     0.69356   0.83492   0.66364   0.00000  Uiso   1.00
C1073  C     0.95878   0.82664   0.88598   0.00000  Uiso   1.00
C1074  C     0.70789   0.83998   0.61402   0.00000  Uiso   1.00
C1075  C     0.97095   0.80059   0.95685   0.00000  Uiso   1.00
C1076  C     0.69570   0.86594   0.54311   0.00000  Uiso   1.00
C1077  C     0.98891   0.80800   0.91040   0.00000  Uiso   1.00
C1078  C     0.67775   0.85859   0.58957   0.00000  Uiso   1.00
C1079  C     0.91152   0.83774   0.90846   0.00000  Uiso   1.00
C1080  C     0.75514   0.82886   0.59155   0.00000  Uiso   1.00
C1081  C     0.89174   0.82887   0.95438   0.00000  Uiso   1.00
C1082  C     0.77491   0.83766   0.54560   0.00000  Uiso   1.00
C1083  C     0.92269   0.81130   0.97898   0.00000  Uiso   1.00
C1084  C     0.74395   0.85520   0.52099   0.00000  Uiso   1.00
C1085  C     0.84205   0.83701   0.97641   0.00000  Uiso   1.00
C1086  C     0.82459   0.82949   0.52357   0.00000  Uiso   1.00
Cu1087 Cu    0.71355   0.83334   0.75000   0.00000  Uiso   1.00
Cu1088 Cu    0.95311   0.83333   0.75000   0.00000  Uiso   1.00
H1089  H     0.92791   0.79342   0.54578   0.00000  Uiso   1.00
H1090  H     0.73871   0.87299   0.95416   0.00000  Uiso   1.00
H1091  H     0.77575   0.81300   0.61118   0.00000  Uiso   1.00
H1092  H     0.89093   0.85366   0.88884   0.00000  Uiso   1.00
H1093  H     0.84846   0.81031   0.58327   0.00000  Uiso   1.00
H1094  H     0.81817   0.85608   0.91668   0.00000  Uiso   1.00
H1095  H     0.92435   0.70393   0.74924   0.00000  Uiso   1.00
H1096  H     0.74232   0.96274   0.75076   0.00000  Uiso   1.00
H1097  H     0.92440   0.96268   0.74910   0.00000  Uiso   1.00
H1098  H     0.74226   0.70399   0.75090   0.00000  Uiso   1.00
H1099  H     0.86533   0.78026   0.79152   0.00000  Uiso   1.00
H1100  H     0.80134   0.88641   0.70848   0.00000  Uiso   1.00
H1101  H     0.77856   0.78007   0.79112   0.00000  Uiso   1.00
H1102  H     0.88810   0.88660   0.70887   0.00000  Uiso   1.00
N1103  N     0.78403   0.83334   0.74999   0.00000  Uiso   1.00
N1104  N     0.88264   0.83332   0.75001   0.00000  Uiso   1.00
O1105  O     0.70625   0.77322   0.75000   0.00000  Uiso   1.00
O1106  O     0.96042   0.89345   0.75000   0.00000  Uiso   1.00
O1107  O     0.96039   0.77321   0.75000   0.00000  Uiso   1.00
O1108  O     0.70628   0.89346   0.74999   0.00000  Uiso   1.00
O1109  O     0.68519   0.83334   0.81491   0.00000  Uiso   1.00
O1110  O     0.98148   0.83332   0.68508   0.00000  Uiso   1.00
O1111  O     0.93933   0.83333   0.81492   0.00000  Uiso   1.00
O1112  O     0.72733   0.83333   0.68508   0.00000  Uiso   1.00
Cl1113 Cl    0.95145   0.87462   0.61629   0.00000  Uiso   1.00
Cl1114 Cl    0.71522   0.79200   0.88367   0.00000  Uiso   1.00
Cl1115 Cl    0.67565   0.77593   0.98645   0.00000  Uiso   1.00
Cl1116 Cl    0.99099   0.89057   0.51349   0.00000  Uiso   1.00
loop_
_geom_bond_atom_site_label_1
_geom_bond_atom_site_label_2
_geom_bond_distance
_geom_bond_site_symmetry_2
_ccdc_geom_bond_type
C1     C12     1.450   .     S
C1     O53     1.291   .     A
C1     O113    1.291   .     S
C2     C11     1.450   .     S
C2     O54     1.291   .     A
C2     O176    1.291   1_455 S
C3     H39     1.075   .     S
C3     C32     1.414   .     A
C3     C5      1.384   .     A
C4     C6      1.384   .     A
C4     C31     1.414   .     A
C4     H40     1.075   .     S
C5     H35     1.082   .     S
C5     C587    1.397   1_554 S
C6     H36     1.082   .     S
C6     C588    1.397   .     S
C7     C12     1.401   .     A
C7     H41     1.083   .     S
C7     C381    1.384   1_545 S
C8     H42     1.083   .     S
C8     C11     1.401   .     A
C8     C196    1.384   .     S
C9     H43     1.083   .     S
C9     C193    1.384   .     S
C9     C73     1.401   .     S
C10    H44     1.083   .     S
C10    C380    1.384   1_545 S
C10    C136    1.401   1_455 S
C11    C133    1.401   1_455 S
C12    C72     1.401   .     S
C13    C15     1.416   .     A
C13    H45     1.082   .     S
C13    N50     1.367   .     A
C14    H46     1.082   .     S
C14    C16     1.416   .     A
C14    N49     1.367   .     A
C15    H47     1.081   .     S
C15    N49     1.367   .     A
C16    H48     1.081   .     S
C16    N50     1.367   .     A
C17    C19     1.480   .     S
C17    O57     1.299   .     A
C17    O117    1.296   .     S
C18    C20     1.480   .     S
C18    O58     1.299   .     A
C18    O180    1.296   1_455 S
C19    C23     1.413   .     A
C19    C25     1.397   .     A
C20    C24     1.413   .     A
C20    C26     1.397   .     A
C21    C23     1.405   .     A
C21    C29     1.415   .     A
C21    Cl123   1.774   .     S
C22    C24     1.405   .     A
C22    C30     1.415   .     A
C22    Cl186   1.774   1_455 S
C23    Cl122   1.769   .     S
C24    Cl183   1.769   1_455 S
C25    H38     1.075   .     S
C25    C27     1.406   .     A
C26    H37     1.074   .     S
C26    C28     1.406   .     A
C27    C29     1.419   .     A
C27    C31     1.431   .     A
C28    C30     1.419   .     A
C28    C32     1.431   .     A
C29    C563    1.397   .     S
C30    C564    1.397   1_554 S
C31    C590    1.424   .     S
C32    C589    1.424   1_554 S
Cu33   O55     1.948   .     S
Cu33   O58     1.928   .     S
Cu33   N49     2.012   .     S
Cu33   O54     1.965   .     S
Cu33   O51     1.965   .     S
Cu33   Cu158   2.677   1_455 S
Cu34   O57     1.928   .     S
Cu34   O56     1.948   .     S
Cu34   N50     2.012   .     S
Cu34   O53     1.965   .     S
Cu34   O52     1.965   .     S
Cu34   Cu95    2.677   .     S
O51    C125    1.291   1_455 S
O52    C64     1.291   .     S
O55    C141    1.296   1_455 S
O56    C80     1.296   .     S
Cl59   C86     1.769   .     S
Cl60   C147    1.769   1_455 S
Cl61   C145    1.774   1_455 S
Cl62   C84     1.774   .     S
C63    C74     1.450   .     S
C63    O115    1.291   .     A
C63    O175    1.291   .     S
C64    C73     1.450   .     S
C64    O116    1.291   .     A
C65    H101    1.075   .     S
C65    C94     1.414   .     A
C65    C67     1.384   .     A
C66    C68     1.384   .     A
C66    C93     1.414   .     A
C66    H102    1.075   .     S
C67    H97     1.082   .     S
C67    C649    1.397   1_554 S
C68    H98     1.082   .     S
C68    C650    1.397   .     S
C69    C74     1.401   .     A
C69    H103    1.083   .     S
C69    C443    1.384   1_545 S
C70    H104    1.083   .     S
C70    C73     1.401   .     A
C70    C258    1.384   .     S
C71    H105    1.083   .     S
C71    C255    1.384   .     S
C71    C135    1.401   .     S
C72    H106    1.083   .     S
C72    C442    1.384   1_545 S
C74    C134    1.401   .     S
C75    C77     1.416   .     A
C75    H107    1.082   .     S
C75    N112    1.367   .     A
C76    H108    1.082   .     S
C76    C78     1.416   .     A
C76    N111    1.367   .     A
C77    H109    1.081   .     S
C77    N111    1.367   .     A
C78    H110    1.081   .     S
C78    N112    1.367   .     A
C79    C81     1.480   .     S
C79    O119    1.299   .     A
C79    O179    1.296   .     S
C80    C82     1.480   .     S
C80    O120    1.299   .     A
C81    C85     1.413   .     A
C81    C87     1.397   .     A
C82    C86     1.413   .     A
C82    C88     1.397   .     A
C83    C85     1.405   .     A
C83    C91     1.415   .     A
C83    Cl185   1.774   .     S
C84    C86     1.405   .     A
C84    C92     1.415   .     A
C85    Cl184   1.769   .     S
C87    H100    1.075   .     S
C87    C89     1.406   .     A
C88    H99     1.074   .     S
C88    C90     1.406   .     A
C89    C91     1.419   .     A
C89    C93     1.431   .     A
C90    C92     1.419   .     A
C90    C94     1.431   .     A
C91    C625    1.397   .     S
C92    C626    1.397   1_554 S
C93    C652    1.424   .     S
C94    C651    1.424   1_554 S
Cu95   O117    1.948   .     S
Cu95   O120    1.928   .     S
Cu95   N111    2.012   .     S
Cu95   O116    1.965   .     S
Cu95   O113    1.965   .     S
Cu96   O119    1.928   .     S
Cu96   O118    1.948   .     S
Cu96   N112    2.012   .     S
Cu96   O115    1.965   .     S
Cu96   O114    1.965   .     S
Cu96   Cu157   2.677   .     S
O114   C126    1.291   .     S
O118   C142    1.296   .     S
Cl121  C148    1.769   .     S
Cl124  C146    1.774   .     S
C125   C136    1.450   .     S
C125   O177    1.291   .     A
C125   O51     1.291   1_655 S
C126   C135    1.450   .     S
C126   O178    1.291   .     A
C127   H163    1.075   .     S
C127   C156    1.414   .     A
C127   C129    1.384   .     A
C128   C130    1.384   .     A
C128   C155    1.414   .     A
C128   H164    1.075   .     S
C129   H159    1.082   .     S
C129   C711    1.397   1_554 S
C130   H160    1.082   .     S
C130   C712    1.397   .     S
C131   C136    1.401   .     A
C131   H165    1.083   .     S
C131   C505    1.384   1_545 S
C132   H166    1.083   .     S
C132   C135    1.401   .     A
C132   C320    1.384   .     S
C133   H167    1.083   .     S
C133   C317    1.384   .     S
C133   C11     1.401   1_655 S
C134   H168    1.083   .     S
C134   C504    1.384   1_545 S
C136   C10     1.401   1_655 S
C137   C139    1.416   .     A
C137   H169    1.082   .     S
C137   N174    1.367   .     A
C138   H170    1.082   .     S
C138   C140    1.416   .     A
C138   N173    1.367   .     A
C139   H171    1.081   .     S
C139   N173    1.367   .     A
C140   H172    1.081   .     S
C140   N174    1.367   .     A
C141   C143    1.480   .     S
C141   O181    1.299   .     A
C141   O55     1.296   1_655 S
C142   C144    1.480   .     S
C142   O182    1.299   .     A
C143   C147    1.413   .     A
C143   C149    1.397   .     A
C144   C148    1.413   .     A
C144   C150    1.397   .     A
C145   C147    1.405   .     A
C145   C153    1.415   .     A
C145   Cl61    1.774   1_655 S
C146   C148    1.405   .     A
C146   C154    1.415   .     A
C147   Cl60    1.769   1_655 S
C149   H162    1.075   .     S
C149   C151    1.406   .     A
C150   H161    1.074   .     S
C150   C152    1.406   .     A
C151   C153    1.419   .     A
C151   C155    1.431   .     A
C152   C154    1.419   .     A
C152   C156    1.431   .     A
C153   C687    1.397   .     S
C154   C688    1.397   1_554 S
C155   C714    1.424   .     S
C156   C713    1.424   1_554 S
Cu157  O179    1.948   .     S
Cu157  O182    1.928   .     S
Cu157  N173    2.012   .     S
Cu157  O178    1.965   .     S
Cu157  O175    1.965   .     S
Cu158  O181    1.928   .     S
Cu158  O180    1.948   .     S
Cu158  N174    2.012   .     S
Cu158  O177    1.965   .     S
Cu158  O176    1.965   .     S
Cu158  Cu33    2.677   1_655 S
O176   C2      1.291   1_655 S
O180   C18     1.296   1_655 S
Cl183  C24     1.769   1_655 S
Cl186  C22     1.774   1_655 S
C187   C198    1.450   .     S
C187   O239    1.291   .     A
C187   O299    1.291   .     S
C188   C197    1.450   .     S
C188   O240    1.291   .     A
C188   O362    1.291   1_455 S
C189   H225    1.075   .     S
C189   C218    1.414   .     A
C189   C191    1.384   .     A
C190   C192    1.384   .     A
C190   C217    1.414   .     A
C190   H226    1.075   .     S
C191   H221    1.082   .     S
C191   C773    1.397   1_554 S
C192   H222    1.082   .     S
C192   C774    1.397   .     S
C193   C198    1.401   .     A
C193   H227    1.083   .     S
C194   H228    1.083   .     S
C194   C197    1.401   .     A
C194   C382    1.384   .     S
C195   H229    1.083   .     S
C195   C379    1.384   .     S
C195   C259    1.401   .     S
C196   H230    1.083   .     S
C196   C322    1.401   1_455 S
C197   C319    1.401   1_455 S
C198   C258    1.401   .     S
C199   C201    1.416   .     A
C199   H231    1.082   .     S
C199   N236    1.367   .     A
C200   H232    1.082   .     S
C200   C202    1.416   .     A
C200   N235    1.367   .     A
C201   H233    1.081   .     S
C201   N235    1.367   .     A
C202   H234    1.081   .     S
C202   N236    1.367   .     A
C203   C205    1.480   .     S
C203   O243    1.299   .     A
C203   O303    1.296   .     S
C204   C206    1.480   .     S
C204   O244    1.299   .     A
C204   O366    1.296   1_455 S
C205   C209    1.413   .     A
C205   C211    1.397   .     A
C206   C210    1.413   .     A
C206   C212    1.397   .     A
C207   C209    1.405   .     A
C207   C215    1.415   .     A
C207   Cl309   1.774   .     S
C208   C210    1.405   .     A
C208   C216    1.415   .     A
C208   Cl372   1.774   1_455 S
C209   Cl308   1.769   .     S
C210   Cl369   1.769   1_455 S
C211   H224    1.075   .     S
C211   C213    1.406   .     A
C212   H223    1.074   .     S
C212   C214    1.406   .     A
C213   C215    1.419   .     A
C213   C217    1.431   .     A
C214   C216    1.419   .     A
C214   C218    1.431   .     A
C215   C749    1.397   .     S
C216   C750    1.397   1_554 S
C217   C776    1.424   .     S
C218   C775    1.424   1_554 S
Cu219  O241    1.948   .     S
Cu219  O244    1.928   .     S
Cu219  N235    2.012   .     S
Cu219  O240    1.965   .     S
Cu219  O237    1.965   .     S
Cu219  Cu344   2.677   1_455 S
Cu220  O243    1.928   .     S
Cu220  O242    1.948   .     S
Cu220  N236    2.012   .     S
Cu220  O239    1.965   .     S
Cu220  O238    1.965   .     S
Cu220  Cu281   2.677   .     S
O237   C311    1.291   1_455 S
O238   C250    1.291   .     S
O241   C327    1.296   1_455 S
O242   C266    1.296   .     S
Cl245  C272    1.769   .     S
Cl246  C333    1.769   1_455 S
Cl247  C331    1.774   1_455 S
Cl248  C270    1.774   .     S
C249   C260    1.450   .     S
C249   O301    1.291   .     A
C249   O361    1.291   .     S
C250   C259    1.450   .     S
C250   O302    1.291   .     A
C251   H287    1.075   .     S
C251   C280    1.414   .     A
C251   C253    1.384   .     A
C252   C254    1.384   .     A
C252   C279    1.414   .     A
C252   H288    1.075   .     S
C253   H283    1.082   .     S
C253   C835    1.397   1_554 S
C254   H284    1.082   .     S
C254   C836    1.397   .     S
C255   C260    1.401   .     A
C255   H289    1.083   .     S
C256   H290    1.083   .     S
C256   C259    1.401   .     A
C256   C444    1.384   .     S
C257   H291    1.083   .     S
C257   C441    1.384   .     S
C257   C321    1.401   .     S
C258   H292    1.083   .     S
C260   C320    1.401   .     S
C261   C263    1.416   .     A
C261   H293    1.082   .     S
C261   N298    1.367   .     A
C262   H294    1.082   .     S
C262   C264    1.416   .     A
C262   N297    1.367   .     A
C263   H295    1.081   .     S
C263   N297    1.367   .     A
C264   H296    1.081   .     S
C264   N298    1.367   .     A
C265   C267    1.480   .     S
C265   O305    1.299   .     A
C265   O365    1.296   .     S
C266   C268    1.480   .     S
C266   O306    1.299   .     A
C267   C271    1.413   .     A
C267   C273    1.397   .     A
C268   C272    1.413   .     A
C268   C274    1.397   .     A
C269   C271    1.405   .     A
C269   C277    1.415   .     A
C269   Cl371   1.774   .     S
C270   C272    1.405   .     A
C270   C278    1.415   .     A
C271   Cl370   1.769   .     S
C273   H286    1.075   .     S
C273   C275    1.406   .     A
C274   H285    1.074   .     S
C274   C276    1.406   .     A
C275   C277    1.419   .     A
C275   C279    1.431   .     A
C276   C278    1.419   .     A
C276   C280    1.431   .     A
C277   C811    1.397   .     S
C278   C812    1.397   1_554 S
C279   C838    1.424   .     S
C280   C837    1.424   1_554 S
Cu281  O303    1.948   .     S
Cu281  O306    1.928   .     S
Cu281  N297    2.012   .     S
Cu281  O302    1.965   .     S
Cu281  O299    1.965   .     S
Cu282  O305    1.928   .     S
Cu282  O304    1.948   .     S
Cu282  N298    2.012   .     S
Cu282  O301    1.965   .     S
Cu282  O300    1.965   .     S
Cu282  Cu343   2.677   .     S
O300   C312    1.291   .     S
O304   C328    1.296   .     S
Cl307  C334    1.769   .     S
Cl310  C332    1.774   .     S
C311   C322    1.450   .     S
C311   O363    1.291   .     A
C311   O237    1.291   1_655 S
C312   C321    1.450   .     S
C312   O364    1.291   .     A
C313   H349    1.075   .     S
C313   C342    1.414   .     A
C313   C315    1.384   .     A
C314   C316    1.384   .     A
C314   C341    1.414   .     A
C314   H350    1.075   .     S
C315   H345    1.082   .     S
C315   C897    1.397   1_554 S
C316   H346    1.082   .     S
C316   C898    1.397   .     S
C317   C322    1.401   .     A
C317   H351    1.083   .     S
C318   H352    1.083   .     S
C318   C321    1.401   .     A
C318   C506    1.384   .     S
C319   H353    1.083   .     S
C319   C503    1.384   .     S
C319   C197    1.401   1_655 S
C320   H354    1.083   .     S
C322   C196    1.401   1_655 S
C323   C325    1.416   .     A
C323   H355    1.082   .     S
C323   N360    1.367   .     A
C324   H356    1.082   .     S
C324   C326    1.416   .     A
C324   N359    1.367   .     A
C325   H357    1.081   .     S
C325   N359    1.367   .     A
C326   H358    1.081   .     S
C326   N360    1.367   .     A
C327   C329    1.480   .     S
C327   O367    1.299   .     A
C327   O241    1.296   1_655 S
C328   C330    1.480   .     S
C328   O368    1.299   .     A
C329   C333    1.413   .     A
C329   C335    1.397   .     A
C330   C334    1.413   .     A
C330   C336    1.397   .     A
C331   C333    1.405   .     A
C331   C339    1.415   .     A
C331   Cl247   1.774   1_655 S
C332   C334    1.405   .     A
C332   C340    1.415   .     A
C333   Cl246   1.769   1_655 S
C335   H348    1.075   .     S
C335   C337    1.406   .     A
C336   H347    1.074   .     S
C336   C338    1.406   .     A
C337   C339    1.419   .     A
C337   C341    1.431   .     A
C338   C340    1.419   .     A
C338   C342    1.431   .     A
C339   C873    1.397   .     S
C340   C874    1.397   1_554 S
C341   C900    1.424   .     S
C342   C899    1.424   1_554 S
Cu343  O365    1.948   .     S
Cu343  O368    1.928   .     S
Cu343  N359    2.012   .     S
Cu343  O364    1.965   .     S
Cu343  O361    1.965   .     S
Cu344  O367    1.928   .     S
Cu344  O366    1.948   .     S
Cu344  N360    2.012   .     S
Cu344  O363    1.965   .     S
Cu344  O362    1.965   .     S
Cu344  Cu219   2.677   1_655 S
O362   C188    1.291   1_655 S
O366   C204    1.296   1_655 S
Cl369  C210    1.769   1_655 S
Cl372  C208    1.774   1_655 S
C373   C384    1.450   .     S
C373   O425    1.291   .     A
C373   O485    1.291   .     S
C374   C383    1.450   .     S
C374   O426    1.291   .     A
C374   O548    1.291   1_455 S
C375   H411    1.075   .     S
C375   C404    1.414   .     A
C375   C377    1.384   .     A
C376   C378    1.384   .     A
C376   C403    1.414   .     A
C376   H412    1.075   .     S
C377   H407    1.082   .     S
C377   C959    1.397   1_554 S
C378   H408    1.082   .     S
C378   C960    1.397   .     S
C379   C384    1.401   .     A
C379   H413    1.083   .     S
C380   H414    1.083   .     S
C380   C383    1.401   .     A
C380   C10     1.384   1_565 S
C381   H415    1.083   .     S
C381   C7      1.384   1_565 S
C381   C445    1.401   .     S
C382   H416    1.083   .     S
C382   C508    1.401   1_455 S
C383   C505    1.401   1_455 S
C384   C444    1.401   .     S
C385   C387    1.416   .     A
C385   H417    1.082   .     S
C385   N422    1.367   .     A
C386   H418    1.082   .     S
C386   C388    1.416   .     A
C386   N421    1.367   .     A
C387   H419    1.081   .     S
C387   N421    1.367   .     A
C388   H420    1.081   .     S
C388   N422    1.367   .     A
C389   C391    1.480   .     S
C389   O429    1.299   .     A
C389   O489    1.296   .     S
C390   C392    1.480   .     S
C390   O430    1.299   .     A
C390   O552    1.296   1_455 S
C391   C395    1.413   .     A
C391   C397    1.397   .     A
C392   C396    1.413   .     A
C392   C398    1.397   .     A
C393   C395    1.405   .     A
C393   C401    1.415   .     A
C393   Cl495   1.774   .     S
C394   C396    1.405   .     A
C394   C402    1.415   .     A
C394   Cl558   1.774   1_455 S
C395   Cl494   1.769   .     S
C396   Cl555   1.769   1_455 S
C397   H410    1.075   .     S
C397   C399    1.406   .     A
C398   H409    1.074   .     S
C398   C400    1.406   .     A
C399   C401    1.419   .     A
C399   C403    1.431   .     A
C400   C402    1.419   .     A
C400   C404    1.431   .     A
C401   C935    1.397   .     S
C402   C936    1.397   1_554 S
C403   C962    1.424   .     S
C404   C961    1.424   1_554 S
Cu405  O427    1.948   .     S
Cu405  O430    1.928   .     S
Cu405  N421    2.012   .     S
Cu405  O426    1.965   .     S
Cu405  O423    1.965   .     S
Cu405  Cu530   2.677   1_455 S
Cu406  O429    1.928   .     S
Cu406  O428    1.948   .     S
Cu406  N422    2.012   .     S
Cu406  O425    1.965   .     S
Cu406  O424    1.965   .     S
Cu406  Cu467   2.677   .     S
O423   C497    1.291   1_455 S
O424   C436    1.291   .     S
O427   C513    1.296   1_455 S
O428   C452    1.296   .     S
Cl431  C458    1.769   .     S
Cl432  C519    1.769   1_455 S
Cl433  C517    1.774   1_455 S
Cl434  C456    1.774   .     S
C435   C446    1.450   .     S
C435   O487    1.291   .     A
C435   O547    1.291   .     S
C436   C445    1.450   .     S
C436   O488    1.291   .     A
C437   H473    1.075   .     S
C437   C466    1.414   .     A
C437   C439    1.384   .     A
C438   C440    1.384   .     A
C438   C465    1.414   .     A
C438   H474    1.075   .     S
C439   H469    1.082   .     S
C439   C1021   1.397   1_554 S
C440   H470    1.082   .     S
C440   C1022   1.397   .     S
C441   C446    1.401   .     A
C441   H475    1.083   .     S
C442   H476    1.083   .     S
C442   C445    1.401   .     A
C442   C72     1.384   1_565 S
C443   H477    1.083   .     S
C443   C69     1.384   1_565 S
C443   C507    1.401   .     S
C444   H478    1.083   .     S
C446   C506    1.401   .     S
C447   C449    1.416   .     A
C447   H479    1.082   .     S
C447   N484    1.367   .     A
C448   H480    1.082   .     S
C448   C450    1.416   .     A
C448   N483    1.367   .     A
C449   H481    1.081   .     S
C449   N483    1.367   .     A
C450   H482    1.081   .     S
C450   N484    1.367   .     A
C451   C453    1.480   .     S
C451   O491    1.299   .     A
C451   O551    1.296   .     S
C452   C454    1.480   .     S
C452   O492    1.299   .     A
C453   C457    1.413   .     A
C453   C459    1.397   .     A
C454   C458    1.413   .     A
C454   C460    1.397   .     A
C455   C457    1.405   .     A
C455   C463    1.415   .     A
C455   Cl557   1.774   .     S
C456   C458    1.405   .     A
C456   C464    1.415   .     A
C457   Cl556   1.769   .     S
C459   H472    1.075   .     S
C459   C461    1.406   .     A
C460   H471    1.074   .     S
C460   C462    1.406   .     A
C461   C463    1.419   .     A
C461   C465    1.431   .     A
C462   C464    1.419   .     A
C462   C466    1.431   .     A
C463   C997    1.397   .     S
C464   C998    1.397   1_554 S
C465   C1024   1.424   .     S
C466   C1023   1.424   1_554 S
Cu467  O489    1.948   .     S
Cu467  O492    1.928   .     S
Cu467  N483    2.012   .     S
Cu467  O488    1.965   .     S
Cu467  O485    1.965   .     S
Cu468  O491    1.928   .     S
Cu468  O490    1.948   .     S
Cu468  N484    2.012   .     S
Cu468  O487    1.965   .     S
Cu468  O486    1.965   .     S
Cu468  Cu529   2.677   .     S
O486   C498    1.291   .     S
O490   C514    1.296   .     S
Cl493  C520    1.769   .     S
Cl496  C518    1.774   .     S
C497   C508    1.450   .     S
C497   O549    1.291   .     A
C497   O423    1.291   1_655 S
C498   C507    1.450   .     S
C498   O550    1.291   .     A
C499   H535    1.075   .     S
C499   C528    1.414   .     A
C499   C501    1.384   .     A
C500   C502    1.384   .     A
C500   C527    1.414   .     A
C500   H536    1.075   .     S
C501   H531    1.082   .     S
C501   C1083   1.397   1_554 S
C502   H532    1.082   .     S
C502   C1084   1.397   .     S
C503   C508    1.401   .     A
C503   H537    1.083   .     S
C504   H538    1.083   .     S
C504   C507    1.401   .     A
C504   C134    1.384   1_565 S
C505   H539    1.083   .     S
C505   C131    1.384   1_565 S
C505   C383    1.401   1_655 S
C506   H540    1.083   .     S
C508   C382    1.401   1_655 S
C509   C511    1.416   .     A
C509   H541    1.082   .     S
C509   N546    1.367   .     A
C510   H542    1.082   .     S
C510   C512    1.416   .     A
C510   N545    1.367   .     A
C511   H543    1.081   .     S
C511   N545    1.367   .     A
C512   H544    1.081   .     S
C512   N546    1.367   .     A
C513   C515    1.480   .     S
C513   O553    1.299   .     A
C513   O427    1.296   1_655 S
C514   C516    1.480   .     S
C514   O554    1.299   .     A
C515   C519    1.413   .     A
C515   C521    1.397   .     A
C516   C520    1.413   .     A
C516   C522    1.397   .     A
C517   C519    1.405   .     A
C517   C525    1.415   .     A
C517   Cl433   1.774   1_655 S
C518   C520    1.405   .     A
C518   C526    1.415   .     A
C519   Cl432   1.769   1_655 S
C521   H534    1.075   .     S
C521   C523    1.406   .     A
C522   H533    1.074   .     S
C522   C524    1.406   .     A
C523   C525    1.419   .     A
C523   C527    1.431   .     A
C524   C526    1.419   .     A
C524   C528    1.431   .     A
C525   C1059   1.397   .     S
C526   C1060   1.397   1_554 S
C527   C1086   1.424   .     S
C528   C1085   1.424   1_554 S
Cu529  O551    1.948   .     S
Cu529  O554    1.928   .     S
Cu529  N545    2.012   .     S
Cu529  O550    1.965   .     S
Cu529  O547    1.965   .     S
Cu530  O553    1.928   .     S
Cu530  O552    1.948   .     S
Cu530  N546    2.012   .     S
Cu530  O549    1.965   .     S
Cu530  O548    1.965   .     S
Cu530  Cu405   2.677   1_655 S
O548   C374    1.291   1_655 S
O552   C390    1.296   1_655 S
Cl555  C396    1.769   1_655 S
Cl558  C394    1.774   1_655 S
C559   C570    1.450   .     S
C559   O611    1.291   .     A
C559   O671    1.291   .     S
C560   C569    1.450   .     S
C560   O612    1.291   .     A
C560   O734    1.291   1_455 S
C561   H597    1.075   .     S
C561   C590    1.414   .     A
C561   C563    1.384   .     A
C562   C564    1.384   .     A
C562   C589    1.414   .     A
C562   H598    1.075   .     S
C563   H593    1.082   .     S
C564   H594    1.082   .     S
C564   C30     1.397   1_556 S
C565   C570    1.401   .     A
C565   H599    1.083   .     S
C565   C939    1.384   1_545 S
C566   H600    1.083   .     S
C566   C569    1.401   .     A
C566   C754    1.384   .     S
C567   H601    1.083   .     S
C567   C751    1.384   .     S
C567   C631    1.401   .     S
C568   H602    1.083   .     S
C568   C938    1.384   1_545 S
C568   C694    1.401   1_455 S
C569   C691    1.401   1_455 S
C570   C630    1.401   .     S
C571   C573    1.416   .     A
C571   H603    1.082   .     S
C571   N608    1.367   .     A
C572   H604    1.082   .     S
C572   C574    1.416   .     A
C572   N607    1.367   .     A
C573   H605    1.081   .     S
C573   N607    1.367   .     A
C574   H606    1.081   .     S
C574   N608    1.367   .     A
C575   C577    1.480   .     S
C575   O615    1.299   .     A
C575   O675    1.296   .     S
C576   C578    1.480   .     S
C576   O616    1.299   .     A
C576   O738    1.296   1_455 S
C577   C581    1.413   .     A
C577   C583    1.397   .     A
C578   C582    1.413   .     A
C578   C584    1.397   .     A
C579   C581    1.405   .     A
C579   C587    1.415   .     A
C579   Cl681   1.774   .     S
C580   C582    1.405   .     A
C580   C588    1.415   .     A
C580   Cl744   1.774   1_455 S
C581   Cl680   1.769   .     S
C582   Cl741   1.769   1_455 S
C583   H596    1.075   .     S
C583   C585    1.406   .     A
C584   H595    1.074   .     S
C584   C586    1.406   .     A
C585   C587    1.419   .     A
C585   C589    1.431   .     A
C586   C588    1.419   .     A
C586   C590    1.431   .     A
C587   C5      1.397   1_556 S
C589   C32     1.424   1_556 S
Cu591  O613    1.948   .     S
Cu591  O616    1.928   .     S
Cu591  N607    2.012   .     S
Cu591  O612    1.965   .     S
Cu591  O609    1.965   .     S
Cu591  Cu716   2.677   1_455 S
Cu592  O615    1.928   .     S
Cu592  O614    1.948   .     S
Cu592  N608    2.012   .     S
Cu592  O611    1.965   .     S
Cu592  O610    1.965   .     S
Cu592  Cu653   2.677   .     S
O609   C683    1.291   1_455 S
O610   C622    1.291   .     S
O613   C699    1.296   1_455 S
O614   C638    1.296   .     S
Cl617  C644    1.769   .     S
Cl618  C705    1.769   1_455 S
Cl619  C703    1.774   1_455 S
Cl620  C642    1.774   .     S
C621   C632    1.450   .     S
C621   O673    1.291   .     A
C621   O733    1.291   .     S
C622   C631    1.450   .     S
C622   O674    1.291   .     A
C623   H659    1.075   .     S
C623   C652    1.414   .     A
C623   C625    1.384   .     A
C624   C626    1.384   .     A
C624   C651    1.414   .     A
C624   H660    1.075   .     S
C625   H655    1.082   .     S
C626   H656    1.082   .     S
C626   C92     1.397   1_556 S
C627   C632    1.401   .     A
C627   H661    1.083   .     S
C627   C1001   1.384   1_545 S
C628   H662    1.083   .     S
C628   C631    1.401   .     A
C628   C816    1.384   .     S
C629   H663    1.083   .     S
C629   C813    1.384   .     S
C629   C693    1.401   .     S
C630   H664    1.083   .     S
C630   C1000   1.384   1_545 S
C632   C692    1.401   .     S
C633   C635    1.416   .     A
C633   H665    1.082   .     S
C633   N670    1.367   .     A
C634   H666    1.082   .     S
C634   C636    1.416   .     A
C634   N669    1.367   .     A
C635   H667    1.081   .     S
C635   N669    1.367   .     A
C636   H668    1.081   .     S
C636   N670    1.367   .     A
C637   C639    1.480   .     S
C637   O677    1.299   .     A
C637   O737    1.296   .     S
C638   C640    1.480   .     S
C638   O678    1.299   .     A
C639   C643    1.413   .     A
C639   C645    1.397   .     A
C640   C644    1.413   .     A
C640   C646    1.397   .     A
C641   C643    1.405   .     A
C641   C649    1.415   .     A
C641   Cl743   1.774   .     S
C642   C644    1.405   .     A
C642   C650    1.415   .     A
C643   Cl742   1.769   .     S
C645   H658    1.075   .     S
C645   C647    1.406   .     A
C646   H657    1.074   .     S
C646   C648    1.406   .     A
C647   C649    1.419   .     A
C647   C651    1.431   .     A
C648   C650    1.419   .     A
C648   C652    1.431   .     A
C649   C67     1.397   1_556 S
C651   C94     1.424   1_556 S
Cu653  O675    1.948   .     S
Cu653  O678    1.928   .     S
Cu653  N669    2.012   .     S
Cu653  O674    1.965   .     S
Cu653  O671    1.965   .     S
Cu654  O677    1.928   .     S
Cu654  O676    1.948   .     S
Cu654  N670    2.012   .     S
Cu654  O673    1.965   .     S
Cu654  O672    1.965   .     S
Cu654  Cu715   2.677   .     S
O672   C684    1.291   .     S
O676   C700    1.296   .     S
Cl679  C706    1.769   .     S
Cl682  C704    1.774   .     S
C683   C694    1.450   .     S
C683   O735    1.291   .     A
C683   O609    1.291   1_655 S
C684   C693    1.450   .     S
C684   O736    1.291   .     A
C685   H721    1.075   .     S
C685   C714    1.414   .     A
C685   C687    1.384   .     A
C686   C688    1.384   .     A
C686   C713    1.414   .     A
C686   H722    1.075   .     S
C687   H717    1.082   .     S
C688   H718    1.082   .     S
C688   C154    1.397   1_556 S
C689   C694    1.401   .     A
C689   H723    1.083   .     S
C689   C1063   1.384   1_545 S
C690   H724    1.083   .     S
C690   C693    1.401   .     A
C690   C878    1.384   .     S
C691   H725    1.083   .     S
C691   C875    1.384   .     S
C691   C569    1.401   1_655 S
C692   H726    1.083   .     S
C692   C1062   1.384   1_545 S
C694   C568    1.401   1_655 S
C695   C697    1.416   .     A
C695   H727    1.082   .     S
C695   N732    1.367   .     A
C696   H728    1.082   .     S
C696   C698    1.416   .     A
C696   N731    1.367   .     A
C697   H729    1.081   .     S
C697   N731    1.367   .     A
C698   H730    1.081   .     S
C698   N732    1.367   .     A
C699   C701    1.480   .     S
C699   O739    1.299   .     A
C699   O613    1.296   1_655 S
C700   C702    1.480   .     S
C700   O740    1.299   .     A
C701   C705    1.413   .     A
C701   C707    1.397   .     A
C702   C706    1.413   .     A
C702   C708    1.397   .     A
C703   C705    1.405   .     A
C703   C711    1.415   .     A
C703   Cl619   1.774   1_655 S
C704   C706    1.405   .     A
C704   C712    1.415   .     A
C705   Cl618   1.769   1_655 S
C707   H720    1.075   .     S
C707   C709    1.406   .     A
C708   H719    1.074   .     S
C708   C710    1.406   .     A
C709   C711    1.419   .     A
C709   C713    1.431   .     A
C710   C712    1.419   .     A
C710   C714    1.431   .     A
C711   C129    1.397   1_556 S
C713   C156    1.424   1_556 S
Cu715  O737    1.948   .     S
Cu715  O740    1.928   .     S
Cu715  N731    2.012   .     S
Cu715  O736    1.965   .     S
Cu715  O733    1.965   .     S
Cu716  O739    1.928   .     S
Cu716  O738    1.948   .     S
Cu716  N732    2.012   .     S
Cu716  O735    1.965   .     S
Cu716  O734    1.965   .     S
Cu716  Cu591   2.677   1_655 S
O734   C560    1.291   1_655 S
O738   C576    1.296   1_655 S
Cl741  C582    1.769   1_655 S
Cl744  C580    1.774   1_655 S
C745   C756    1.450   .     S
C745   O797    1.291   .     A
C745   O857    1.291   .     S
C746   C755    1.450   .     S
C746   O798    1.291   .     A
C746   O920    1.291   1_455 S
C747   H783    1.075   .     S
C747   C776    1.414   .     A
C747   C749    1.384   .     A
C748   C750    1.384   .     A
C748   C775    1.414   .     A
C748   H784    1.075   .     S
C749   H779    1.082   .     S
C750   H780    1.082   .     S
C750   C216    1.397   1_556 S
C751   C756    1.401   .     A
C751   H785    1.083   .     S
C752   H786    1.083   .     S
C752   C755    1.401   .     A
C752   C940    1.384   .     S
C753   H787    1.083   .     S
C753   C937    1.384   .     S
C753   C817    1.401   .     S
C754   H788    1.083   .     S
C754   C880    1.401   1_455 S
C755   C877    1.401   1_455 S
C756   C816    1.401   .     S
C757   C759    1.416   .     A
C757   H789    1.082   .     S
C757   N794    1.367   .     A
C758   H790    1.082   .     S
C758   C760    1.416   .     A
C758   N793    1.367   .     A
C759   H791    1.081   .     S
C759   N793    1.367   .     A
C760   H792    1.081   .     S
C760   N794    1.367   .     A
C761   C763    1.480   .     S
C761   O801    1.299   .     A
C761   O861    1.296   .     S
C762   C764    1.480   .     S
C762   O802    1.299   .     A
C762   O924    1.296   1_455 S
C763   C767    1.413   .     A
C763   C769    1.397   .     A
C764   C768    1.413   .     A
C764   C770    1.397   .     A
C765   C767    1.405   .     A
C765   C773    1.415   .     A
C765   Cl867   1.774   .     S
C766   C768    1.405   .     A
C766   C774    1.415   .     A
C766   Cl930   1.774   1_455 S
C767   Cl866   1.769   .     S
C768   Cl927   1.769   1_455 S
C769   H782    1.075   .     S
C769   C771    1.406   .     A
C770   H781    1.074   .     S
C770   C772    1.406   .     A
C771   C773    1.419   .     A
C771   C775    1.431   .     A
C772   C774    1.419   .     A
C772   C776    1.431   .     A
C773   C191    1.397   1_556 S
C775   C218    1.424   1_556 S
Cu777  O799    1.948   .     S
Cu777  O802    1.928   .     S
Cu777  N793    2.012   .     S
Cu777  O798    1.965   .     S
Cu777  O795    1.965   .     S
Cu777  Cu902   2.677   1_455 S
Cu778  O801    1.928   .     S
Cu778  O800    1.948   .     S
Cu778  N794    2.012   .     S
Cu778  O797    1.965   .     S
Cu778  O796    1.965   .     S
Cu778  Cu839   2.677   .     S
O795   C869    1.291   1_455 S
O796   C808    1.291   .     S
O799   C885    1.296   1_455 S
O800   C824    1.296   .     S
Cl803  C830    1.769   .     S
Cl804  C891    1.769   1_455 S
Cl805  C889    1.774   1_455 S
Cl806  C828    1.774   .     S
C807   C818    1.450   .     S
C807   O859    1.291   .     A
C807   O919    1.291   .     S
C808   C817    1.450   .     S
C808   O860    1.291   .     A
C809   H845    1.075   .     S
C809   C838    1.414   .     A
C809   C811    1.384   .     A
C810   C812    1.384   .     A
C810   C837    1.414   .     A
C810   H846    1.075   .     S
C811   H841    1.082   .     S
C812   H842    1.082   .     S
C812   C278    1.397   1_556 S
C813   C818    1.401   .     A
C813   H847    1.083   .     S
C814   H848    1.083   .     S
C814   C817    1.401   .     A
C814   C1002   1.384   .     S
C815   H849    1.083   .     S
C815   C999    1.384   .     S
C815   C879    1.401   .     S
C816   H850    1.083   .     S
C818   C878    1.401   .     S
C819   C821    1.416   .     A
C819   H851    1.082   .     S
C819   N856    1.367   .     A
C820   H852    1.082   .     S
C820   C822    1.416   .     A
C820   N855    1.367   .     A
C821   H853    1.081   .     S
C821   N855    1.367   .     A
C822   H854    1.081   .     S
C822   N856    1.367   .     A
C823   C825    1.480   .     S
C823   O863    1.299   .     A
C823   O923    1.296   .     S
C824   C826    1.480   .     S
C824   O864    1.299   .     A
C825   C829    1.413   .     A
C825   C831    1.397   .     A
C826   C830    1.413   .     A
C826   C832    1.397   .     A
C827   C829    1.405   .     A
C827   C835    1.415   .     A
C827   Cl929   1.774   .     S
C828   C830    1.405   .     A
C828   C836    1.415   .     A
C829   Cl928   1.769   .     S
C831   H844    1.075   .     S
C831   C833    1.406   .     A
C832   H843    1.074   .     S
C832   C834    1.406   .     A
C833   C835    1.419   .     A
C833   C837    1.431   .     A
C834   C836    1.419   .     A
C834   C838    1.431   .     A
C835   C253    1.397   1_556 S
C837   C280    1.424   1_556 S
Cu839  O861    1.948   .     S
Cu839  O864    1.928   .     S
Cu839  N855    2.012   .     S
Cu839  O860    1.965   .     S
Cu839  O857    1.965   .     S
Cu840  O863    1.928   .     S
Cu840  O862    1.948   .     S
Cu840  N856    2.012   .     S
Cu840  O859    1.965   .     S
Cu840  O858    1.965   .     S
Cu840  Cu901   2.677   .     S
O858   C870    1.291   .     S
O862   C886    1.296   .     S
Cl865  C892    1.769   .     S
Cl868  C890    1.774   .     S
C869   C880    1.450   .     S
C869   O921    1.291   .     A
C869   O795    1.291   1_655 S
C870   C879    1.450   .     S
C870   O922    1.291   .     A
C871   H907    1.075   .     S
C871   C900    1.414   .     A
C871   C873    1.384   .     A
C872   C874    1.384   .     A
C872   C899    1.414   .     A
C872   H908    1.075   .     S
C873   H903    1.082   .     S
C874   H904    1.082   .     S
C874   C340    1.397   1_556 S
C875   C880    1.401   .     A
C875   H909    1.083   .     S
C876   H910    1.083   .     S
C876   C879    1.401   .     A
C876   C1064   1.384   .     S
C877   H911    1.083   .     S
C877   C1061   1.384   .     S
C877   C755    1.401   1_655 S
C878   H912    1.083   .     S
C880   C754    1.401   1_655 S
C881   C883    1.416   .     A
C881   H913    1.082   .     S
C881   N918    1.367   .     A
C882   H914    1.082   .     S
C882   C884    1.416   .     A
C882   N917    1.367   .     A
C883   H915    1.081   .     S
C883   N917    1.367   .     A
C884   H916    1.081   .     S
C884   N918    1.367   .     A
C885   C887    1.480   .     S
C885   O925    1.299   .     A
C885   O799    1.296   1_655 S
C886   C888    1.480   .     S
C886   O926    1.299   .     A
C887   C891    1.413   .     A
C887   C893    1.397   .     A
C888   C892    1.413   .     A
C888   C894    1.397   .     A
C889   C891    1.405   .     A
C889   C897    1.415   .     A
C889   Cl805   1.774   1_655 S
C890   C892    1.405   .     A
C890   C898    1.415   .     A
C891   Cl804   1.769   1_655 S
C893   H906    1.075   .     S
C893   C895    1.406   .     A
C894   H905    1.074   .     S
C894   C896    1.406   .     A
C895   C897    1.419   .     A
C895   C899    1.431   .     A
C896   C898    1.419   .     A
C896   C900    1.431   .     A
C897   C315    1.397   1_556 S
C899   C342    1.424   1_556 S
Cu901  O923    1.948   .     S
Cu901  O926    1.928   .     S
Cu901  N917    2.012   .     S
Cu901  O922    1.965   .     S
Cu901  O919    1.965   .     S
Cu902  O925    1.928   .     S
Cu902  O924    1.948   .     S
Cu902  N918    2.012   .     S
Cu902  O921    1.965   .     S
Cu902  O920    1.965   .     S
Cu902  Cu777   2.677   1_655 S
O920   C746    1.291   1_655 S
O924   C762    1.296   1_655 S
Cl927  C768    1.769   1_655 S
Cl930  C766    1.774   1_655 S
C931   C942    1.450   .     S
C931   O983    1.291   .     A
C931   O1043   1.291   .     S
C932   C941    1.450   .     S
C932   O984    1.291   .     A
C932   O1106   1.291   1_455 S
C933   H969    1.075   .     S
C933   C962    1.414   .     A
C933   C935    1.384   .     A
C934   C936    1.384   .     A
C934   C961    1.414   .     A
C934   H970    1.075   .     S
C935   H965    1.082   .     S
C936   H966    1.082   .     S
C936   C402    1.397   1_556 S
C937   C942    1.401   .     A
C937   H971    1.083   .     S
C938   H972    1.083   .     S
C938   C941    1.401   .     A
C938   C568    1.384   1_565 S
C939   H973    1.083   .     S
C939   C565    1.384   1_565 S
C939   C1003   1.401   .     S
C940   H974    1.083   .     S
C940   C1066   1.401   1_455 S
C941   C1063   1.401   1_455 S
C942   C1002   1.401   .     S
C943   C945    1.416   .     A
C943   H975    1.082   .     S
C943   N980    1.367   .     A
C944   H976    1.082   .     S
C944   C946    1.416   .     A
C944   N979    1.367   .     A
C945   H977    1.081   .     S
C945   N979    1.367   .     A
C946   H978    1.081   .     S
C946   N980    1.367   .     A
C947   C949    1.480   .     S
C947   O987    1.299   .     A
C947   O1047   1.296   .     S
C948   C950    1.480   .     S
C948   O988    1.299   .     A
C948   O1110   1.296   1_455 S
C949   C953    1.413   .     A
C949   C955    1.397   .     A
C950   C954    1.413   .     A
C950   C956    1.397   .     A
C951   C953    1.405   .     A
C951   C959    1.415   .     A
C951   Cl1053  1.774   .     S
C952   C954    1.405   .     A
C952   C960    1.415   .     A
C952   Cl1116  1.774   1_455 S
C953   Cl1052  1.769   .     S
C954   Cl1113  1.769   1_455 S
C955   H968    1.075   .     S
C955   C957    1.406   .     A
C956   H967    1.074   .     S
C956   C958    1.406   .     A
C957   C959    1.419   .     A
C957   C961    1.431   .     A
C958   C960    1.419   .     A
C958   C962    1.431   .     A
C959   C377    1.397   1_556 S
C961   C404    1.424   1_556 S
Cu963  O985    1.948   .     S
Cu963  O988    1.928   .     S
Cu963  N979    2.012   .     S
Cu963  O984    1.965   .     S
Cu963  O981    1.965   .     S
Cu963  Cu1088  2.677   1_455 S
Cu964  O987    1.928   .     S
Cu964  O986    1.948   .     S
Cu964  N980    2.012   .     S
Cu964  O983    1.965   .     S
Cu964  O982    1.965   .     S
Cu964  Cu1025  2.677   .     S
O981   C1055   1.291   1_455 S
O982   C994    1.291   .     S
O985   C1071   1.296   1_455 S
O986   C1010   1.296   .     S
Cl989  C1016   1.769   .     S
Cl990  C1077   1.769   1_455 S
Cl991  C1075   1.774   1_455 S
Cl992  C1014   1.774   .     S
C993   C1004   1.450   .     S
C993   O1045   1.291   .     A
C993   O1105   1.291   .     S
C994   C1003   1.450   .     S
C994   O1046   1.291   .     A
C995   H1031   1.075   .     S
C995   C1024   1.414   .     A
C995   C997    1.384   .     A
C996   C998    1.384   .     A
C996   C1023   1.414   .     A
C996   H1032   1.075   .     S
C997   H1027   1.082   .     S
C998   H1028   1.082   .     S
C998   C464    1.397   1_556 S
C999   C1004   1.401   .     A
C999   H1033   1.083   .     S
C1000  H1034   1.083   .     S
C1000  C1003   1.401   .     A
C1000  C630    1.384   1_565 S
C1001  H1035   1.083   .     S
C1001  C627    1.384   1_565 S
C1001  C1065   1.401   .     S
C1002  H1036   1.083   .     S
C1004  C1064   1.401   .     S
C1005  C1007   1.416   .     A
C1005  H1037   1.082   .     S
C1005  N1042   1.367   .     A
C1006  H1038   1.082   .     S
C1006  C1008   1.416   .     A
C1006  N1041   1.367   .     A
C1007  H1039   1.081   .     S
C1007  N1041   1.367   .     A
C1008  H1040   1.081   .     S
C1008  N1042   1.367   .     A
C1009  C1011   1.480   .     S
C1009  O1049   1.299   .     A
C1009  O1109   1.296   .     S
C1010  C1012   1.480   .     S
C1010  O1050   1.299   .     A
C1011  C1015   1.413   .     A
C1011  C1017   1.397   .     A
C1012  C1016   1.413   .     A
C1012  C1018   1.397   .     A
C1013  C1015   1.405   .     A
C1013  C1021   1.415   .     A
C1013  Cl1115  1.774   .     S
C1014  C1016   1.405   .     A
C1014  C1022   1.415   .     A
C1015  Cl1114  1.769   .     S
C1017  H1030   1.075   .     S
C1017  C1019   1.406   .     A
C1018  H1029   1.074   .     S
C1018  C1020   1.406   .     A
C1019  C1021   1.419   .     A
C1019  C1023   1.431   .     A
C1020  C1022   1.419   .     A
C1020  C1024   1.431   .     A
C1021  C439    1.397   1_556 S
C1023  C466    1.424   1_556 S
Cu1025 O1047   1.948   .     S
Cu1025 O1050   1.928   .     S
Cu1025 N1041   2.012   .     S
Cu1025 O1046   1.965   .     S
Cu1025 O1043   1.965   .     S
Cu1026 O1049   1.928   .     S
Cu1026 O1048   1.948   .     S
Cu1026 N1042   2.012   .     S
Cu1026 O1045   1.965   .     S
Cu1026 O1044   1.965   .     S
Cu1026 Cu1087  2.677   .     S
O1044  C1056   1.291   .     S
O1048  C1072   1.296   .     S
Cl1051 C1078   1.769   .     S
Cl1054 C1076   1.774   .     S
C1055  C1066   1.450   .     S
C1055  O1107   1.291   .     A
C1055  O981    1.291   1_655 S
C1056  C1065   1.450   .     S
C1056  O1108   1.291   .     A
C1057  H1093   1.075   .     S
C1057  C1086   1.414   .     A
C1057  C1059   1.384   .     A
C1058  C1060   1.384   .     A
C1058  C1085   1.414   .     A
C1058  H1094   1.075   .     S
C1059  H1089   1.082   .     S
C1060  H1090   1.082   .     S
C1060  C526    1.397   1_556 S
C1061  C1066   1.401   .     A
C1061  H1095   1.083   .     S
C1062  H1096   1.083   .     S
C1062  C1065   1.401   .     A
C1062  C692    1.384   1_565 S
C1063  H1097   1.083   .     S
C1063  C689    1.384   1_565 S
C1063  C941    1.401   1_655 S
C1064  H1098   1.083   .     S
C1066  C940    1.401   1_655 S
C1067  C1069   1.416   .     A
C1067  H1099   1.082   .     S
C1067  N1104   1.367   .     A
C1068  H1100   1.082   .     S
C1068  C1070   1.416   .     A
C1068  N1103   1.367   .     A
C1069  H1101   1.081   .     S
C1069  N1103   1.367   .     A
C1070  H1102   1.081   .     S
C1070  N1104   1.367   .     A
C1071  C1073   1.480   .     S
C1071  O1111   1.299   .     A
C1071  O985    1.296   1_655 S
C1072  C1074   1.480   .     S
C1072  O1112   1.299   .     A
C1073  C1077   1.413   .     A
C1073  C1079   1.397   .     A
C1074  C1078   1.413   .     A
C1074  C1080   1.397   .     A
C1075  C1077   1.405   .     A
C1075  C1083   1.415   .     A
C1075  Cl991   1.774   1_655 S
C1076  C1078   1.405   .     A
C1076  C1084   1.415   .     A
C1077  Cl990   1.769   1_655 S
C1079  H1092   1.075   .     S
C1079  C1081   1.406   .     A
C1080  H1091   1.074   .     S
C1080  C1082   1.406   .     A
C1081  C1083   1.419   .     A
C1081  C1085   1.431   .     A
C1082  C1084   1.419   .     A
C1082  C1086   1.431   .     A
C1083  C501    1.397   1_556 S
C1085  C528    1.424   1_556 S
Cu1087 O1109   1.948   .     S
Cu1087 O1112   1.928   .     S
Cu1087 N1103   2.012   .     S
Cu1087 O1108   1.965   .     S
Cu1087 O1105   1.965   .     S
Cu1088 O1111   1.928   .     S
Cu1088 O1110   1.948   .     S
Cu1088 N1104   2.012   .     S
Cu1088 O1107   1.965   .     S
Cu1088 O1106   1.965   .     S
Cu1088 Cu963   2.677   1_655 S
O1106  C932    1.291   1_655 S
O1110  C948    1.296   1_655 S
Cl1113 C954    1.769   1_655 S
Cl1116 C952    1.774   1_655 S
