data_str_m2_o2_o5_pcu_sym.127
_audit_creation_date              2020-01-03
_audit_creation_method            'Materials Studio'
_symmetry_space_group_name_H-M    'P1'
_symmetry_Int_Tables_number       1
_symmetry_cell_setting            triclinic
loop_
_symmetry_equiv_pos_as_xyz
  x,y,z
_cell_length_a                    30.2353
_cell_length_b                    27.8776
_cell_length_c                    27.3078
_cell_angle_alpha                 90.0886
_cell_angle_beta                  91.0590
_cell_angle_gamma                 90.3620
loop_
_atom_site_label
_atom_site_type_symbol
_atom_site_fract_x
_atom_site_fract_y
_atom_site_fract_z
_atom_site_U_iso_or_equiv
_atom_site_adp_type
_atom_site_occupancy
C1     C     0.16481   0.24974   0.16768   0.00000  Uiso   1.00
C2     C     0.33473   0.25016   0.16705   0.00000  Uiso   1.00
C3     C     0.27495   0.10506   0.20040   0.00000  Uiso   1.00
C4     C     0.21168   0.39587   0.15828   0.00000  Uiso   1.00
C5     C     0.22513   0.10468   0.13283   0.00000  Uiso   1.00
C6     C     0.28846   0.39648   0.17388   0.00000  Uiso   1.00
C7     C     0.27446   0.05450   0.20217   0.00000  Uiso   1.00
C8     C     0.21025   0.44631   0.16219   0.00000  Uiso   1.00
C9     C     0.22536   0.05413   0.13116   0.00000  Uiso   1.00
C10    C     0.28958   0.44701   0.17070   0.00000  Uiso   1.00
C11    C     0.25000   0.24998   0.07355   0.00000  Uiso   1.00
C12    C     0.25011   0.25003   0.25978   0.00000  Uiso   1.00
C13    C     0.24983   0.02776   0.16672   0.00000  Uiso   1.00
C14    C     0.24985   0.47323   0.16675   0.00000  Uiso   1.00
C15    C     0.25007   0.24997   0.02183   0.00000  Uiso   1.00
C16    C     0.25011   0.25004   0.31150   0.00000  Uiso   1.00
C17    C     0.04718   0.29023   0.18598   0.00000  Uiso   1.00
C18    C     0.45143   0.24040   0.12543   0.00000  Uiso   1.00
C19    C     0.45191   0.26099   0.21208   0.00000  Uiso   1.00
C20    C     0.04557   0.20822   0.15625   0.00000  Uiso   1.00
C21    C     0.09329   0.28960   0.18763   0.00000  Uiso   1.00
C22    C     0.40528   0.24025   0.12460   0.00000  Uiso   1.00
C23    C     0.40563   0.26290   0.21108   0.00000  Uiso   1.00
C24    C     0.09179   0.20712   0.15705   0.00000  Uiso   1.00
C25    C     0.11611   0.24889   0.17050   0.00000  Uiso   1.00
C26    C     0.38262   0.25072   0.16768   0.00000  Uiso   1.00
C27    C     0.02328   0.24972   0.17028   0.00000  Uiso   1.00
C28    C     0.47481   0.25058   0.16915   0.00000  Uiso   1.00
Cu29   Cu    0.25000   0.29821   0.16667   0.00000  Uiso   1.00
Cu30   Cu    0.25000   0.20178   0.16667   0.00000  Uiso   1.00
N31    N     0.25000   0.12934   0.16667   0.00000  Uiso   1.00
N32    N     0.25000   0.37065   0.16667   0.00000  Uiso   1.00
O33    O     0.18573   0.29071   0.16667   0.00000  Uiso   1.00
O34    O     0.31427   0.20928   0.16666   0.00000  Uiso   1.00
O35    O     0.31427   0.29071   0.16666   0.00000  Uiso   1.00
O36    O     0.18573   0.20928   0.16667   0.00000  Uiso   1.00
O37    O     0.25000   0.29071   0.09613   0.00000  Uiso   1.00
O38    O     0.25000   0.20929   0.23720   0.00000  Uiso   1.00
O39    O     0.25000   0.29071   0.23720   0.00000  Uiso   1.00
O40    O     0.25000   0.20929   0.09613   0.00000  Uiso   1.00
F41    F     0.30036   0.12979   0.23328   0.00000  Uiso   1.00
F42    F     0.17382   0.37333   0.14447   0.00000  Uiso   1.00
F43    F     0.20013   0.12904   0.09963   0.00000  Uiso   1.00
F44    F     0.32724   0.37435   0.18334   0.00000  Uiso   1.00
F45    F     0.02578   0.33081   0.19928   0.00000  Uiso   1.00
F46    F     0.47335   0.23074   0.08360   0.00000  Uiso   1.00
F47    F     0.47448   0.26738   0.25511   0.00000  Uiso   1.00
F48    F     0.02241   0.16860   0.14167   0.00000  Uiso   1.00
O49    O     0.11568   0.32980   0.20470   0.00000  Uiso   1.00
C50    C     0.12344   0.32445   0.25548   0.00000  Uiso   1.00
H51    H     0.09181   0.32257   0.27564   0.00000  Uiso   1.00
H52    H     0.14208   0.35631   0.26911   0.00000  Uiso   1.00
H53    H     0.14396   0.29231   0.26366   0.00000  Uiso   1.00
O54    O     0.38233   0.22711   0.08236   0.00000  Uiso   1.00
C55    C     0.37541   0.26847   0.05368   0.00000  Uiso   1.00
H56    H     0.35570   0.29571   0.07344   0.00000  Uiso   1.00
H57    H     0.35626   0.25805   0.02027   0.00000  Uiso   1.00
H58    H     0.40732   0.28435   0.04187   0.00000  Uiso   1.00
O59    O     0.38221   0.27244   0.25311   0.00000  Uiso   1.00
C60    C     0.38997   0.32034   0.26803   0.00000  Uiso   1.00
H61    H     0.42048   0.32292   0.29111   0.00000  Uiso   1.00
H62    H     0.36194   0.33197   0.29076   0.00000  Uiso   1.00
H63    H     0.39209   0.34578   0.23672   0.00000  Uiso   1.00
O64    O     0.11290   0.16629   0.14092   0.00000  Uiso   1.00
C65    C     0.11363   0.13228   0.17920   0.00000  Uiso   1.00
H66    H     0.13089   0.14667   0.21253   0.00000  Uiso   1.00
H67    H     0.13216   0.10035   0.16696   0.00000  Uiso   1.00
H68    H     0.07974   0.11997   0.18839   0.00000  Uiso   1.00
O69    O     0.29959   0.03199   0.23795   0.00000  Uiso   1.00
C70    C     0.27235   0.02197   0.27792   0.00000  Uiso   1.00
H71    H     0.24805   0.49313   0.26867   0.00000  Uiso   1.00
H72    H     0.25499   0.05468   0.29068   0.00000  Uiso   1.00
H73    H     0.29346   0.00887   0.30867   0.00000  Uiso   1.00
O74    O     0.16968   0.46869   0.15862   0.00000  Uiso   1.00
C75    C     0.15385   0.47591   0.20627   0.00000  Uiso   1.00
H76    H     0.15086   0.44145   0.22656   0.00000  Uiso   1.00
H77    H     0.12034   0.49174   0.20337   0.00000  Uiso   1.00
H78    H     0.17520   0.00167   0.22715   0.00000  Uiso   1.00
O79    O     0.20020   0.03131   0.09531   0.00000  Uiso   1.00
C80    C     0.22753   0.02098   0.05557   0.00000  Uiso   1.00
H81    H     0.25094   0.49167   0.06487   0.00000  Uiso   1.00
H82    H     0.24591   0.05339   0.04323   0.00000  Uiso   1.00
H83    H     0.20635   0.00836   0.02449   0.00000  Uiso   1.00
O84    O     0.33010   0.47017   0.17340   0.00000  Uiso   1.00
C85    C     0.34532   0.47703   0.12543   0.00000  Uiso   1.00
H86    H     0.34787   0.44242   0.10526   0.00000  Uiso   1.00
H87    H     0.37895   0.49311   0.12767   0.00000  Uiso   1.00
H88    H     0.32382   0.00244   0.10477   0.00000  Uiso   1.00
C89    C     0.66481   0.24974   0.16768   0.00000  Uiso   1.00
C90    C     0.83473   0.25016   0.16705   0.00000  Uiso   1.00
C91    C     0.77495   0.10506   0.20040   0.00000  Uiso   1.00
C92    C     0.71168   0.39587   0.15828   0.00000  Uiso   1.00
C93    C     0.72513   0.10468   0.13283   0.00000  Uiso   1.00
C94    C     0.78846   0.39648   0.17388   0.00000  Uiso   1.00
C95    C     0.77446   0.05450   0.20217   0.00000  Uiso   1.00
C96    C     0.71025   0.44631   0.16219   0.00000  Uiso   1.00
C97    C     0.72536   0.05413   0.13116   0.00000  Uiso   1.00
C98    C     0.78958   0.44701   0.17070   0.00000  Uiso   1.00
C99    C     0.75000   0.24998   0.07355   0.00000  Uiso   1.00
C100   C     0.75011   0.25003   0.25978   0.00000  Uiso   1.00
C101   C     0.74983   0.02776   0.16672   0.00000  Uiso   1.00
C102   C     0.74985   0.47323   0.16675   0.00000  Uiso   1.00
C103   C     0.75007   0.24997   0.02183   0.00000  Uiso   1.00
C104   C     0.75011   0.25004   0.31150   0.00000  Uiso   1.00
C105   C     0.54718   0.29023   0.18598   0.00000  Uiso   1.00
C106   C     0.95143   0.24040   0.12543   0.00000  Uiso   1.00
C107   C     0.95191   0.26099   0.21208   0.00000  Uiso   1.00
C108   C     0.54557   0.20822   0.15625   0.00000  Uiso   1.00
C109   C     0.59329   0.28960   0.18763   0.00000  Uiso   1.00
C110   C     0.90528   0.24025   0.12460   0.00000  Uiso   1.00
C111   C     0.90563   0.26290   0.21108   0.00000  Uiso   1.00
C112   C     0.59179   0.20712   0.15705   0.00000  Uiso   1.00
C113   C     0.61611   0.24889   0.17050   0.00000  Uiso   1.00
C114   C     0.88262   0.25072   0.16768   0.00000  Uiso   1.00
C115   C     0.52328   0.24972   0.17028   0.00000  Uiso   1.00
C116   C     0.97481   0.25058   0.16915   0.00000  Uiso   1.00
Cu117  Cu    0.75000   0.29821   0.16667   0.00000  Uiso   1.00
Cu118  Cu    0.75000   0.20178   0.16667   0.00000  Uiso   1.00
N119   N     0.75000   0.12934   0.16667   0.00000  Uiso   1.00
N120   N     0.75000   0.37065   0.16667   0.00000  Uiso   1.00
O121   O     0.68573   0.29071   0.16667   0.00000  Uiso   1.00
O122   O     0.81427   0.20928   0.16666   0.00000  Uiso   1.00
O123   O     0.81427   0.29071   0.16666   0.00000  Uiso   1.00
O124   O     0.68573   0.20928   0.16667   0.00000  Uiso   1.00
O125   O     0.75000   0.29071   0.09613   0.00000  Uiso   1.00
O126   O     0.75000   0.20929   0.23720   0.00000  Uiso   1.00
O127   O     0.75000   0.29071   0.23720   0.00000  Uiso   1.00
O128   O     0.75000   0.20929   0.09613   0.00000  Uiso   1.00
F129   F     0.80036   0.12979   0.23328   0.00000  Uiso   1.00
F130   F     0.67382   0.37333   0.14447   0.00000  Uiso   1.00
F131   F     0.70013   0.12904   0.09963   0.00000  Uiso   1.00
F132   F     0.82724   0.37435   0.18334   0.00000  Uiso   1.00
F133   F     0.52578   0.33081   0.19928   0.00000  Uiso   1.00
F134   F     0.97335   0.23074   0.08360   0.00000  Uiso   1.00
F135   F     0.97448   0.26738   0.25511   0.00000  Uiso   1.00
F136   F     0.52241   0.16860   0.14167   0.00000  Uiso   1.00
O137   O     0.61568   0.32980   0.20470   0.00000  Uiso   1.00
C138   C     0.62344   0.32445   0.25548   0.00000  Uiso   1.00
H139   H     0.59181   0.32257   0.27564   0.00000  Uiso   1.00
H140   H     0.64208   0.35631   0.26911   0.00000  Uiso   1.00
H141   H     0.64396   0.29231   0.26366   0.00000  Uiso   1.00
O142   O     0.88233   0.22711   0.08236   0.00000  Uiso   1.00
C143   C     0.87541   0.26847   0.05368   0.00000  Uiso   1.00
H144   H     0.85570   0.29571   0.07344   0.00000  Uiso   1.00
H145   H     0.85626   0.25805   0.02027   0.00000  Uiso   1.00
H146   H     0.90732   0.28435   0.04187   0.00000  Uiso   1.00
O147   O     0.88221   0.27244   0.25311   0.00000  Uiso   1.00
C148   C     0.88997   0.32034   0.26803   0.00000  Uiso   1.00
H149   H     0.92048   0.32292   0.29111   0.00000  Uiso   1.00
H150   H     0.86194   0.33197   0.29076   0.00000  Uiso   1.00
H151   H     0.89209   0.34578   0.23672   0.00000  Uiso   1.00
O152   O     0.61290   0.16629   0.14092   0.00000  Uiso   1.00
C153   C     0.61363   0.13228   0.17920   0.00000  Uiso   1.00
H154   H     0.63089   0.14667   0.21253   0.00000  Uiso   1.00
H155   H     0.63216   0.10035   0.16696   0.00000  Uiso   1.00
H156   H     0.57974   0.11997   0.18839   0.00000  Uiso   1.00
O157   O     0.79959   0.03199   0.23795   0.00000  Uiso   1.00
C158   C     0.77235   0.02197   0.27792   0.00000  Uiso   1.00
H159   H     0.74805   0.49313   0.26867   0.00000  Uiso   1.00
H160   H     0.75499   0.05468   0.29068   0.00000  Uiso   1.00
H161   H     0.79346   0.00887   0.30867   0.00000  Uiso   1.00
O162   O     0.66968   0.46869   0.15862   0.00000  Uiso   1.00
C163   C     0.65385   0.47591   0.20627   0.00000  Uiso   1.00
H164   H     0.65086   0.44145   0.22656   0.00000  Uiso   1.00
H165   H     0.62034   0.49174   0.20337   0.00000  Uiso   1.00
H166   H     0.67520   0.00167   0.22715   0.00000  Uiso   1.00
O167   O     0.70020   0.03131   0.09531   0.00000  Uiso   1.00
C168   C     0.72753   0.02098   0.05557   0.00000  Uiso   1.00
H169   H     0.75094   0.49167   0.06487   0.00000  Uiso   1.00
H170   H     0.74591   0.05339   0.04323   0.00000  Uiso   1.00
H171   H     0.70635   0.00836   0.02449   0.00000  Uiso   1.00
O172   O     0.83010   0.47017   0.17340   0.00000  Uiso   1.00
C173   C     0.84532   0.47703   0.12543   0.00000  Uiso   1.00
H174   H     0.84787   0.44242   0.10526   0.00000  Uiso   1.00
H175   H     0.87895   0.49311   0.12767   0.00000  Uiso   1.00
H176   H     0.82382   0.00244   0.10477   0.00000  Uiso   1.00
C177   C     0.16481   0.74974   0.16768   0.00000  Uiso   1.00
C178   C     0.33473   0.75016   0.16705   0.00000  Uiso   1.00
C179   C     0.27495   0.60506   0.20040   0.00000  Uiso   1.00
C180   C     0.21168   0.89587   0.15828   0.00000  Uiso   1.00
C181   C     0.22513   0.60468   0.13283   0.00000  Uiso   1.00
C182   C     0.28846   0.89648   0.17388   0.00000  Uiso   1.00
C183   C     0.27446   0.55450   0.20217   0.00000  Uiso   1.00
C184   C     0.21025   0.94631   0.16219   0.00000  Uiso   1.00
C185   C     0.22536   0.55413   0.13116   0.00000  Uiso   1.00
C186   C     0.28958   0.94701   0.17070   0.00000  Uiso   1.00
C187   C     0.25000   0.74998   0.07355   0.00000  Uiso   1.00
C188   C     0.25011   0.75003   0.25978   0.00000  Uiso   1.00
C189   C     0.24983   0.52776   0.16672   0.00000  Uiso   1.00
C190   C     0.24985   0.97323   0.16675   0.00000  Uiso   1.00
C191   C     0.25007   0.74997   0.02183   0.00000  Uiso   1.00
C192   C     0.25011   0.75004   0.31150   0.00000  Uiso   1.00
C193   C     0.04718   0.79023   0.18598   0.00000  Uiso   1.00
C194   C     0.45143   0.74040   0.12543   0.00000  Uiso   1.00
C195   C     0.45191   0.76099   0.21208   0.00000  Uiso   1.00
C196   C     0.04557   0.70822   0.15625   0.00000  Uiso   1.00
C197   C     0.09329   0.78960   0.18763   0.00000  Uiso   1.00
C198   C     0.40528   0.74025   0.12460   0.00000  Uiso   1.00
C199   C     0.40563   0.76290   0.21108   0.00000  Uiso   1.00
C200   C     0.09179   0.70712   0.15705   0.00000  Uiso   1.00
C201   C     0.11611   0.74889   0.17050   0.00000  Uiso   1.00
C202   C     0.38262   0.75072   0.16768   0.00000  Uiso   1.00
C203   C     0.02328   0.74972   0.17028   0.00000  Uiso   1.00
C204   C     0.47481   0.75058   0.16915   0.00000  Uiso   1.00
Cu205  Cu    0.25000   0.79821   0.16667   0.00000  Uiso   1.00
Cu206  Cu    0.25000   0.70178   0.16667   0.00000  Uiso   1.00
N207   N     0.25000   0.62934   0.16667   0.00000  Uiso   1.00
N208   N     0.25000   0.87065   0.16667   0.00000  Uiso   1.00
O209   O     0.18573   0.79071   0.16667   0.00000  Uiso   1.00
O210   O     0.31427   0.70928   0.16666   0.00000  Uiso   1.00
O211   O     0.31427   0.79071   0.16666   0.00000  Uiso   1.00
O212   O     0.18573   0.70928   0.16667   0.00000  Uiso   1.00
O213   O     0.25000   0.79071   0.09613   0.00000  Uiso   1.00
O214   O     0.25000   0.70929   0.23720   0.00000  Uiso   1.00
O215   O     0.25000   0.79071   0.23720   0.00000  Uiso   1.00
O216   O     0.25000   0.70929   0.09613   0.00000  Uiso   1.00
F217   F     0.30036   0.62979   0.23328   0.00000  Uiso   1.00
F218   F     0.17382   0.87333   0.14447   0.00000  Uiso   1.00
F219   F     0.20013   0.62904   0.09963   0.00000  Uiso   1.00
F220   F     0.32724   0.87435   0.18334   0.00000  Uiso   1.00
F221   F     0.02578   0.83081   0.19928   0.00000  Uiso   1.00
F222   F     0.47335   0.73074   0.08360   0.00000  Uiso   1.00
F223   F     0.47448   0.76738   0.25511   0.00000  Uiso   1.00
F224   F     0.02241   0.66860   0.14167   0.00000  Uiso   1.00
O225   O     0.11568   0.82980   0.20470   0.00000  Uiso   1.00
C226   C     0.12344   0.82445   0.25548   0.00000  Uiso   1.00
H227   H     0.09181   0.82257   0.27564   0.00000  Uiso   1.00
H228   H     0.14208   0.85631   0.26911   0.00000  Uiso   1.00
H229   H     0.14396   0.79231   0.26366   0.00000  Uiso   1.00
O230   O     0.38233   0.72711   0.08236   0.00000  Uiso   1.00
C231   C     0.37541   0.76847   0.05368   0.00000  Uiso   1.00
H232   H     0.35570   0.79571   0.07344   0.00000  Uiso   1.00
H233   H     0.35626   0.75805   0.02027   0.00000  Uiso   1.00
H234   H     0.40732   0.78435   0.04187   0.00000  Uiso   1.00
O235   O     0.38221   0.77244   0.25311   0.00000  Uiso   1.00
C236   C     0.38997   0.82034   0.26803   0.00000  Uiso   1.00
H237   H     0.42048   0.82292   0.29111   0.00000  Uiso   1.00
H238   H     0.36194   0.83197   0.29076   0.00000  Uiso   1.00
H239   H     0.39209   0.84578   0.23672   0.00000  Uiso   1.00
O240   O     0.11290   0.66629   0.14092   0.00000  Uiso   1.00
C241   C     0.11363   0.63228   0.17920   0.00000  Uiso   1.00
H242   H     0.13089   0.64667   0.21253   0.00000  Uiso   1.00
H243   H     0.13216   0.60035   0.16696   0.00000  Uiso   1.00
H244   H     0.07974   0.61997   0.18839   0.00000  Uiso   1.00
O245   O     0.29959   0.53199   0.23795   0.00000  Uiso   1.00
C246   C     0.27235   0.52197   0.27792   0.00000  Uiso   1.00
H247   H     0.24805   0.99313   0.26867   0.00000  Uiso   1.00
H248   H     0.25499   0.55468   0.29068   0.00000  Uiso   1.00
H249   H     0.29346   0.50887   0.30867   0.00000  Uiso   1.00
O250   O     0.16968   0.96869   0.15862   0.00000  Uiso   1.00
C251   C     0.15385   0.97591   0.20627   0.00000  Uiso   1.00
H252   H     0.15086   0.94145   0.22656   0.00000  Uiso   1.00
H253   H     0.12034   0.99174   0.20337   0.00000  Uiso   1.00
H254   H     0.17520   0.50167   0.22715   0.00000  Uiso   1.00
O255   O     0.20020   0.53131   0.09531   0.00000  Uiso   1.00
C256   C     0.22753   0.52098   0.05557   0.00000  Uiso   1.00
H257   H     0.25094   0.99167   0.06487   0.00000  Uiso   1.00
H258   H     0.24591   0.55339   0.04323   0.00000  Uiso   1.00
H259   H     0.20635   0.50836   0.02449   0.00000  Uiso   1.00
O260   O     0.33010   0.97017   0.17340   0.00000  Uiso   1.00
C261   C     0.34532   0.97703   0.12543   0.00000  Uiso   1.00
H262   H     0.34787   0.94242   0.10526   0.00000  Uiso   1.00
H263   H     0.37895   0.99311   0.12767   0.00000  Uiso   1.00
H264   H     0.32382   0.50244   0.10477   0.00000  Uiso   1.00
C265   C     0.66481   0.74974   0.16768   0.00000  Uiso   1.00
C266   C     0.83473   0.75016   0.16705   0.00000  Uiso   1.00
C267   C     0.77495   0.60506   0.20040   0.00000  Uiso   1.00
C268   C     0.71168   0.89587   0.15828   0.00000  Uiso   1.00
C269   C     0.72513   0.60468   0.13283   0.00000  Uiso   1.00
C270   C     0.78846   0.89648   0.17388   0.00000  Uiso   1.00
C271   C     0.77446   0.55450   0.20217   0.00000  Uiso   1.00
C272   C     0.71025   0.94631   0.16219   0.00000  Uiso   1.00
C273   C     0.72536   0.55413   0.13116   0.00000  Uiso   1.00
C274   C     0.78958   0.94701   0.17070   0.00000  Uiso   1.00
C275   C     0.75000   0.74998   0.07355   0.00000  Uiso   1.00
C276   C     0.75011   0.75003   0.25978   0.00000  Uiso   1.00
C277   C     0.74983   0.52776   0.16672   0.00000  Uiso   1.00
C278   C     0.74985   0.97323   0.16675   0.00000  Uiso   1.00
C279   C     0.75007   0.74997   0.02183   0.00000  Uiso   1.00
C280   C     0.75011   0.75004   0.31150   0.00000  Uiso   1.00
C281   C     0.54718   0.79023   0.18598   0.00000  Uiso   1.00
C282   C     0.95143   0.74040   0.12543   0.00000  Uiso   1.00
C283   C     0.95191   0.76099   0.21208   0.00000  Uiso   1.00
C284   C     0.54557   0.70822   0.15625   0.00000  Uiso   1.00
C285   C     0.59329   0.78960   0.18763   0.00000  Uiso   1.00
C286   C     0.90528   0.74025   0.12460   0.00000  Uiso   1.00
C287   C     0.90563   0.76290   0.21108   0.00000  Uiso   1.00
C288   C     0.59179   0.70712   0.15705   0.00000  Uiso   1.00
C289   C     0.61611   0.74889   0.17050   0.00000  Uiso   1.00
C290   C     0.88262   0.75072   0.16768   0.00000  Uiso   1.00
C291   C     0.52328   0.74972   0.17028   0.00000  Uiso   1.00
C292   C     0.97481   0.75058   0.16915   0.00000  Uiso   1.00
Cu293  Cu    0.75000   0.79821   0.16667   0.00000  Uiso   1.00
Cu294  Cu    0.75000   0.70178   0.16667   0.00000  Uiso   1.00
N295   N     0.75000   0.62934   0.16667   0.00000  Uiso   1.00
N296   N     0.75000   0.87065   0.16667   0.00000  Uiso   1.00
O297   O     0.68573   0.79071   0.16667   0.00000  Uiso   1.00
O298   O     0.81427   0.70928   0.16666   0.00000  Uiso   1.00
O299   O     0.81427   0.79071   0.16666   0.00000  Uiso   1.00
O300   O     0.68573   0.70928   0.16667   0.00000  Uiso   1.00
O301   O     0.75000   0.79071   0.09613   0.00000  Uiso   1.00
O302   O     0.75000   0.70929   0.23720   0.00000  Uiso   1.00
O303   O     0.75000   0.79071   0.23720   0.00000  Uiso   1.00
O304   O     0.75000   0.70929   0.09613   0.00000  Uiso   1.00
F305   F     0.80036   0.62979   0.23328   0.00000  Uiso   1.00
F306   F     0.67382   0.87333   0.14447   0.00000  Uiso   1.00
F307   F     0.70013   0.62904   0.09963   0.00000  Uiso   1.00
F308   F     0.82724   0.87435   0.18334   0.00000  Uiso   1.00
F309   F     0.52578   0.83081   0.19928   0.00000  Uiso   1.00
F310   F     0.97335   0.73074   0.08360   0.00000  Uiso   1.00
F311   F     0.97448   0.76738   0.25511   0.00000  Uiso   1.00
F312   F     0.52241   0.66860   0.14167   0.00000  Uiso   1.00
O313   O     0.61568   0.82980   0.20470   0.00000  Uiso   1.00
C314   C     0.62344   0.82445   0.25548   0.00000  Uiso   1.00
H315   H     0.59181   0.82257   0.27564   0.00000  Uiso   1.00
H316   H     0.64208   0.85631   0.26911   0.00000  Uiso   1.00
H317   H     0.64396   0.79231   0.26366   0.00000  Uiso   1.00
O318   O     0.88233   0.72711   0.08236   0.00000  Uiso   1.00
C319   C     0.87541   0.76847   0.05368   0.00000  Uiso   1.00
H320   H     0.85570   0.79571   0.07344   0.00000  Uiso   1.00
H321   H     0.85626   0.75805   0.02027   0.00000  Uiso   1.00
H322   H     0.90732   0.78435   0.04187   0.00000  Uiso   1.00
O323   O     0.88221   0.77244   0.25311   0.00000  Uiso   1.00
C324   C     0.88997   0.82034   0.26803   0.00000  Uiso   1.00
H325   H     0.92048   0.82292   0.29111   0.00000  Uiso   1.00
H326   H     0.86194   0.83197   0.29076   0.00000  Uiso   1.00
H327   H     0.89209   0.84578   0.23672   0.00000  Uiso   1.00
O328   O     0.61290   0.66629   0.14092   0.00000  Uiso   1.00
C329   C     0.61363   0.63228   0.17920   0.00000  Uiso   1.00
H330   H     0.63089   0.64667   0.21253   0.00000  Uiso   1.00
H331   H     0.63216   0.60035   0.16696   0.00000  Uiso   1.00
H332   H     0.57974   0.61997   0.18839   0.00000  Uiso   1.00
O333   O     0.79959   0.53199   0.23795   0.00000  Uiso   1.00
C334   C     0.77235   0.52197   0.27792   0.00000  Uiso   1.00
H335   H     0.74805   0.99313   0.26867   0.00000  Uiso   1.00
H336   H     0.75499   0.55468   0.29068   0.00000  Uiso   1.00
H337   H     0.79346   0.50887   0.30867   0.00000  Uiso   1.00
O338   O     0.66968   0.96869   0.15862   0.00000  Uiso   1.00
C339   C     0.65385   0.97591   0.20627   0.00000  Uiso   1.00
H340   H     0.65086   0.94145   0.22656   0.00000  Uiso   1.00
H341   H     0.62034   0.99174   0.20337   0.00000  Uiso   1.00
H342   H     0.67520   0.50167   0.22715   0.00000  Uiso   1.00
O343   O     0.70020   0.53131   0.09531   0.00000  Uiso   1.00
C344   C     0.72753   0.52098   0.05557   0.00000  Uiso   1.00
H345   H     0.75094   0.99167   0.06487   0.00000  Uiso   1.00
H346   H     0.74591   0.55339   0.04323   0.00000  Uiso   1.00
H347   H     0.70635   0.50836   0.02449   0.00000  Uiso   1.00
O348   O     0.83010   0.97017   0.17340   0.00000  Uiso   1.00
C349   C     0.84532   0.97703   0.12543   0.00000  Uiso   1.00
H350   H     0.84787   0.94242   0.10526   0.00000  Uiso   1.00
H351   H     0.87895   0.99311   0.12767   0.00000  Uiso   1.00
H352   H     0.82382   0.50244   0.10477   0.00000  Uiso   1.00
C353   C     0.16481   0.24974   0.50102   0.00000  Uiso   1.00
C354   C     0.33473   0.25016   0.50038   0.00000  Uiso   1.00
C355   C     0.27495   0.10506   0.53373   0.00000  Uiso   1.00
C356   C     0.21168   0.39587   0.49162   0.00000  Uiso   1.00
C357   C     0.22513   0.10468   0.46616   0.00000  Uiso   1.00
C358   C     0.28846   0.39648   0.50721   0.00000  Uiso   1.00
C359   C     0.27446   0.05450   0.53551   0.00000  Uiso   1.00
C360   C     0.21025   0.44631   0.49552   0.00000  Uiso   1.00
C361   C     0.22536   0.05413   0.46449   0.00000  Uiso   1.00
C362   C     0.28958   0.44701   0.50403   0.00000  Uiso   1.00
C363   C     0.25000   0.24998   0.40688   0.00000  Uiso   1.00
C364   C     0.25011   0.25003   0.59312   0.00000  Uiso   1.00
C365   C     0.24983   0.02776   0.50005   0.00000  Uiso   1.00
C366   C     0.24985   0.47323   0.50008   0.00000  Uiso   1.00
C367   C     0.25007   0.24997   0.35517   0.00000  Uiso   1.00
C368   C     0.25011   0.25004   0.64483   0.00000  Uiso   1.00
C369   C     0.04718   0.29023   0.51931   0.00000  Uiso   1.00
C370   C     0.45143   0.24040   0.45877   0.00000  Uiso   1.00
C371   C     0.45191   0.26099   0.54542   0.00000  Uiso   1.00
C372   C     0.04557   0.20822   0.48958   0.00000  Uiso   1.00
C373   C     0.09329   0.28960   0.52096   0.00000  Uiso   1.00
C374   C     0.40528   0.24025   0.45793   0.00000  Uiso   1.00
C375   C     0.40563   0.26290   0.54442   0.00000  Uiso   1.00
C376   C     0.09179   0.20712   0.49038   0.00000  Uiso   1.00
C377   C     0.11611   0.24889   0.50383   0.00000  Uiso   1.00
C378   C     0.38262   0.25072   0.50101   0.00000  Uiso   1.00
C379   C     0.02328   0.24972   0.50362   0.00000  Uiso   1.00
C380   C     0.47481   0.25058   0.50249   0.00000  Uiso   1.00
Cu381  Cu    0.25000   0.29821   0.50000   0.00000  Uiso   1.00
Cu382  Cu    0.25000   0.20178   0.50000   0.00000  Uiso   1.00
N383   N     0.25000   0.12934   0.50000   0.00000  Uiso   1.00
N384   N     0.25000   0.37065   0.50000   0.00000  Uiso   1.00
O385   O     0.18573   0.29071   0.50000   0.00000  Uiso   1.00
O386   O     0.31427   0.20928   0.50000   0.00000  Uiso   1.00
O387   O     0.31427   0.29071   0.50000   0.00000  Uiso   1.00
O388   O     0.18573   0.20928   0.50000   0.00000  Uiso   1.00
O389   O     0.25000   0.29071   0.42946   0.00000  Uiso   1.00
O390   O     0.25000   0.20929   0.57054   0.00000  Uiso   1.00
O391   O     0.25000   0.29071   0.57054   0.00000  Uiso   1.00
O392   O     0.25000   0.20929   0.42946   0.00000  Uiso   1.00
F393   F     0.30036   0.12979   0.56661   0.00000  Uiso   1.00
F394   F     0.17382   0.37333   0.47780   0.00000  Uiso   1.00
F395   F     0.20013   0.12904   0.43296   0.00000  Uiso   1.00
F396   F     0.32724   0.37435   0.51667   0.00000  Uiso   1.00
F397   F     0.02578   0.33081   0.53262   0.00000  Uiso   1.00
F398   F     0.47335   0.23074   0.41693   0.00000  Uiso   1.00
F399   F     0.47448   0.26738   0.58844   0.00000  Uiso   1.00
F400   F     0.02241   0.16860   0.47501   0.00000  Uiso   1.00
O401   O     0.11568   0.32980   0.53804   0.00000  Uiso   1.00
C402   C     0.12344   0.32445   0.58881   0.00000  Uiso   1.00
H403   H     0.09181   0.32257   0.60898   0.00000  Uiso   1.00
H404   H     0.14208   0.35631   0.60245   0.00000  Uiso   1.00
H405   H     0.14396   0.29231   0.59700   0.00000  Uiso   1.00
O406   O     0.38233   0.22711   0.41570   0.00000  Uiso   1.00
C407   C     0.37541   0.26847   0.38702   0.00000  Uiso   1.00
H408   H     0.35570   0.29571   0.40677   0.00000  Uiso   1.00
H409   H     0.35626   0.25805   0.35360   0.00000  Uiso   1.00
H410   H     0.40732   0.28435   0.37521   0.00000  Uiso   1.00
O411   O     0.38221   0.27244   0.58644   0.00000  Uiso   1.00
C412   C     0.38997   0.32034   0.60136   0.00000  Uiso   1.00
H413   H     0.42048   0.32292   0.62444   0.00000  Uiso   1.00
H414   H     0.36194   0.33197   0.62409   0.00000  Uiso   1.00
H415   H     0.39209   0.34578   0.57005   0.00000  Uiso   1.00
O416   O     0.11290   0.16629   0.47425   0.00000  Uiso   1.00
C417   C     0.11363   0.13228   0.51253   0.00000  Uiso   1.00
H418   H     0.13089   0.14667   0.54586   0.00000  Uiso   1.00
H419   H     0.13216   0.10035   0.50030   0.00000  Uiso   1.00
H420   H     0.07974   0.11997   0.52172   0.00000  Uiso   1.00
O421   O     0.29959   0.03199   0.57128   0.00000  Uiso   1.00
C422   C     0.27235   0.02197   0.61125   0.00000  Uiso   1.00
H423   H     0.24805   0.49313   0.60201   0.00000  Uiso   1.00
H424   H     0.25499   0.05468   0.62401   0.00000  Uiso   1.00
H425   H     0.29346   0.00887   0.64200   0.00000  Uiso   1.00
O426   O     0.16968   0.46869   0.49196   0.00000  Uiso   1.00
C427   C     0.15385   0.47591   0.53961   0.00000  Uiso   1.00
H428   H     0.15086   0.44145   0.55990   0.00000  Uiso   1.00
H429   H     0.12034   0.49174   0.53670   0.00000  Uiso   1.00
H430   H     0.17520   0.00167   0.56048   0.00000  Uiso   1.00
O431   O     0.20020   0.03131   0.42865   0.00000  Uiso   1.00
C432   C     0.22753   0.02098   0.38890   0.00000  Uiso   1.00
H433   H     0.25094   0.49167   0.39820   0.00000  Uiso   1.00
H434   H     0.24591   0.05339   0.37656   0.00000  Uiso   1.00
H435   H     0.20635   0.00836   0.35783   0.00000  Uiso   1.00
O436   O     0.33010   0.47017   0.50674   0.00000  Uiso   1.00
C437   C     0.34532   0.47703   0.45876   0.00000  Uiso   1.00
H438   H     0.34787   0.44242   0.43860   0.00000  Uiso   1.00
H439   H     0.37895   0.49311   0.46100   0.00000  Uiso   1.00
H440   H     0.32382   0.00244   0.43810   0.00000  Uiso   1.00
C441   C     0.66481   0.24974   0.50102   0.00000  Uiso   1.00
C442   C     0.83473   0.25016   0.50038   0.00000  Uiso   1.00
C443   C     0.77495   0.10506   0.53373   0.00000  Uiso   1.00
C444   C     0.71168   0.39587   0.49162   0.00000  Uiso   1.00
C445   C     0.72513   0.10468   0.46616   0.00000  Uiso   1.00
C446   C     0.78846   0.39648   0.50721   0.00000  Uiso   1.00
C447   C     0.77446   0.05450   0.53551   0.00000  Uiso   1.00
C448   C     0.71025   0.44631   0.49552   0.00000  Uiso   1.00
C449   C     0.72536   0.05413   0.46449   0.00000  Uiso   1.00
C450   C     0.78958   0.44701   0.50403   0.00000  Uiso   1.00
C451   C     0.75000   0.24998   0.40688   0.00000  Uiso   1.00
C452   C     0.75011   0.25003   0.59312   0.00000  Uiso   1.00
C453   C     0.74983   0.02776   0.50005   0.00000  Uiso   1.00
C454   C     0.74985   0.47323   0.50008   0.00000  Uiso   1.00
C455   C     0.75007   0.24997   0.35517   0.00000  Uiso   1.00
C456   C     0.75011   0.25004   0.64483   0.00000  Uiso   1.00
C457   C     0.54718   0.29023   0.51931   0.00000  Uiso   1.00
C458   C     0.95143   0.24040   0.45877   0.00000  Uiso   1.00
C459   C     0.95191   0.26099   0.54542   0.00000  Uiso   1.00
C460   C     0.54557   0.20822   0.48958   0.00000  Uiso   1.00
C461   C     0.59329   0.28960   0.52096   0.00000  Uiso   1.00
C462   C     0.90528   0.24025   0.45793   0.00000  Uiso   1.00
C463   C     0.90563   0.26290   0.54442   0.00000  Uiso   1.00
C464   C     0.59179   0.20712   0.49038   0.00000  Uiso   1.00
C465   C     0.61611   0.24889   0.50383   0.00000  Uiso   1.00
C466   C     0.88262   0.25072   0.50101   0.00000  Uiso   1.00
C467   C     0.52328   0.24972   0.50362   0.00000  Uiso   1.00
C468   C     0.97481   0.25058   0.50249   0.00000  Uiso   1.00
Cu469  Cu    0.75000   0.29821   0.50000   0.00000  Uiso   1.00
Cu470  Cu    0.75000   0.20178   0.50000   0.00000  Uiso   1.00
N471   N     0.75000   0.12934   0.50000   0.00000  Uiso   1.00
N472   N     0.75000   0.37065   0.50000   0.00000  Uiso   1.00
O473   O     0.68573   0.29071   0.50000   0.00000  Uiso   1.00
O474   O     0.81427   0.20928   0.50000   0.00000  Uiso   1.00
O475   O     0.81427   0.29071   0.50000   0.00000  Uiso   1.00
O476   O     0.68573   0.20928   0.50000   0.00000  Uiso   1.00
O477   O     0.75000   0.29071   0.42946   0.00000  Uiso   1.00
O478   O     0.75000   0.20929   0.57054   0.00000  Uiso   1.00
O479   O     0.75000   0.29071   0.57054   0.00000  Uiso   1.00
O480   O     0.75000   0.20929   0.42946   0.00000  Uiso   1.00
F481   F     0.80036   0.12979   0.56661   0.00000  Uiso   1.00
F482   F     0.67382   0.37333   0.47780   0.00000  Uiso   1.00
F483   F     0.70013   0.12904   0.43296   0.00000  Uiso   1.00
F484   F     0.82724   0.37435   0.51667   0.00000  Uiso   1.00
F485   F     0.52578   0.33081   0.53262   0.00000  Uiso   1.00
F486   F     0.97335   0.23074   0.41693   0.00000  Uiso   1.00
F487   F     0.97448   0.26738   0.58844   0.00000  Uiso   1.00
F488   F     0.52241   0.16860   0.47501   0.00000  Uiso   1.00
O489   O     0.61568   0.32980   0.53804   0.00000  Uiso   1.00
C490   C     0.62344   0.32445   0.58881   0.00000  Uiso   1.00
H491   H     0.59181   0.32257   0.60898   0.00000  Uiso   1.00
H492   H     0.64208   0.35631   0.60245   0.00000  Uiso   1.00
H493   H     0.64396   0.29231   0.59700   0.00000  Uiso   1.00
O494   O     0.88233   0.22711   0.41570   0.00000  Uiso   1.00
C495   C     0.87541   0.26847   0.38702   0.00000  Uiso   1.00
H496   H     0.85570   0.29571   0.40677   0.00000  Uiso   1.00
H497   H     0.85626   0.25805   0.35360   0.00000  Uiso   1.00
H498   H     0.90732   0.28435   0.37521   0.00000  Uiso   1.00
O499   O     0.88221   0.27244   0.58644   0.00000  Uiso   1.00
C500   C     0.88997   0.32034   0.60136   0.00000  Uiso   1.00
H501   H     0.92048   0.32292   0.62444   0.00000  Uiso   1.00
H502   H     0.86194   0.33197   0.62409   0.00000  Uiso   1.00
H503   H     0.89209   0.34578   0.57005   0.00000  Uiso   1.00
O504   O     0.61290   0.16629   0.47425   0.00000  Uiso   1.00
C505   C     0.61363   0.13228   0.51253   0.00000  Uiso   1.00
H506   H     0.63089   0.14667   0.54586   0.00000  Uiso   1.00
H507   H     0.63216   0.10035   0.50030   0.00000  Uiso   1.00
H508   H     0.57974   0.11997   0.52172   0.00000  Uiso   1.00
O509   O     0.79959   0.03199   0.57128   0.00000  Uiso   1.00
C510   C     0.77235   0.02197   0.61125   0.00000  Uiso   1.00
H511   H     0.74805   0.49313   0.60201   0.00000  Uiso   1.00
H512   H     0.75499   0.05468   0.62401   0.00000  Uiso   1.00
H513   H     0.79346   0.00887   0.64200   0.00000  Uiso   1.00
O514   O     0.66968   0.46869   0.49196   0.00000  Uiso   1.00
C515   C     0.65385   0.47591   0.53961   0.00000  Uiso   1.00
H516   H     0.65086   0.44145   0.55990   0.00000  Uiso   1.00
H517   H     0.62034   0.49174   0.53670   0.00000  Uiso   1.00
H518   H     0.67520   0.00167   0.56048   0.00000  Uiso   1.00
O519   O     0.70020   0.03131   0.42865   0.00000  Uiso   1.00
C520   C     0.72753   0.02098   0.38890   0.00000  Uiso   1.00
H521   H     0.75094   0.49167   0.39820   0.00000  Uiso   1.00
H522   H     0.74591   0.05339   0.37656   0.00000  Uiso   1.00
H523   H     0.70635   0.00836   0.35783   0.00000  Uiso   1.00
O524   O     0.83010   0.47017   0.50674   0.00000  Uiso   1.00
C525   C     0.84532   0.47703   0.45876   0.00000  Uiso   1.00
H526   H     0.84787   0.44242   0.43860   0.00000  Uiso   1.00
H527   H     0.87895   0.49311   0.46100   0.00000  Uiso   1.00
H528   H     0.82382   0.00244   0.43810   0.00000  Uiso   1.00
C529   C     0.16481   0.74974   0.50102   0.00000  Uiso   1.00
C530   C     0.33473   0.75016   0.50038   0.00000  Uiso   1.00
C531   C     0.27495   0.60506   0.53373   0.00000  Uiso   1.00
C532   C     0.21168   0.89587   0.49162   0.00000  Uiso   1.00
C533   C     0.22513   0.60468   0.46616   0.00000  Uiso   1.00
C534   C     0.28846   0.89648   0.50721   0.00000  Uiso   1.00
C535   C     0.27446   0.55450   0.53551   0.00000  Uiso   1.00
C536   C     0.21025   0.94631   0.49552   0.00000  Uiso   1.00
C537   C     0.22536   0.55413   0.46449   0.00000  Uiso   1.00
C538   C     0.28958   0.94701   0.50403   0.00000  Uiso   1.00
C539   C     0.25000   0.74998   0.40688   0.00000  Uiso   1.00
C540   C     0.25011   0.75003   0.59312   0.00000  Uiso   1.00
C541   C     0.24983   0.52776   0.50005   0.00000  Uiso   1.00
C542   C     0.24985   0.97323   0.50008   0.00000  Uiso   1.00
C543   C     0.25007   0.74997   0.35517   0.00000  Uiso   1.00
C544   C     0.25011   0.75004   0.64483   0.00000  Uiso   1.00
C545   C     0.04718   0.79023   0.51931   0.00000  Uiso   1.00
C546   C     0.45143   0.74040   0.45877   0.00000  Uiso   1.00
C547   C     0.45191   0.76099   0.54542   0.00000  Uiso   1.00
C548   C     0.04557   0.70822   0.48958   0.00000  Uiso   1.00
C549   C     0.09329   0.78960   0.52096   0.00000  Uiso   1.00
C550   C     0.40528   0.74025   0.45793   0.00000  Uiso   1.00
C551   C     0.40563   0.76290   0.54442   0.00000  Uiso   1.00
C552   C     0.09179   0.70712   0.49038   0.00000  Uiso   1.00
C553   C     0.11611   0.74889   0.50383   0.00000  Uiso   1.00
C554   C     0.38262   0.75072   0.50101   0.00000  Uiso   1.00
C555   C     0.02328   0.74972   0.50362   0.00000  Uiso   1.00
C556   C     0.47481   0.75058   0.50249   0.00000  Uiso   1.00
Cu557  Cu    0.25000   0.79821   0.50000   0.00000  Uiso   1.00
Cu558  Cu    0.25000   0.70178   0.50000   0.00000  Uiso   1.00
N559   N     0.25000   0.62934   0.50000   0.00000  Uiso   1.00
N560   N     0.25000   0.87065   0.50000   0.00000  Uiso   1.00
O561   O     0.18573   0.79071   0.50000   0.00000  Uiso   1.00
O562   O     0.31427   0.70928   0.50000   0.00000  Uiso   1.00
O563   O     0.31427   0.79071   0.50000   0.00000  Uiso   1.00
O564   O     0.18573   0.70928   0.50000   0.00000  Uiso   1.00
O565   O     0.25000   0.79071   0.42946   0.00000  Uiso   1.00
O566   O     0.25000   0.70929   0.57054   0.00000  Uiso   1.00
O567   O     0.25000   0.79071   0.57054   0.00000  Uiso   1.00
O568   O     0.25000   0.70929   0.42946   0.00000  Uiso   1.00
F569   F     0.30036   0.62979   0.56661   0.00000  Uiso   1.00
F570   F     0.17382   0.87333   0.47780   0.00000  Uiso   1.00
F571   F     0.20013   0.62904   0.43296   0.00000  Uiso   1.00
F572   F     0.32724   0.87435   0.51667   0.00000  Uiso   1.00
F573   F     0.02578   0.83081   0.53262   0.00000  Uiso   1.00
F574   F     0.47335   0.73074   0.41693   0.00000  Uiso   1.00
F575   F     0.47448   0.76738   0.58844   0.00000  Uiso   1.00
F576   F     0.02241   0.66860   0.47501   0.00000  Uiso   1.00
O577   O     0.11568   0.82980   0.53804   0.00000  Uiso   1.00
C578   C     0.12344   0.82445   0.58881   0.00000  Uiso   1.00
H579   H     0.09181   0.82257   0.60898   0.00000  Uiso   1.00
H580   H     0.14208   0.85631   0.60245   0.00000  Uiso   1.00
H581   H     0.14396   0.79231   0.59700   0.00000  Uiso   1.00
O582   O     0.38233   0.72711   0.41570   0.00000  Uiso   1.00
C583   C     0.37541   0.76847   0.38702   0.00000  Uiso   1.00
H584   H     0.35570   0.79571   0.40677   0.00000  Uiso   1.00
H585   H     0.35626   0.75805   0.35360   0.00000  Uiso   1.00
H586   H     0.40732   0.78435   0.37521   0.00000  Uiso   1.00
O587   O     0.38221   0.77244   0.58644   0.00000  Uiso   1.00
C588   C     0.38997   0.82034   0.60136   0.00000  Uiso   1.00
H589   H     0.42048   0.82292   0.62444   0.00000  Uiso   1.00
H590   H     0.36194   0.83197   0.62409   0.00000  Uiso   1.00
H591   H     0.39209   0.84578   0.57005   0.00000  Uiso   1.00
O592   O     0.11290   0.66629   0.47425   0.00000  Uiso   1.00
C593   C     0.11363   0.63228   0.51253   0.00000  Uiso   1.00
H594   H     0.13089   0.64667   0.54586   0.00000  Uiso   1.00
H595   H     0.13216   0.60035   0.50030   0.00000  Uiso   1.00
H596   H     0.07974   0.61997   0.52172   0.00000  Uiso   1.00
O597   O     0.29959   0.53199   0.57128   0.00000  Uiso   1.00
C598   C     0.27235   0.52197   0.61125   0.00000  Uiso   1.00
H599   H     0.24805   0.99313   0.60201   0.00000  Uiso   1.00
H600   H     0.25499   0.55468   0.62401   0.00000  Uiso   1.00
H601   H     0.29346   0.50887   0.64200   0.00000  Uiso   1.00
O602   O     0.16968   0.96869   0.49196   0.00000  Uiso   1.00
C603   C     0.15385   0.97591   0.53961   0.00000  Uiso   1.00
H604   H     0.15086   0.94145   0.55990   0.00000  Uiso   1.00
H605   H     0.12034   0.99174   0.53670   0.00000  Uiso   1.00
H606   H     0.17520   0.50167   0.56048   0.00000  Uiso   1.00
O607   O     0.20020   0.53131   0.42865   0.00000  Uiso   1.00
C608   C     0.22753   0.52098   0.38890   0.00000  Uiso   1.00
H609   H     0.25094   0.99167   0.39820   0.00000  Uiso   1.00
H610   H     0.24591   0.55339   0.37656   0.00000  Uiso   1.00
H611   H     0.20635   0.50836   0.35783   0.00000  Uiso   1.00
O612   O     0.33010   0.97017   0.50674   0.00000  Uiso   1.00
C613   C     0.34532   0.97703   0.45876   0.00000  Uiso   1.00
H614   H     0.34787   0.94242   0.43860   0.00000  Uiso   1.00
H615   H     0.37895   0.99311   0.46100   0.00000  Uiso   1.00
H616   H     0.32382   0.50244   0.43810   0.00000  Uiso   1.00
C617   C     0.66481   0.74974   0.50102   0.00000  Uiso   1.00
C618   C     0.83473   0.75016   0.50038   0.00000  Uiso   1.00
C619   C     0.77495   0.60506   0.53373   0.00000  Uiso   1.00
C620   C     0.71168   0.89587   0.49162   0.00000  Uiso   1.00
C621   C     0.72513   0.60468   0.46616   0.00000  Uiso   1.00
C622   C     0.78846   0.89648   0.50721   0.00000  Uiso   1.00
C623   C     0.77446   0.55450   0.53551   0.00000  Uiso   1.00
C624   C     0.71025   0.94631   0.49552   0.00000  Uiso   1.00
C625   C     0.72536   0.55413   0.46449   0.00000  Uiso   1.00
C626   C     0.78958   0.94701   0.50403   0.00000  Uiso   1.00
C627   C     0.75000   0.74998   0.40688   0.00000  Uiso   1.00
C628   C     0.75011   0.75003   0.59312   0.00000  Uiso   1.00
C629   C     0.74983   0.52776   0.50005   0.00000  Uiso   1.00
C630   C     0.74985   0.97323   0.50008   0.00000  Uiso   1.00
C631   C     0.75007   0.74997   0.35517   0.00000  Uiso   1.00
C632   C     0.75011   0.75004   0.64483   0.00000  Uiso   1.00
C633   C     0.54718   0.79023   0.51931   0.00000  Uiso   1.00
C634   C     0.95143   0.74040   0.45877   0.00000  Uiso   1.00
C635   C     0.95191   0.76099   0.54542   0.00000  Uiso   1.00
C636   C     0.54557   0.70822   0.48958   0.00000  Uiso   1.00
C637   C     0.59329   0.78960   0.52096   0.00000  Uiso   1.00
C638   C     0.90528   0.74025   0.45793   0.00000  Uiso   1.00
C639   C     0.90563   0.76290   0.54442   0.00000  Uiso   1.00
C640   C     0.59179   0.70712   0.49038   0.00000  Uiso   1.00
C641   C     0.61611   0.74889   0.50383   0.00000  Uiso   1.00
C642   C     0.88262   0.75072   0.50101   0.00000  Uiso   1.00
C643   C     0.52328   0.74972   0.50362   0.00000  Uiso   1.00
C644   C     0.97481   0.75058   0.50249   0.00000  Uiso   1.00
Cu645  Cu    0.75000   0.79821   0.50000   0.00000  Uiso   1.00
Cu646  Cu    0.75000   0.70178   0.50000   0.00000  Uiso   1.00
N647   N     0.75000   0.62934   0.50000   0.00000  Uiso   1.00
N648   N     0.75000   0.87065   0.50000   0.00000  Uiso   1.00
O649   O     0.68573   0.79071   0.50000   0.00000  Uiso   1.00
O650   O     0.81427   0.70928   0.50000   0.00000  Uiso   1.00
O651   O     0.81427   0.79071   0.50000   0.00000  Uiso   1.00
O652   O     0.68573   0.70928   0.50000   0.00000  Uiso   1.00
O653   O     0.75000   0.79071   0.42946   0.00000  Uiso   1.00
O654   O     0.75000   0.70929   0.57054   0.00000  Uiso   1.00
O655   O     0.75000   0.79071   0.57054   0.00000  Uiso   1.00
O656   O     0.75000   0.70929   0.42946   0.00000  Uiso   1.00
F657   F     0.80036   0.62979   0.56661   0.00000  Uiso   1.00
F658   F     0.67382   0.87333   0.47780   0.00000  Uiso   1.00
F659   F     0.70013   0.62904   0.43296   0.00000  Uiso   1.00
F660   F     0.82724   0.87435   0.51667   0.00000  Uiso   1.00
F661   F     0.52578   0.83081   0.53262   0.00000  Uiso   1.00
F662   F     0.97335   0.73074   0.41693   0.00000  Uiso   1.00
F663   F     0.97448   0.76738   0.58844   0.00000  Uiso   1.00
F664   F     0.52241   0.66860   0.47501   0.00000  Uiso   1.00
O665   O     0.61568   0.82980   0.53804   0.00000  Uiso   1.00
C666   C     0.62344   0.82445   0.58881   0.00000  Uiso   1.00
H667   H     0.59181   0.82257   0.60898   0.00000  Uiso   1.00
H668   H     0.64208   0.85631   0.60245   0.00000  Uiso   1.00
H669   H     0.64396   0.79231   0.59700   0.00000  Uiso   1.00
O670   O     0.88233   0.72711   0.41570   0.00000  Uiso   1.00
C671   C     0.87541   0.76847   0.38702   0.00000  Uiso   1.00
H672   H     0.85570   0.79571   0.40677   0.00000  Uiso   1.00
H673   H     0.85626   0.75805   0.35360   0.00000  Uiso   1.00
H674   H     0.90732   0.78435   0.37521   0.00000  Uiso   1.00
O675   O     0.88221   0.77244   0.58644   0.00000  Uiso   1.00
C676   C     0.88997   0.82034   0.60136   0.00000  Uiso   1.00
H677   H     0.92048   0.82292   0.62444   0.00000  Uiso   1.00
H678   H     0.86194   0.83197   0.62409   0.00000  Uiso   1.00
H679   H     0.89209   0.84578   0.57005   0.00000  Uiso   1.00
O680   O     0.61290   0.66629   0.47425   0.00000  Uiso   1.00
C681   C     0.61363   0.63228   0.51253   0.00000  Uiso   1.00
H682   H     0.63089   0.64667   0.54586   0.00000  Uiso   1.00
H683   H     0.63216   0.60035   0.50030   0.00000  Uiso   1.00
H684   H     0.57974   0.61997   0.52172   0.00000  Uiso   1.00
O685   O     0.79959   0.53199   0.57128   0.00000  Uiso   1.00
C686   C     0.77235   0.52197   0.61125   0.00000  Uiso   1.00
H687   H     0.74805   0.99313   0.60201   0.00000  Uiso   1.00
H688   H     0.75499   0.55468   0.62401   0.00000  Uiso   1.00
H689   H     0.79346   0.50887   0.64200   0.00000  Uiso   1.00
O690   O     0.66968   0.96869   0.49196   0.00000  Uiso   1.00
C691   C     0.65385   0.97591   0.53961   0.00000  Uiso   1.00
H692   H     0.65086   0.94145   0.55990   0.00000  Uiso   1.00
H693   H     0.62034   0.99174   0.53670   0.00000  Uiso   1.00
H694   H     0.67520   0.50167   0.56048   0.00000  Uiso   1.00
O695   O     0.70020   0.53131   0.42865   0.00000  Uiso   1.00
C696   C     0.72753   0.52098   0.38890   0.00000  Uiso   1.00
H697   H     0.75094   0.99167   0.39820   0.00000  Uiso   1.00
H698   H     0.74591   0.55339   0.37656   0.00000  Uiso   1.00
H699   H     0.70635   0.50836   0.35783   0.00000  Uiso   1.00
O700   O     0.83010   0.97017   0.50674   0.00000  Uiso   1.00
C701   C     0.84532   0.97703   0.45876   0.00000  Uiso   1.00
H702   H     0.84787   0.94242   0.43860   0.00000  Uiso   1.00
H703   H     0.87895   0.99311   0.46100   0.00000  Uiso   1.00
H704   H     0.82382   0.50244   0.43810   0.00000  Uiso   1.00
C705   C     0.16481   0.24974   0.83435   0.00000  Uiso   1.00
C706   C     0.33473   0.25016   0.83371   0.00000  Uiso   1.00
C707   C     0.27495   0.10506   0.86706   0.00000  Uiso   1.00
C708   C     0.21168   0.39587   0.82495   0.00000  Uiso   1.00
C709   C     0.22513   0.10468   0.79949   0.00000  Uiso   1.00
C710   C     0.28846   0.39648   0.84055   0.00000  Uiso   1.00
C711   C     0.27446   0.05450   0.86884   0.00000  Uiso   1.00
C712   C     0.21025   0.44631   0.82886   0.00000  Uiso   1.00
C713   C     0.22536   0.05413   0.79783   0.00000  Uiso   1.00
C714   C     0.28958   0.44701   0.83736   0.00000  Uiso   1.00
C715   C     0.25000   0.24998   0.74022   0.00000  Uiso   1.00
C716   C     0.25011   0.25003   0.92645   0.00000  Uiso   1.00
C717   C     0.24983   0.02776   0.83339   0.00000  Uiso   1.00
C718   C     0.24985   0.47323   0.83341   0.00000  Uiso   1.00
C719   C     0.25007   0.24997   0.68850   0.00000  Uiso   1.00
C720   C     0.25011   0.25004   0.97817   0.00000  Uiso   1.00
C721   C     0.04718   0.29023   0.85265   0.00000  Uiso   1.00
C722   C     0.45143   0.24040   0.79210   0.00000  Uiso   1.00
C723   C     0.45191   0.26099   0.87875   0.00000  Uiso   1.00
C724   C     0.04557   0.20822   0.82291   0.00000  Uiso   1.00
C725   C     0.09329   0.28960   0.85430   0.00000  Uiso   1.00
C726   C     0.40528   0.24025   0.79126   0.00000  Uiso   1.00
C727   C     0.40563   0.26290   0.87775   0.00000  Uiso   1.00
C728   C     0.09179   0.20712   0.82372   0.00000  Uiso   1.00
C729   C     0.11611   0.24889   0.83716   0.00000  Uiso   1.00
C730   C     0.38262   0.25072   0.83435   0.00000  Uiso   1.00
C731   C     0.02328   0.24972   0.83695   0.00000  Uiso   1.00
C732   C     0.47481   0.25058   0.83582   0.00000  Uiso   1.00
Cu733  Cu    0.25000   0.29821   0.83333   0.00000  Uiso   1.00
Cu734  Cu    0.25000   0.20178   0.83333   0.00000  Uiso   1.00
N735   N     0.25000   0.12934   0.83333   0.00000  Uiso   1.00
N736   N     0.25000   0.37065   0.83333   0.00000  Uiso   1.00
O737   O     0.18573   0.29071   0.83334   0.00000  Uiso   1.00
O738   O     0.31427   0.20928   0.83333   0.00000  Uiso   1.00
O739   O     0.31427   0.29071   0.83333   0.00000  Uiso   1.00
O740   O     0.18573   0.20928   0.83334   0.00000  Uiso   1.00
O741   O     0.25000   0.29071   0.76280   0.00000  Uiso   1.00
O742   O     0.25000   0.20929   0.90387   0.00000  Uiso   1.00
O743   O     0.25000   0.29071   0.90387   0.00000  Uiso   1.00
O744   O     0.25000   0.20929   0.76280   0.00000  Uiso   1.00
F745   F     0.30036   0.12979   0.89994   0.00000  Uiso   1.00
F746   F     0.17382   0.37333   0.81113   0.00000  Uiso   1.00
F747   F     0.20013   0.12904   0.76630   0.00000  Uiso   1.00
F748   F     0.32724   0.37435   0.85001   0.00000  Uiso   1.00
F749   F     0.02578   0.33081   0.86595   0.00000  Uiso   1.00
F750   F     0.47335   0.23074   0.75027   0.00000  Uiso   1.00
F751   F     0.47448   0.26738   0.92178   0.00000  Uiso   1.00
F752   F     0.02241   0.16860   0.80834   0.00000  Uiso   1.00
O753   O     0.11568   0.32980   0.87137   0.00000  Uiso   1.00
C754   C     0.12344   0.32445   0.92214   0.00000  Uiso   1.00
H755   H     0.09181   0.32257   0.94231   0.00000  Uiso   1.00
H756   H     0.14208   0.35631   0.93578   0.00000  Uiso   1.00
H757   H     0.14396   0.29231   0.93033   0.00000  Uiso   1.00
O758   O     0.38233   0.22711   0.74903   0.00000  Uiso   1.00
C759   C     0.37541   0.26847   0.72035   0.00000  Uiso   1.00
H760   H     0.35570   0.29571   0.74010   0.00000  Uiso   1.00
H761   H     0.35626   0.25805   0.68693   0.00000  Uiso   1.00
H762   H     0.40732   0.28435   0.70854   0.00000  Uiso   1.00
O763   O     0.38221   0.27244   0.91978   0.00000  Uiso   1.00
C764   C     0.38997   0.32034   0.93470   0.00000  Uiso   1.00
H765   H     0.42048   0.32292   0.95777   0.00000  Uiso   1.00
H766   H     0.36194   0.33197   0.95743   0.00000  Uiso   1.00
H767   H     0.39209   0.34578   0.90338   0.00000  Uiso   1.00
O768   O     0.11290   0.16629   0.80759   0.00000  Uiso   1.00
C769   C     0.11363   0.13228   0.84587   0.00000  Uiso   1.00
H770   H     0.13089   0.14667   0.87919   0.00000  Uiso   1.00
H771   H     0.13216   0.10035   0.83363   0.00000  Uiso   1.00
H772   H     0.07974   0.11997   0.85506   0.00000  Uiso   1.00
O773   O     0.29959   0.03199   0.90461   0.00000  Uiso   1.00
C774   C     0.27235   0.02197   0.94458   0.00000  Uiso   1.00
H775   H     0.24805   0.49313   0.93534   0.00000  Uiso   1.00
H776   H     0.25499   0.05468   0.95734   0.00000  Uiso   1.00
H777   H     0.29346   0.00887   0.97534   0.00000  Uiso   1.00
O778   O     0.16968   0.46869   0.82529   0.00000  Uiso   1.00
C779   C     0.15385   0.47591   0.87294   0.00000  Uiso   1.00
H780   H     0.15086   0.44145   0.89323   0.00000  Uiso   1.00
H781   H     0.12034   0.49174   0.87004   0.00000  Uiso   1.00
H782   H     0.17520   0.00167   0.89381   0.00000  Uiso   1.00
O783   O     0.20020   0.03131   0.76198   0.00000  Uiso   1.00
C784   C     0.22753   0.02098   0.72224   0.00000  Uiso   1.00
H785   H     0.25094   0.49167   0.73154   0.00000  Uiso   1.00
H786   H     0.24591   0.05339   0.70989   0.00000  Uiso   1.00
H787   H     0.20635   0.00836   0.69116   0.00000  Uiso   1.00
O788   O     0.33010   0.47017   0.84007   0.00000  Uiso   1.00
C789   C     0.34532   0.47703   0.79210   0.00000  Uiso   1.00
H790   H     0.34787   0.44242   0.77193   0.00000  Uiso   1.00
H791   H     0.37895   0.49311   0.79434   0.00000  Uiso   1.00
H792   H     0.32382   0.00244   0.77144   0.00000  Uiso   1.00
C793   C     0.66481   0.24974   0.83435   0.00000  Uiso   1.00
C794   C     0.83473   0.25016   0.83371   0.00000  Uiso   1.00
C795   C     0.77495   0.10506   0.86706   0.00000  Uiso   1.00
C796   C     0.71168   0.39587   0.82495   0.00000  Uiso   1.00
C797   C     0.72513   0.10468   0.79949   0.00000  Uiso   1.00
C798   C     0.78846   0.39648   0.84055   0.00000  Uiso   1.00
C799   C     0.77446   0.05450   0.86884   0.00000  Uiso   1.00
C800   C     0.71025   0.44631   0.82886   0.00000  Uiso   1.00
C801   C     0.72536   0.05413   0.79783   0.00000  Uiso   1.00
C802   C     0.78958   0.44701   0.83736   0.00000  Uiso   1.00
C803   C     0.75000   0.24998   0.74022   0.00000  Uiso   1.00
C804   C     0.75011   0.25003   0.92645   0.00000  Uiso   1.00
C805   C     0.74983   0.02776   0.83339   0.00000  Uiso   1.00
C806   C     0.74985   0.47323   0.83341   0.00000  Uiso   1.00
C807   C     0.75007   0.24997   0.68850   0.00000  Uiso   1.00
C808   C     0.75011   0.25004   0.97817   0.00000  Uiso   1.00
C809   C     0.54718   0.29023   0.85265   0.00000  Uiso   1.00
C810   C     0.95143   0.24040   0.79210   0.00000  Uiso   1.00
C811   C     0.95191   0.26099   0.87875   0.00000  Uiso   1.00
C812   C     0.54557   0.20822   0.82291   0.00000  Uiso   1.00
C813   C     0.59329   0.28960   0.85430   0.00000  Uiso   1.00
C814   C     0.90528   0.24025   0.79126   0.00000  Uiso   1.00
C815   C     0.90563   0.26290   0.87775   0.00000  Uiso   1.00
C816   C     0.59179   0.20712   0.82372   0.00000  Uiso   1.00
C817   C     0.61611   0.24889   0.83716   0.00000  Uiso   1.00
C818   C     0.88262   0.25072   0.83435   0.00000  Uiso   1.00
C819   C     0.52328   0.24972   0.83695   0.00000  Uiso   1.00
C820   C     0.97481   0.25058   0.83582   0.00000  Uiso   1.00
Cu821  Cu    0.75000   0.29821   0.83333   0.00000  Uiso   1.00
Cu822  Cu    0.75000   0.20178   0.83333   0.00000  Uiso   1.00
N823   N     0.75000   0.12934   0.83333   0.00000  Uiso   1.00
N824   N     0.75000   0.37065   0.83333   0.00000  Uiso   1.00
O825   O     0.68573   0.29071   0.83334   0.00000  Uiso   1.00
O826   O     0.81427   0.20928   0.83333   0.00000  Uiso   1.00
O827   O     0.81427   0.29071   0.83333   0.00000  Uiso   1.00
O828   O     0.68573   0.20928   0.83334   0.00000  Uiso   1.00
O829   O     0.75000   0.29071   0.76280   0.00000  Uiso   1.00
O830   O     0.75000   0.20929   0.90387   0.00000  Uiso   1.00
O831   O     0.75000   0.29071   0.90387   0.00000  Uiso   1.00
O832   O     0.75000   0.20929   0.76280   0.00000  Uiso   1.00
F833   F     0.80036   0.12979   0.89994   0.00000  Uiso   1.00
F834   F     0.67382   0.37333   0.81113   0.00000  Uiso   1.00
F835   F     0.70013   0.12904   0.76630   0.00000  Uiso   1.00
F836   F     0.82724   0.37435   0.85001   0.00000  Uiso   1.00
F837   F     0.52578   0.33081   0.86595   0.00000  Uiso   1.00
F838   F     0.97335   0.23074   0.75027   0.00000  Uiso   1.00
F839   F     0.97448   0.26738   0.92178   0.00000  Uiso   1.00
F840   F     0.52241   0.16860   0.80834   0.00000  Uiso   1.00
O841   O     0.61568   0.32980   0.87137   0.00000  Uiso   1.00
C842   C     0.62344   0.32445   0.92214   0.00000  Uiso   1.00
H843   H     0.59181   0.32257   0.94231   0.00000  Uiso   1.00
H844   H     0.64208   0.35631   0.93578   0.00000  Uiso   1.00
H845   H     0.64396   0.29231   0.93033   0.00000  Uiso   1.00
O846   O     0.88233   0.22711   0.74903   0.00000  Uiso   1.00
C847   C     0.87541   0.26847   0.72035   0.00000  Uiso   1.00
H848   H     0.85570   0.29571   0.74010   0.00000  Uiso   1.00
H849   H     0.85626   0.25805   0.68693   0.00000  Uiso   1.00
H850   H     0.90732   0.28435   0.70854   0.00000  Uiso   1.00
O851   O     0.88221   0.27244   0.91978   0.00000  Uiso   1.00
C852   C     0.88997   0.32034   0.93470   0.00000  Uiso   1.00
H853   H     0.92048   0.32292   0.95777   0.00000  Uiso   1.00
H854   H     0.86194   0.33197   0.95743   0.00000  Uiso   1.00
H855   H     0.89209   0.34578   0.90338   0.00000  Uiso   1.00
O856   O     0.61290   0.16629   0.80759   0.00000  Uiso   1.00
C857   C     0.61363   0.13228   0.84587   0.00000  Uiso   1.00
H858   H     0.63089   0.14667   0.87919   0.00000  Uiso   1.00
H859   H     0.63216   0.10035   0.83363   0.00000  Uiso   1.00
H860   H     0.57974   0.11997   0.85506   0.00000  Uiso   1.00
O861   O     0.79959   0.03199   0.90461   0.00000  Uiso   1.00
C862   C     0.77235   0.02197   0.94458   0.00000  Uiso   1.00
H863   H     0.74805   0.49313   0.93534   0.00000  Uiso   1.00
H864   H     0.75499   0.05468   0.95734   0.00000  Uiso   1.00
H865   H     0.79346   0.00887   0.97534   0.00000  Uiso   1.00
O866   O     0.66968   0.46869   0.82529   0.00000  Uiso   1.00
C867   C     0.65385   0.47591   0.87294   0.00000  Uiso   1.00
H868   H     0.65086   0.44145   0.89323   0.00000  Uiso   1.00
H869   H     0.62034   0.49174   0.87004   0.00000  Uiso   1.00
H870   H     0.67520   0.00167   0.89381   0.00000  Uiso   1.00
O871   O     0.70020   0.03131   0.76198   0.00000  Uiso   1.00
C872   C     0.72753   0.02098   0.72224   0.00000  Uiso   1.00
H873   H     0.75094   0.49167   0.73154   0.00000  Uiso   1.00
H874   H     0.74591   0.05339   0.70989   0.00000  Uiso   1.00
H875   H     0.70635   0.00836   0.69116   0.00000  Uiso   1.00
O876   O     0.83010   0.47017   0.84007   0.00000  Uiso   1.00
C877   C     0.84532   0.47703   0.79210   0.00000  Uiso   1.00
H878   H     0.84787   0.44242   0.77193   0.00000  Uiso   1.00
H879   H     0.87895   0.49311   0.79434   0.00000  Uiso   1.00
H880   H     0.82382   0.00244   0.77144   0.00000  Uiso   1.00
C881   C     0.16481   0.74974   0.83435   0.00000  Uiso   1.00
C882   C     0.33473   0.75016   0.83371   0.00000  Uiso   1.00
C883   C     0.27495   0.60506   0.86706   0.00000  Uiso   1.00
C884   C     0.21168   0.89587   0.82495   0.00000  Uiso   1.00
C885   C     0.22513   0.60468   0.79949   0.00000  Uiso   1.00
C886   C     0.28846   0.89648   0.84055   0.00000  Uiso   1.00
C887   C     0.27446   0.55450   0.86884   0.00000  Uiso   1.00
C888   C     0.21025   0.94631   0.82886   0.00000  Uiso   1.00
C889   C     0.22536   0.55413   0.79783   0.00000  Uiso   1.00
C890   C     0.28958   0.94701   0.83736   0.00000  Uiso   1.00
C891   C     0.25000   0.74998   0.74022   0.00000  Uiso   1.00
C892   C     0.25011   0.75003   0.92645   0.00000  Uiso   1.00
C893   C     0.24983   0.52776   0.83339   0.00000  Uiso   1.00
C894   C     0.24985   0.97323   0.83341   0.00000  Uiso   1.00
C895   C     0.25007   0.74997   0.68850   0.00000  Uiso   1.00
C896   C     0.25011   0.75004   0.97817   0.00000  Uiso   1.00
C897   C     0.04718   0.79023   0.85265   0.00000  Uiso   1.00
C898   C     0.45143   0.74040   0.79210   0.00000  Uiso   1.00
C899   C     0.45191   0.76099   0.87875   0.00000  Uiso   1.00
C900   C     0.04557   0.70822   0.82291   0.00000  Uiso   1.00
C901   C     0.09329   0.78960   0.85430   0.00000  Uiso   1.00
C902   C     0.40528   0.74025   0.79126   0.00000  Uiso   1.00
C903   C     0.40563   0.76290   0.87775   0.00000  Uiso   1.00
C904   C     0.09179   0.70712   0.82372   0.00000  Uiso   1.00
C905   C     0.11611   0.74889   0.83716   0.00000  Uiso   1.00
C906   C     0.38262   0.75072   0.83435   0.00000  Uiso   1.00
C907   C     0.02328   0.74972   0.83695   0.00000  Uiso   1.00
C908   C     0.47481   0.75058   0.83582   0.00000  Uiso   1.00
Cu909  Cu    0.25000   0.79821   0.83333   0.00000  Uiso   1.00
Cu910  Cu    0.25000   0.70178   0.83333   0.00000  Uiso   1.00
N911   N     0.25000   0.62934   0.83333   0.00000  Uiso   1.00
N912   N     0.25000   0.87065   0.83333   0.00000  Uiso   1.00
O913   O     0.18573   0.79071   0.83334   0.00000  Uiso   1.00
O914   O     0.31427   0.70928   0.83333   0.00000  Uiso   1.00
O915   O     0.31427   0.79071   0.83333   0.00000  Uiso   1.00
O916   O     0.18573   0.70928   0.83334   0.00000  Uiso   1.00
O917   O     0.25000   0.79071   0.76280   0.00000  Uiso   1.00
O918   O     0.25000   0.70929   0.90387   0.00000  Uiso   1.00
O919   O     0.25000   0.79071   0.90387   0.00000  Uiso   1.00
O920   O     0.25000   0.70929   0.76280   0.00000  Uiso   1.00
F921   F     0.30036   0.62979   0.89994   0.00000  Uiso   1.00
F922   F     0.17382   0.87333   0.81113   0.00000  Uiso   1.00
F923   F     0.20013   0.62904   0.76630   0.00000  Uiso   1.00
F924   F     0.32724   0.87435   0.85001   0.00000  Uiso   1.00
F925   F     0.02578   0.83081   0.86595   0.00000  Uiso   1.00
F926   F     0.47335   0.73074   0.75027   0.00000  Uiso   1.00
F927   F     0.47448   0.76738   0.92178   0.00000  Uiso   1.00
F928   F     0.02241   0.66860   0.80834   0.00000  Uiso   1.00
O929   O     0.11568   0.82980   0.87137   0.00000  Uiso   1.00
C930   C     0.12344   0.82445   0.92214   0.00000  Uiso   1.00
H931   H     0.09181   0.82257   0.94231   0.00000  Uiso   1.00
H932   H     0.14208   0.85631   0.93578   0.00000  Uiso   1.00
H933   H     0.14396   0.79231   0.93033   0.00000  Uiso   1.00
O934   O     0.38233   0.72711   0.74903   0.00000  Uiso   1.00
C935   C     0.37541   0.76847   0.72035   0.00000  Uiso   1.00
H936   H     0.35570   0.79571   0.74010   0.00000  Uiso   1.00
H937   H     0.35626   0.75805   0.68693   0.00000  Uiso   1.00
H938   H     0.40732   0.78435   0.70854   0.00000  Uiso   1.00
O939   O     0.38221   0.77244   0.91978   0.00000  Uiso   1.00
C940   C     0.38997   0.82034   0.93470   0.00000  Uiso   1.00
H941   H     0.42048   0.82292   0.95777   0.00000  Uiso   1.00
H942   H     0.36194   0.83197   0.95743   0.00000  Uiso   1.00
H943   H     0.39209   0.84578   0.90338   0.00000  Uiso   1.00
O944   O     0.11290   0.66629   0.80759   0.00000  Uiso   1.00
C945   C     0.11363   0.63228   0.84587   0.00000  Uiso   1.00
H946   H     0.13089   0.64667   0.87919   0.00000  Uiso   1.00
H947   H     0.13216   0.60035   0.83363   0.00000  Uiso   1.00
H948   H     0.07974   0.61997   0.85506   0.00000  Uiso   1.00
O949   O     0.29959   0.53199   0.90461   0.00000  Uiso   1.00
C950   C     0.27235   0.52197   0.94458   0.00000  Uiso   1.00
H951   H     0.24805   0.99313   0.93534   0.00000  Uiso   1.00
H952   H     0.25499   0.55468   0.95734   0.00000  Uiso   1.00
H953   H     0.29346   0.50887   0.97534   0.00000  Uiso   1.00
O954   O     0.16968   0.96869   0.82529   0.00000  Uiso   1.00
C955   C     0.15385   0.97591   0.87294   0.00000  Uiso   1.00
H956   H     0.15086   0.94145   0.89323   0.00000  Uiso   1.00
H957   H     0.12034   0.99174   0.87004   0.00000  Uiso   1.00
H958   H     0.17520   0.50167   0.89381   0.00000  Uiso   1.00
O959   O     0.20020   0.53131   0.76198   0.00000  Uiso   1.00
C960   C     0.22753   0.52098   0.72224   0.00000  Uiso   1.00
H961   H     0.25094   0.99167   0.73154   0.00000  Uiso   1.00
H962   H     0.24591   0.55339   0.70989   0.00000  Uiso   1.00
H963   H     0.20635   0.50836   0.69116   0.00000  Uiso   1.00
O964   O     0.33010   0.97017   0.84007   0.00000  Uiso   1.00
C965   C     0.34532   0.97703   0.79210   0.00000  Uiso   1.00
H966   H     0.34787   0.94242   0.77193   0.00000  Uiso   1.00
H967   H     0.37895   0.99311   0.79434   0.00000  Uiso   1.00
H968   H     0.32382   0.50244   0.77144   0.00000  Uiso   1.00
C969   C     0.66481   0.74974   0.83435   0.00000  Uiso   1.00
C970   C     0.83473   0.75016   0.83371   0.00000  Uiso   1.00
C971   C     0.77495   0.60506   0.86706   0.00000  Uiso   1.00
C972   C     0.71168   0.89587   0.82495   0.00000  Uiso   1.00
C973   C     0.72513   0.60468   0.79949   0.00000  Uiso   1.00
C974   C     0.78846   0.89648   0.84055   0.00000  Uiso   1.00
C975   C     0.77446   0.55450   0.86884   0.00000  Uiso   1.00
C976   C     0.71025   0.94631   0.82886   0.00000  Uiso   1.00
C977   C     0.72536   0.55413   0.79783   0.00000  Uiso   1.00
C978   C     0.78958   0.94701   0.83736   0.00000  Uiso   1.00
C979   C     0.75000   0.74998   0.74022   0.00000  Uiso   1.00
C980   C     0.75011   0.75003   0.92645   0.00000  Uiso   1.00
C981   C     0.74983   0.52776   0.83339   0.00000  Uiso   1.00
C982   C     0.74985   0.97323   0.83341   0.00000  Uiso   1.00
C983   C     0.75007   0.74997   0.68850   0.00000  Uiso   1.00
C984   C     0.75011   0.75004   0.97817   0.00000  Uiso   1.00
C985   C     0.54718   0.79023   0.85265   0.00000  Uiso   1.00
C986   C     0.95143   0.74040   0.79210   0.00000  Uiso   1.00
C987   C     0.95191   0.76099   0.87875   0.00000  Uiso   1.00
C988   C     0.54557   0.70822   0.82291   0.00000  Uiso   1.00
C989   C     0.59329   0.78960   0.85430   0.00000  Uiso   1.00
C990   C     0.90528   0.74025   0.79126   0.00000  Uiso   1.00
C991   C     0.90563   0.76290   0.87775   0.00000  Uiso   1.00
C992   C     0.59179   0.70712   0.82372   0.00000  Uiso   1.00
C993   C     0.61611   0.74889   0.83716   0.00000  Uiso   1.00
C994   C     0.88262   0.75072   0.83435   0.00000  Uiso   1.00
C995   C     0.52328   0.74972   0.83695   0.00000  Uiso   1.00
C996   C     0.97481   0.75058   0.83582   0.00000  Uiso   1.00
Cu997  Cu    0.75000   0.79821   0.83333   0.00000  Uiso   1.00
Cu998  Cu    0.75000   0.70178   0.83333   0.00000  Uiso   1.00
N999   N     0.75000   0.62934   0.83333   0.00000  Uiso   1.00
N1000  N     0.75000   0.87065   0.83333   0.00000  Uiso   1.00
O1001  O     0.68573   0.79071   0.83334   0.00000  Uiso   1.00
O1002  O     0.81427   0.70928   0.83333   0.00000  Uiso   1.00
O1003  O     0.81427   0.79071   0.83333   0.00000  Uiso   1.00
O1004  O     0.68573   0.70928   0.83334   0.00000  Uiso   1.00
O1005  O     0.75000   0.79071   0.76280   0.00000  Uiso   1.00
O1006  O     0.75000   0.70929   0.90387   0.00000  Uiso   1.00
O1007  O     0.75000   0.79071   0.90387   0.00000  Uiso   1.00
O1008  O     0.75000   0.70929   0.76280   0.00000  Uiso   1.00
F1009  F     0.80036   0.62979   0.89994   0.00000  Uiso   1.00
F1010  F     0.67382   0.87333   0.81113   0.00000  Uiso   1.00
F1011  F     0.70013   0.62904   0.76630   0.00000  Uiso   1.00
F1012  F     0.82724   0.87435   0.85001   0.00000  Uiso   1.00
F1013  F     0.52578   0.83081   0.86595   0.00000  Uiso   1.00
F1014  F     0.97335   0.73074   0.75027   0.00000  Uiso   1.00
F1015  F     0.97448   0.76738   0.92178   0.00000  Uiso   1.00
F1016  F     0.52241   0.66860   0.80834   0.00000  Uiso   1.00
O1017  O     0.61568   0.82980   0.87137   0.00000  Uiso   1.00
C1018  C     0.62344   0.82445   0.92214   0.00000  Uiso   1.00
H1019  H     0.59181   0.82257   0.94231   0.00000  Uiso   1.00
H1020  H     0.64208   0.85631   0.93578   0.00000  Uiso   1.00
H1021  H     0.64396   0.79231   0.93033   0.00000  Uiso   1.00
O1022  O     0.88233   0.72711   0.74903   0.00000  Uiso   1.00
C1023  C     0.87541   0.76847   0.72035   0.00000  Uiso   1.00
H1024  H     0.85570   0.79571   0.74010   0.00000  Uiso   1.00
H1025  H     0.85626   0.75805   0.68693   0.00000  Uiso   1.00
H1026  H     0.90732   0.78435   0.70854   0.00000  Uiso   1.00
O1027  O     0.88221   0.77244   0.91978   0.00000  Uiso   1.00
C1028  C     0.88997   0.82034   0.93470   0.00000  Uiso   1.00
H1029  H     0.92048   0.82292   0.95777   0.00000  Uiso   1.00
H1030  H     0.86194   0.83197   0.95743   0.00000  Uiso   1.00
H1031  H     0.89209   0.84578   0.90338   0.00000  Uiso   1.00
O1032  O     0.61290   0.66629   0.80759   0.00000  Uiso   1.00
C1033  C     0.61363   0.63228   0.84587   0.00000  Uiso   1.00
H1034  H     0.63089   0.64667   0.87919   0.00000  Uiso   1.00
H1035  H     0.63216   0.60035   0.83363   0.00000  Uiso   1.00
H1036  H     0.57974   0.61997   0.85506   0.00000  Uiso   1.00
O1037  O     0.79959   0.53199   0.90461   0.00000  Uiso   1.00
C1038  C     0.77235   0.52197   0.94458   0.00000  Uiso   1.00
H1039  H     0.74805   0.99313   0.93534   0.00000  Uiso   1.00
H1040  H     0.75499   0.55468   0.95734   0.00000  Uiso   1.00
H1041  H     0.79346   0.50887   0.97534   0.00000  Uiso   1.00
O1042  O     0.66968   0.96869   0.82529   0.00000  Uiso   1.00
C1043  C     0.65385   0.97591   0.87294   0.00000  Uiso   1.00
H1044  H     0.65086   0.94145   0.89323   0.00000  Uiso   1.00
H1045  H     0.62034   0.99174   0.87004   0.00000  Uiso   1.00
H1046  H     0.67520   0.50167   0.89381   0.00000  Uiso   1.00
O1047  O     0.70020   0.53131   0.76198   0.00000  Uiso   1.00
C1048  C     0.72753   0.52098   0.72224   0.00000  Uiso   1.00
H1049  H     0.75094   0.99167   0.73154   0.00000  Uiso   1.00
H1050  H     0.74591   0.55339   0.70989   0.00000  Uiso   1.00
H1051  H     0.70635   0.50836   0.69116   0.00000  Uiso   1.00
O1052  O     0.83010   0.97017   0.84007   0.00000  Uiso   1.00
C1053  C     0.84532   0.97703   0.79210   0.00000  Uiso   1.00
H1054  H     0.84787   0.94242   0.77193   0.00000  Uiso   1.00
H1055  H     0.87895   0.99311   0.79434   0.00000  Uiso   1.00
H1056  H     0.82382   0.50244   0.77144   0.00000  Uiso   1.00
loop_
_geom_bond_atom_site_label_1
_geom_bond_atom_site_label_2
_geom_bond_distance
_geom_bond_site_symmetry_2
_ccdc_geom_bond_type
C1     O33     1.303   .     A
C1     C25     1.476   .     S
C1     O36     1.297   .     A
C2     O35     1.292   .     A
C2     O34     1.293   .     A
C2     C26     1.448   .     S
C3     C7      1.410   .     A
C3     N31     1.363   .     A
C3     F41     1.356   .     S
C4     C8      1.411   .     A
C4     N32     1.375   .     A
C4     F42     1.350   .     S
C5     F43     1.355   .     S
C5     C9      1.410   .     A
C5     N31     1.363   .     A
C6     N32     1.375   .     A
C6     F44     1.349   .     S
C6     C10     1.412   .     A
C7     O69     1.381   .     S
C7     C13     1.418   .     A
C8     O74     1.382   .     S
C8     C14     1.412   .     A
C9     O79     1.381   .     S
C9     C13     1.419   .     A
C10    C14     1.412   .     A
C10    O84     1.382   .     S
C11    O37     1.291   .     A
C11    C15     1.412   .     S
C11    O40     1.292   .     A
C12    C16     1.412   .     S
C12    O39     1.292   .     A
C12    O38     1.291   .     A
C13    C190    1.520   1_545 S
C14    C189    1.520   .     S
C15    C720    1.192   1_554 S
C16    C367    1.192   .     S
C17    F45     1.359   .     S
C17    C27     1.399   .     A
C17    C21     1.394   .     A
C18    F46     1.359   .     S
C18    C28     1.404   .     A
C18    C22     1.395   .     A
C19    F47     1.359   .     S
C19    C23     1.400   .     A
C19    C28     1.403   .     A
C20    C24     1.398   .     A
C20    F48     1.359   .     S
C20    C27     1.399   .     A
C21    O49     1.382   .     S
C21    C25     1.415   .     A
C22    O54     1.383   .     S
C22    C26     1.404   .     A
C23    O59     1.386   .     S
C23    C26     1.403   .     A
C24    O64     1.384   .     S
C24    C25     1.418   .     A
C27    C116    1.466   1_455 S
C28    C115    1.466   .     S
Cu29   N32     2.019   .     S
Cu29   O33     1.953   .     S
Cu29   Cu30    2.688   .     S
Cu29   O39     1.938   .     S
Cu29   O35     1.956   .     S
Cu29   O37     1.937   .     S
Cu30   N31     2.019   .     S
Cu30   O38     1.937   .     S
Cu30   O34     1.953   .     S
Cu30   O40     1.938   .     S
Cu30   O36     1.956   .     S
O49    C50     1.410   .     S
C50    H52     1.109   .     S
C50    H53     1.114   .     S
C50    H51     1.113   .     S
O54    C55     1.409   .     S
C55    H56     1.113   .     S
C55    H57     1.109   .     S
C55    H58     1.113   .     S
O59    C60     1.413   .     S
C60    H63     1.114   .     S
C60    H62     1.109   .     S
C60    H61     1.110   .     S
O64    C65     1.412   .     S
C65    H67     1.109   .     S
C65    H68     1.112   .     S
C65    H66     1.114   .     S
O69    C70     1.407   .     S
C70    H73     1.109   .     S
C70    H72     1.114   .     S
C70    H247    1.111   1_545 S
H71    C246    1.111   .     S
O74    C75     1.409   .     S
C75    H76     1.114   .     S
C75    H77     1.109   .     S
C75    H254    1.112   .     S
H78    C251    1.112   1_545 S
O79    C80     1.407   .     S
C80    H83     1.109   .     S
C80    H82     1.114   .     S
C80    H257    1.111   1_545 S
H81    C256    1.111   .     S
O84    C85     1.409   .     S
C85    H86     1.114   .     S
C85    H87     1.109   .     S
C85    H264    1.112   .     S
H88    C261    1.112   1_545 S
C89    O121    1.303   .     A
C89    C113    1.476   .     S
C89    O124    1.297   .     A
C90    O123    1.292   .     A
C90    O122    1.293   .     A
C90    C114    1.448   .     S
C91    C95     1.410   .     A
C91    N119    1.363   .     A
C91    F129    1.356   .     S
C92    C96     1.411   .     A
C92    N120    1.375   .     A
C92    F130    1.350   .     S
C93    F131    1.355   .     S
C93    C97     1.410   .     A
C93    N119    1.363   .     A
C94    N120    1.375   .     A
C94    F132    1.349   .     S
C94    C98     1.412   .     A
C95    O157    1.381   .     S
C95    C101    1.418   .     A
C96    O162    1.382   .     S
C96    C102    1.412   .     A
C97    O167    1.381   .     S
C97    C101    1.419   .     A
C98    C102    1.412   .     A
C98    O172    1.382   .     S
C99    O125    1.291   .     A
C99    C103    1.412   .     S
C99    O128    1.292   .     A
C100   C104    1.412   .     S
C100   O127    1.292   .     A
C100   O126    1.291   .     A
C101   C278    1.520   1_545 S
C102   C277    1.520   .     S
C103   C808    1.192   1_554 S
C104   C455    1.192   .     S
C105   F133    1.359   .     S
C105   C115    1.399   .     A
C105   C109    1.394   .     A
C106   F134    1.359   .     S
C106   C116    1.404   .     A
C106   C110    1.395   .     A
C107   F135    1.359   .     S
C107   C111    1.400   .     A
C107   C116    1.403   .     A
C108   C112    1.398   .     A
C108   F136    1.359   .     S
C108   C115    1.399   .     A
C109   O137    1.382   .     S
C109   C113    1.415   .     A
C110   O142    1.383   .     S
C110   C114    1.404   .     A
C111   O147    1.386   .     S
C111   C114    1.403   .     A
C112   O152    1.384   .     S
C112   C113    1.418   .     A
C116   C27     1.466   1_655 S
Cu117  N120    2.019   .     S
Cu117  O121    1.953   .     S
Cu117  Cu118   2.688   .     S
Cu117  O127    1.938   .     S
Cu117  O123    1.956   .     S
Cu117  O125    1.937   .     S
Cu118  N119    2.019   .     S
Cu118  O126    1.937   .     S
Cu118  O122    1.953   .     S
Cu118  O128    1.938   .     S
Cu118  O124    1.956   .     S
O137   C138    1.410   .     S
C138   H140    1.109   .     S
C138   H141    1.114   .     S
C138   H139    1.113   .     S
O142   C143    1.409   .     S
C143   H144    1.113   .     S
C143   H145    1.109   .     S
C143   H146    1.113   .     S
O147   C148    1.413   .     S
C148   H151    1.114   .     S
C148   H150    1.109   .     S
C148   H149    1.110   .     S
O152   C153    1.412   .     S
C153   H155    1.109   .     S
C153   H156    1.112   .     S
C153   H154    1.114   .     S
O157   C158    1.407   .     S
C158   H161    1.109   .     S
C158   H160    1.114   .     S
C158   H335    1.111   1_545 S
H159   C334    1.111   .     S
O162   C163    1.409   .     S
C163   H164    1.114   .     S
C163   H165    1.109   .     S
C163   H342    1.112   .     S
H166   C339    1.112   1_545 S
O167   C168    1.407   .     S
C168   H171    1.109   .     S
C168   H170    1.114   .     S
C168   H345    1.111   1_545 S
H169   C344    1.111   .     S
O172   C173    1.409   .     S
C173   H174    1.114   .     S
C173   H175    1.109   .     S
C173   H352    1.112   .     S
H176   C349    1.112   1_545 S
C177   O209    1.303   .     A
C177   C201    1.476   .     S
C177   O212    1.297   .     A
C178   O211    1.292   .     A
C178   O210    1.293   .     A
C178   C202    1.448   .     S
C179   C183    1.410   .     A
C179   N207    1.363   .     A
C179   F217    1.356   .     S
C180   C184    1.411   .     A
C180   N208    1.375   .     A
C180   F218    1.350   .     S
C181   F219    1.355   .     S
C181   C185    1.410   .     A
C181   N207    1.363   .     A
C182   N208    1.375   .     A
C182   F220    1.349   .     S
C182   C186    1.412   .     A
C183   O245    1.381   .     S
C183   C189    1.418   .     A
C184   O250    1.382   .     S
C184   C190    1.412   .     A
C185   O255    1.381   .     S
C185   C189    1.419   .     A
C186   C190    1.412   .     A
C186   O260    1.382   .     S
C187   O213    1.291   .     A
C187   C191    1.412   .     S
C187   O216    1.292   .     A
C188   C192    1.412   .     S
C188   O215    1.292   .     A
C188   O214    1.291   .     A
C190   C13     1.520   1_565 S
C191   C896    1.192   1_554 S
C192   C543    1.192   .     S
C193   F221    1.359   .     S
C193   C203    1.399   .     A
C193   C197    1.394   .     A
C194   F222    1.359   .     S
C194   C204    1.404   .     A
C194   C198    1.395   .     A
C195   F223    1.359   .     S
C195   C199    1.400   .     A
C195   C204    1.403   .     A
C196   C200    1.398   .     A
C196   F224    1.359   .     S
C196   C203    1.399   .     A
C197   O225    1.382   .     S
C197   C201    1.415   .     A
C198   O230    1.383   .     S
C198   C202    1.404   .     A
C199   O235    1.386   .     S
C199   C202    1.403   .     A
C200   O240    1.384   .     S
C200   C201    1.418   .     A
C203   C292    1.466   1_455 S
C204   C291    1.466   .     S
Cu205  N208    2.019   .     S
Cu205  O209    1.953   .     S
Cu205  Cu206   2.688   .     S
Cu205  O215    1.938   .     S
Cu205  O211    1.956   .     S
Cu205  O213    1.937   .     S
Cu206  N207    2.019   .     S
Cu206  O214    1.937   .     S
Cu206  O210    1.953   .     S
Cu206  O216    1.938   .     S
Cu206  O212    1.956   .     S
O225   C226    1.410   .     S
C226   H228    1.109   .     S
C226   H229    1.114   .     S
C226   H227    1.113   .     S
O230   C231    1.409   .     S
C231   H232    1.113   .     S
C231   H233    1.109   .     S
C231   H234    1.113   .     S
O235   C236    1.413   .     S
C236   H239    1.114   .     S
C236   H238    1.109   .     S
C236   H237    1.110   .     S
O240   C241    1.412   .     S
C241   H243    1.109   .     S
C241   H244    1.112   .     S
C241   H242    1.114   .     S
O245   C246    1.407   .     S
C246   H249    1.109   .     S
C246   H248    1.114   .     S
H247   C70     1.111   1_565 S
O250   C251    1.409   .     S
C251   H252    1.114   .     S
C251   H253    1.109   .     S
C251   H78     1.112   1_565 S
O255   C256    1.407   .     S
C256   H259    1.109   .     S
C256   H258    1.114   .     S
H257   C80     1.111   1_565 S
O260   C261    1.409   .     S
C261   H262    1.114   .     S
C261   H263    1.109   .     S
C261   H88     1.112   1_565 S
C265   O297    1.303   .     A
C265   C289    1.476   .     S
C265   O300    1.297   .     A
C266   O299    1.292   .     A
C266   O298    1.293   .     A
C266   C290    1.448   .     S
C267   C271    1.410   .     A
C267   N295    1.363   .     A
C267   F305    1.356   .     S
C268   C272    1.411   .     A
C268   N296    1.375   .     A
C268   F306    1.350   .     S
C269   F307    1.355   .     S
C269   C273    1.410   .     A
C269   N295    1.363   .     A
C270   N296    1.375   .     A
C270   F308    1.349   .     S
C270   C274    1.412   .     A
C271   O333    1.381   .     S
C271   C277    1.418   .     A
C272   O338    1.382   .     S
C272   C278    1.412   .     A
C273   O343    1.381   .     S
C273   C277    1.419   .     A
C274   C278    1.412   .     A
C274   O348    1.382   .     S
C275   O301    1.291   .     A
C275   C279    1.412   .     S
C275   O304    1.292   .     A
C276   C280    1.412   .     S
C276   O303    1.292   .     A
C276   O302    1.291   .     A
C278   C101    1.520   1_565 S
C279   C984    1.192   1_554 S
C280   C631    1.192   .     S
C281   F309    1.359   .     S
C281   C291    1.399   .     A
C281   C285    1.394   .     A
C282   F310    1.359   .     S
C282   C292    1.404   .     A
C282   C286    1.395   .     A
C283   F311    1.359   .     S
C283   C287    1.400   .     A
C283   C292    1.403   .     A
C284   C288    1.398   .     A
C284   F312    1.359   .     S
C284   C291    1.399   .     A
C285   O313    1.382   .     S
C285   C289    1.415   .     A
C286   O318    1.383   .     S
C286   C290    1.404   .     A
C287   O323    1.386   .     S
C287   C290    1.403   .     A
C288   O328    1.384   .     S
C288   C289    1.418   .     A
C292   C203    1.466   1_655 S
Cu293  N296    2.019   .     S
Cu293  O297    1.953   .     S
Cu293  Cu294   2.688   .     S
Cu293  O303    1.938   .     S
Cu293  O299    1.956   .     S
Cu293  O301    1.937   .     S
Cu294  N295    2.019   .     S
Cu294  O302    1.937   .     S
Cu294  O298    1.953   .     S
Cu294  O304    1.938   .     S
Cu294  O300    1.956   .     S
O313   C314    1.410   .     S
C314   H316    1.109   .     S
C314   H317    1.114   .     S
C314   H315    1.113   .     S
O318   C319    1.409   .     S
C319   H320    1.113   .     S
C319   H321    1.109   .     S
C319   H322    1.113   .     S
O323   C324    1.413   .     S
C324   H327    1.114   .     S
C324   H326    1.109   .     S
C324   H325    1.110   .     S
O328   C329    1.412   .     S
C329   H331    1.109   .     S
C329   H332    1.112   .     S
C329   H330    1.114   .     S
O333   C334    1.407   .     S
C334   H337    1.109   .     S
C334   H336    1.114   .     S
H335   C158    1.111   1_565 S
O338   C339    1.409   .     S
C339   H340    1.114   .     S
C339   H341    1.109   .     S
C339   H166    1.112   1_565 S
O343   C344    1.407   .     S
C344   H347    1.109   .     S
C344   H346    1.114   .     S
H345   C168    1.111   1_565 S
O348   C349    1.409   .     S
C349   H350    1.114   .     S
C349   H351    1.109   .     S
C349   H176    1.112   1_565 S
C353   O385    1.303   .     A
C353   C377    1.476   .     S
C353   O388    1.297   .     A
C354   O387    1.292   .     A
C354   O386    1.293   .     A
C354   C378    1.448   .     S
C355   C359    1.410   .     A
C355   N383    1.363   .     A
C355   F393    1.356   .     S
C356   C360    1.411   .     A
C356   N384    1.375   .     A
C356   F394    1.350   .     S
C357   F395    1.355   .     S
C357   C361    1.410   .     A
C357   N383    1.363   .     A
C358   N384    1.375   .     A
C358   F396    1.349   .     S
C358   C362    1.412   .     A
C359   O421    1.381   .     S
C359   C365    1.418   .     A
C360   O426    1.382   .     S
C360   C366    1.412   .     A
C361   O431    1.381   .     S
C361   C365    1.419   .     A
C362   C366    1.412   .     A
C362   O436    1.382   .     S
C363   O389    1.291   .     A
C363   C367    1.412   .     S
C363   O392    1.292   .     A
C364   C368    1.412   .     S
C364   O391    1.292   .     A
C364   O390    1.291   .     A
C365   C542    1.520   1_545 S
C366   C541    1.520   .     S
C368   C719    1.192   .     S
C369   F397    1.359   .     S
C369   C379    1.399   .     A
C369   C373    1.394   .     A
C370   F398    1.359   .     S
C370   C380    1.404   .     A
C370   C374    1.395   .     A
C371   F399    1.359   .     S
C371   C375    1.400   .     A
C371   C380    1.403   .     A
C372   C376    1.398   .     A
C372   F400    1.359   .     S
C372   C379    1.399   .     A
C373   O401    1.382   .     S
C373   C377    1.415   .     A
C374   O406    1.383   .     S
C374   C378    1.404   .     A
C375   O411    1.386   .     S
C375   C378    1.403   .     A
C376   O416    1.384   .     S
C376   C377    1.418   .     A
C379   C468    1.466   1_455 S
C380   C467    1.466   .     S
Cu381  N384    2.019   .     S
Cu381  O385    1.953   .     S
Cu381  Cu382   2.688   .     S
Cu381  O391    1.938   .     S
Cu381  O387    1.956   .     S
Cu381  O389    1.937   .     S
Cu382  N383    2.019   .     S
Cu382  O390    1.937   .     S
Cu382  O386    1.953   .     S
Cu382  O392    1.938   .     S
Cu382  O388    1.956   .     S
O401   C402    1.410   .     S
C402   H404    1.109   .     S
C402   H405    1.114   .     S
C402   H403    1.113   .     S
O406   C407    1.409   .     S
C407   H408    1.113   .     S
C407   H409    1.109   .     S
C407   H410    1.113   .     S
O411   C412    1.413   .     S
C412   H415    1.114   .     S
C412   H414    1.109   .     S
C412   H413    1.110   .     S
O416   C417    1.412   .     S
C417   H419    1.109   .     S
C417   H420    1.112   .     S
C417   H418    1.114   .     S
O421   C422    1.407   .     S
C422   H425    1.109   .     S
C422   H424    1.114   .     S
C422   H599    1.111   1_545 S
H423   C598    1.111   .     S
O426   C427    1.409   .     S
C427   H428    1.114   .     S
C427   H429    1.109   .     S
C427   H606    1.112   .     S
H430   C603    1.112   1_545 S
O431   C432    1.407   .     S
C432   H435    1.109   .     S
C432   H434    1.114   .     S
C432   H609    1.111   1_545 S
H433   C608    1.111   .     S
O436   C437    1.409   .     S
C437   H438    1.114   .     S
C437   H439    1.109   .     S
C437   H616    1.112   .     S
H440   C613    1.112   1_545 S
C441   O473    1.303   .     A
C441   C465    1.476   .     S
C441   O476    1.297   .     A
C442   O475    1.292   .     A
C442   O474    1.293   .     A
C442   C466    1.448   .     S
C443   C447    1.410   .     A
C443   N471    1.363   .     A
C443   F481    1.356   .     S
C444   C448    1.411   .     A
C444   N472    1.375   .     A
C444   F482    1.350   .     S
C445   F483    1.355   .     S
C445   C449    1.410   .     A
C445   N471    1.363   .     A
C446   N472    1.375   .     A
C446   F484    1.349   .     S
C446   C450    1.412   .     A
C447   O509    1.381   .     S
C447   C453    1.418   .     A
C448   O514    1.382   .     S
C448   C454    1.412   .     A
C449   O519    1.381   .     S
C449   C453    1.419   .     A
C450   C454    1.412   .     A
C450   O524    1.382   .     S
C451   O477    1.291   .     A
C451   C455    1.412   .     S
C451   O480    1.292   .     A
C452   C456    1.412   .     S
C452   O479    1.292   .     A
C452   O478    1.291   .     A
C453   C630    1.520   1_545 S
C454   C629    1.520   .     S
C456   C807    1.192   .     S
C457   F485    1.359   .     S
C457   C467    1.399   .     A
C457   C461    1.394   .     A
C458   F486    1.359   .     S
C458   C468    1.404   .     A
C458   C462    1.395   .     A
C459   F487    1.359   .     S
C459   C463    1.400   .     A
C459   C468    1.403   .     A
C460   C464    1.398   .     A
C460   F488    1.359   .     S
C460   C467    1.399   .     A
C461   O489    1.382   .     S
C461   C465    1.415   .     A
C462   O494    1.383   .     S
C462   C466    1.404   .     A
C463   O499    1.386   .     S
C463   C466    1.403   .     A
C464   O504    1.384   .     S
C464   C465    1.418   .     A
C468   C379    1.466   1_655 S
Cu469  N472    2.019   .     S
Cu469  O473    1.953   .     S
Cu469  Cu470   2.688   .     S
Cu469  O479    1.938   .     S
Cu469  O475    1.956   .     S
Cu469  O477    1.937   .     S
Cu470  N471    2.019   .     S
Cu470  O478    1.937   .     S
Cu470  O474    1.953   .     S
Cu470  O480    1.938   .     S
Cu470  O476    1.956   .     S
O489   C490    1.410   .     S
C490   H492    1.109   .     S
C490   H493    1.114   .     S
C490   H491    1.113   .     S
O494   C495    1.409   .     S
C495   H496    1.113   .     S
C495   H497    1.109   .     S
C495   H498    1.113   .     S
O499   C500    1.413   .     S
C500   H503    1.114   .     S
C500   H502    1.109   .     S
C500   H501    1.110   .     S
O504   C505    1.412   .     S
C505   H507    1.109   .     S
C505   H508    1.112   .     S
C505   H506    1.114   .     S
O509   C510    1.407   .     S
C510   H513    1.109   .     S
C510   H512    1.114   .     S
C510   H687    1.111   1_545 S
H511   C686    1.111   .     S
O514   C515    1.409   .     S
C515   H516    1.114   .     S
C515   H517    1.109   .     S
C515   H694    1.112   .     S
H518   C691    1.112   1_545 S
O519   C520    1.407   .     S
C520   H523    1.109   .     S
C520   H522    1.114   .     S
C520   H697    1.111   1_545 S
H521   C696    1.111   .     S
O524   C525    1.409   .     S
C525   H526    1.114   .     S
C525   H527    1.109   .     S
C525   H704    1.112   .     S
H528   C701    1.112   1_545 S
C529   O561    1.303   .     A
C529   C553    1.476   .     S
C529   O564    1.297   .     A
C530   O563    1.292   .     A
C530   O562    1.293   .     A
C530   C554    1.448   .     S
C531   C535    1.410   .     A
C531   N559    1.363   .     A
C531   F569    1.356   .     S
C532   C536    1.411   .     A
C532   N560    1.375   .     A
C532   F570    1.350   .     S
C533   F571    1.355   .     S
C533   C537    1.410   .     A
C533   N559    1.363   .     A
C534   N560    1.375   .     A
C534   F572    1.349   .     S
C534   C538    1.412   .     A
C535   O597    1.381   .     S
C535   C541    1.418   .     A
C536   O602    1.382   .     S
C536   C542    1.412   .     A
C537   O607    1.381   .     S
C537   C541    1.419   .     A
C538   C542    1.412   .     A
C538   O612    1.382   .     S
C539   O565    1.291   .     A
C539   C543    1.412   .     S
C539   O568    1.292   .     A
C540   C544    1.412   .     S
C540   O567    1.292   .     A
C540   O566    1.291   .     A
C542   C365    1.520   1_565 S
C544   C895    1.192   .     S
C545   F573    1.359   .     S
C545   C555    1.399   .     A
C545   C549    1.394   .     A
C546   F574    1.359   .     S
C546   C556    1.404   .     A
C546   C550    1.395   .     A
C547   F575    1.359   .     S
C547   C551    1.400   .     A
C547   C556    1.403   .     A
C548   C552    1.398   .     A
C548   F576    1.359   .     S
C548   C555    1.399   .     A
C549   O577    1.382   .     S
C549   C553    1.415   .     A
C550   O582    1.383   .     S
C550   C554    1.404   .     A
C551   O587    1.386   .     S
C551   C554    1.403   .     A
C552   O592    1.384   .     S
C552   C553    1.418   .     A
C555   C644    1.466   1_455 S
C556   C643    1.466   .     S
Cu557  N560    2.019   .     S
Cu557  O561    1.953   .     S
Cu557  Cu558   2.688   .     S
Cu557  O567    1.938   .     S
Cu557  O563    1.956   .     S
Cu557  O565    1.937   .     S
Cu558  N559    2.019   .     S
Cu558  O566    1.937   .     S
Cu558  O562    1.953   .     S
Cu558  O568    1.938   .     S
Cu558  O564    1.956   .     S
O577   C578    1.410   .     S
C578   H580    1.109   .     S
C578   H581    1.114   .     S
C578   H579    1.113   .     S
O582   C583    1.409   .     S
C583   H584    1.113   .     S
C583   H585    1.109   .     S
C583   H586    1.113   .     S
O587   C588    1.413   .     S
C588   H591    1.114   .     S
C588   H590    1.109   .     S
C588   H589    1.110   .     S
O592   C593    1.412   .     S
C593   H595    1.109   .     S
C593   H596    1.112   .     S
C593   H594    1.114   .     S
O597   C598    1.407   .     S
C598   H601    1.109   .     S
C598   H600    1.114   .     S
H599   C422    1.111   1_565 S
O602   C603    1.409   .     S
C603   H604    1.114   .     S
C603   H605    1.109   .     S
C603   H430    1.112   1_565 S
O607   C608    1.407   .     S
C608   H611    1.109   .     S
C608   H610    1.114   .     S
H609   C432    1.111   1_565 S
O612   C613    1.409   .     S
C613   H614    1.114   .     S
C613   H615    1.109   .     S
C613   H440    1.112   1_565 S
C617   O649    1.303   .     A
C617   C641    1.476   .     S
C617   O652    1.297   .     A
C618   O651    1.292   .     A
C618   O650    1.293   .     A
C618   C642    1.448   .     S
C619   C623    1.410   .     A
C619   N647    1.363   .     A
C619   F657    1.356   .     S
C620   C624    1.411   .     A
C620   N648    1.375   .     A
C620   F658    1.350   .     S
C621   F659    1.355   .     S
C621   C625    1.410   .     A
C621   N647    1.363   .     A
C622   N648    1.375   .     A
C622   F660    1.349   .     S
C622   C626    1.412   .     A
C623   O685    1.381   .     S
C623   C629    1.418   .     A
C624   O690    1.382   .     S
C624   C630    1.412   .     A
C625   O695    1.381   .     S
C625   C629    1.419   .     A
C626   C630    1.412   .     A
C626   O700    1.382   .     S
C627   O653    1.291   .     A
C627   C631    1.412   .     S
C627   O656    1.292   .     A
C628   C632    1.412   .     S
C628   O655    1.292   .     A
C628   O654    1.291   .     A
C630   C453    1.520   1_565 S
C632   C983    1.192   .     S
C633   F661    1.359   .     S
C633   C643    1.399   .     A
C633   C637    1.394   .     A
C634   F662    1.359   .     S
C634   C644    1.404   .     A
C634   C638    1.395   .     A
C635   F663    1.359   .     S
C635   C639    1.400   .     A
C635   C644    1.403   .     A
C636   C640    1.398   .     A
C636   F664    1.359   .     S
C636   C643    1.399   .     A
C637   O665    1.382   .     S
C637   C641    1.415   .     A
C638   O670    1.383   .     S
C638   C642    1.404   .     A
C639   O675    1.386   .     S
C639   C642    1.403   .     A
C640   O680    1.384   .     S
C640   C641    1.418   .     A
C644   C555    1.466   1_655 S
Cu645  N648    2.019   .     S
Cu645  O649    1.953   .     S
Cu645  Cu646   2.688   .     S
Cu645  O655    1.938   .     S
Cu645  O651    1.956   .     S
Cu645  O653    1.937   .     S
Cu646  N647    2.019   .     S
Cu646  O654    1.937   .     S
Cu646  O650    1.953   .     S
Cu646  O656    1.938   .     S
Cu646  O652    1.956   .     S
O665   C666    1.410   .     S
C666   H668    1.109   .     S
C666   H669    1.114   .     S
C666   H667    1.113   .     S
O670   C671    1.409   .     S
C671   H672    1.113   .     S
C671   H673    1.109   .     S
C671   H674    1.113   .     S
O675   C676    1.413   .     S
C676   H679    1.114   .     S
C676   H678    1.109   .     S
C676   H677    1.110   .     S
O680   C681    1.412   .     S
C681   H683    1.109   .     S
C681   H684    1.112   .     S
C681   H682    1.114   .     S
O685   C686    1.407   .     S
C686   H689    1.109   .     S
C686   H688    1.114   .     S
H687   C510    1.111   1_565 S
O690   C691    1.409   .     S
C691   H692    1.114   .     S
C691   H693    1.109   .     S
C691   H518    1.112   1_565 S
O695   C696    1.407   .     S
C696   H699    1.109   .     S
C696   H698    1.114   .     S
H697   C520    1.111   1_565 S
O700   C701    1.409   .     S
C701   H702    1.114   .     S
C701   H703    1.109   .     S
C701   H528    1.112   1_565 S
C705   O737    1.303   .     A
C705   C729    1.476   .     S
C705   O740    1.297   .     A
C706   O739    1.292   .     A
C706   O738    1.293   .     A
C706   C730    1.448   .     S
C707   C711    1.410   .     A
C707   N735    1.363   .     A
C707   F745    1.356   .     S
C708   C712    1.411   .     A
C708   N736    1.375   .     A
C708   F746    1.350   .     S
C709   F747    1.355   .     S
C709   C713    1.410   .     A
C709   N735    1.363   .     A
C710   N736    1.375   .     A
C710   F748    1.349   .     S
C710   C714    1.412   .     A
C711   O773    1.381   .     S
C711   C717    1.418   .     A
C712   O778    1.382   .     S
C712   C718    1.412   .     A
C713   O783    1.381   .     S
C713   C717    1.419   .     A
C714   C718    1.412   .     A
C714   O788    1.382   .     S
C715   O741    1.291   .     A
C715   C719    1.412   .     S
C715   O744    1.292   .     A
C716   C720    1.412   .     S
C716   O743    1.292   .     A
C716   O742    1.291   .     A
C717   C894    1.520   1_545 S
C718   C893    1.520   .     S
C720   C15     1.192   1_556 S
C721   F749    1.359   .     S
C721   C731    1.399   .     A
C721   C725    1.394   .     A
C722   F750    1.359   .     S
C722   C732    1.404   .     A
C722   C726    1.395   .     A
C723   F751    1.359   .     S
C723   C727    1.400   .     A
C723   C732    1.403   .     A
C724   C728    1.398   .     A
C724   F752    1.359   .     S
C724   C731    1.399   .     A
C725   O753    1.382   .     S
C725   C729    1.415   .     A
C726   O758    1.383   .     S
C726   C730    1.404   .     A
C727   O763    1.386   .     S
C727   C730    1.403   .     A
C728   O768    1.384   .     S
C728   C729    1.418   .     A
C731   C820    1.466   1_455 S
C732   C819    1.466   .     S
Cu733  N736    2.019   .     S
Cu733  O737    1.953   .     S
Cu733  Cu734   2.688   .     S
Cu733  O743    1.938   .     S
Cu733  O739    1.956   .     S
Cu733  O741    1.937   .     S
Cu734  N735    2.019   .     S
Cu734  O742    1.937   .     S
Cu734  O738    1.953   .     S
Cu734  O744    1.938   .     S
Cu734  O740    1.956   .     S
O753   C754    1.410   .     S
C754   H756    1.109   .     S
C754   H757    1.114   .     S
C754   H755    1.113   .     S
O758   C759    1.409   .     S
C759   H760    1.113   .     S
C759   H761    1.109   .     S
C759   H762    1.113   .     S
O763   C764    1.413   .     S
C764   H767    1.114   .     S
C764   H766    1.109   .     S
C764   H765    1.110   .     S
O768   C769    1.412   .     S
C769   H771    1.109   .     S
C769   H772    1.112   .     S
C769   H770    1.114   .     S
O773   C774    1.407   .     S
C774   H777    1.109   .     S
C774   H776    1.114   .     S
C774   H951    1.111   1_545 S
H775   C950    1.111   .     S
O778   C779    1.409   .     S
C779   H780    1.114   .     S
C779   H781    1.109   .     S
C779   H958    1.112   .     S
H782   C955    1.112   1_545 S
O783   C784    1.407   .     S
C784   H787    1.109   .     S
C784   H786    1.114   .     S
C784   H961    1.111   1_545 S
H785   C960    1.111   .     S
O788   C789    1.409   .     S
C789   H790    1.114   .     S
C789   H791    1.109   .     S
C789   H968    1.112   .     S
H792   C965    1.112   1_545 S
C793   O825    1.303   .     A
C793   C817    1.476   .     S
C793   O828    1.297   .     A
C794   O827    1.292   .     A
C794   O826    1.293   .     A
C794   C818    1.448   .     S
C795   C799    1.410   .     A
C795   N823    1.363   .     A
C795   F833    1.356   .     S
C796   C800    1.411   .     A
C796   N824    1.375   .     A
C796   F834    1.350   .     S
C797   F835    1.355   .     S
C797   C801    1.410   .     A
C797   N823    1.363   .     A
C798   N824    1.375   .     A
C798   F836    1.349   .     S
C798   C802    1.412   .     A
C799   O861    1.381   .     S
C799   C805    1.418   .     A
C800   O866    1.382   .     S
C800   C806    1.412   .     A
C801   O871    1.381   .     S
C801   C805    1.419   .     A
C802   C806    1.412   .     A
C802   O876    1.382   .     S
C803   O829    1.291   .     A
C803   C807    1.412   .     S
C803   O832    1.292   .     A
C804   C808    1.412   .     S
C804   O831    1.292   .     A
C804   O830    1.291   .     A
C805   C982    1.520   1_545 S
C806   C981    1.520   .     S
C808   C103    1.192   1_556 S
C809   F837    1.359   .     S
C809   C819    1.399   .     A
C809   C813    1.394   .     A
C810   F838    1.359   .     S
C810   C820    1.404   .     A
C810   C814    1.395   .     A
C811   F839    1.359   .     S
C811   C815    1.400   .     A
C811   C820    1.403   .     A
C812   C816    1.398   .     A
C812   F840    1.359   .     S
C812   C819    1.399   .     A
C813   O841    1.382   .     S
C813   C817    1.415   .     A
C814   O846    1.383   .     S
C814   C818    1.404   .     A
C815   O851    1.386   .     S
C815   C818    1.403   .     A
C816   O856    1.384   .     S
C816   C817    1.418   .     A
C820   C731    1.466   1_655 S
Cu821  N824    2.019   .     S
Cu821  O825    1.953   .     S
Cu821  Cu822   2.688   .     S
Cu821  O831    1.938   .     S
Cu821  O827    1.956   .     S
Cu821  O829    1.937   .     S
Cu822  N823    2.019   .     S
Cu822  O830    1.937   .     S
Cu822  O826    1.953   .     S
Cu822  O832    1.938   .     S
Cu822  O828    1.956   .     S
O841   C842    1.410   .     S
C842   H844    1.109   .     S
C842   H845    1.114   .     S
C842   H843    1.113   .     S
O846   C847    1.409   .     S
C847   H848    1.113   .     S
C847   H849    1.109   .     S
C847   H850    1.113   .     S
O851   C852    1.413   .     S
C852   H855    1.114   .     S
C852   H854    1.109   .     S
C852   H853    1.110   .     S
O856   C857    1.412   .     S
C857   H859    1.109   .     S
C857   H860    1.112   .     S
C857   H858    1.114   .     S
O861   C862    1.407   .     S
C862   H865    1.109   .     S
C862   H864    1.114   .     S
C862   H1039   1.111   1_545 S
H863   C1038   1.111   .     S
O866   C867    1.409   .     S
C867   H868    1.114   .     S
C867   H869    1.109   .     S
C867   H1046   1.112   .     S
H870   C1043   1.112   1_545 S
O871   C872    1.407   .     S
C872   H875    1.109   .     S
C872   H874    1.114   .     S
C872   H1049   1.111   1_545 S
H873   C1048   1.111   .     S
O876   C877    1.409   .     S
C877   H878    1.114   .     S
C877   H879    1.109   .     S
C877   H1056   1.112   .     S
H880   C1053   1.112   1_545 S
C881   O913    1.303   .     A
C881   C905    1.476   .     S
C881   O916    1.297   .     A
C882   O915    1.292   .     A
C882   O914    1.293   .     A
C882   C906    1.448   .     S
C883   C887    1.410   .     A
C883   N911    1.363   .     A
C883   F921    1.356   .     S
C884   C888    1.411   .     A
C884   N912    1.375   .     A
C884   F922    1.350   .     S
C885   F923    1.355   .     S
C885   C889    1.410   .     A
C885   N911    1.363   .     A
C886   N912    1.375   .     A
C886   F924    1.349   .     S
C886   C890    1.412   .     A
C887   O949    1.381   .     S
C887   C893    1.418   .     A
C888   O954    1.382   .     S
C888   C894    1.412   .     A
C889   O959    1.381   .     S
C889   C893    1.419   .     A
C890   C894    1.412   .     A
C890   O964    1.382   .     S
C891   O917    1.291   .     A
C891   C895    1.412   .     S
C891   O920    1.292   .     A
C892   C896    1.412   .     S
C892   O919    1.292   .     A
C892   O918    1.291   .     A
C894   C717    1.520   1_565 S
C896   C191    1.192   1_556 S
C897   F925    1.359   .     S
C897   C907    1.399   .     A
C897   C901    1.394   .     A
C898   F926    1.359   .     S
C898   C908    1.404   .     A
C898   C902    1.395   .     A
C899   F927    1.359   .     S
C899   C903    1.400   .     A
C899   C908    1.403   .     A
C900   C904    1.398   .     A
C900   F928    1.359   .     S
C900   C907    1.399   .     A
C901   O929    1.382   .     S
C901   C905    1.415   .     A
C902   O934    1.383   .     S
C902   C906    1.404   .     A
C903   O939    1.386   .     S
C903   C906    1.403   .     A
C904   O944    1.384   .     S
C904   C905    1.418   .     A
C907   C996    1.466   1_455 S
C908   C995    1.466   .     S
Cu909  N912    2.019   .     S
Cu909  O913    1.953   .     S
Cu909  Cu910   2.688   .     S
Cu909  O919    1.938   .     S
Cu909  O915    1.956   .     S
Cu909  O917    1.937   .     S
Cu910  N911    2.019   .     S
Cu910  O918    1.937   .     S
Cu910  O914    1.953   .     S
Cu910  O920    1.938   .     S
Cu910  O916    1.956   .     S
O929   C930    1.410   .     S
C930   H932    1.109   .     S
C930   H933    1.114   .     S
C930   H931    1.113   .     S
O934   C935    1.409   .     S
C935   H936    1.113   .     S
C935   H937    1.109   .     S
C935   H938    1.113   .     S
O939   C940    1.413   .     S
C940   H943    1.114   .     S
C940   H942    1.109   .     S
C940   H941    1.110   .     S
O944   C945    1.412   .     S
C945   H947    1.109   .     S
C945   H948    1.112   .     S
C945   H946    1.114   .     S
O949   C950    1.407   .     S
C950   H953    1.109   .     S
C950   H952    1.114   .     S
H951   C774    1.111   1_565 S
O954   C955    1.409   .     S
C955   H956    1.114   .     S
C955   H957    1.109   .     S
C955   H782    1.112   1_565 S
O959   C960    1.407   .     S
C960   H963    1.109   .     S
C960   H962    1.114   .     S
H961   C784    1.111   1_565 S
O964   C965    1.409   .     S
C965   H966    1.114   .     S
C965   H967    1.109   .     S
C965   H792    1.112   1_565 S
C969   O1001   1.303   .     A
C969   C993    1.476   .     S
C969   O1004   1.297   .     A
C970   O1003   1.292   .     A
C970   O1002   1.293   .     A
C970   C994    1.448   .     S
C971   C975    1.410   .     A
C971   N999    1.363   .     A
C971   F1009   1.356   .     S
C972   C976    1.411   .     A
C972   N1000   1.375   .     A
C972   F1010   1.350   .     S
C973   F1011   1.355   .     S
C973   C977    1.410   .     A
C973   N999    1.363   .     A
C974   N1000   1.375   .     A
C974   F1012   1.349   .     S
C974   C978    1.412   .     A
C975   O1037   1.381   .     S
C975   C981    1.418   .     A
C976   O1042   1.382   .     S
C976   C982    1.412   .     A
C977   O1047   1.381   .     S
C977   C981    1.419   .     A
C978   C982    1.412   .     A
C978   O1052   1.382   .     S
C979   O1005   1.291   .     A
C979   C983    1.412   .     S
C979   O1008   1.292   .     A
C980   C984    1.412   .     S
C980   O1007   1.292   .     A
C980   O1006   1.291   .     A
C982   C805    1.520   1_565 S
C984   C279    1.192   1_556 S
C985   F1013   1.359   .     S
C985   C995    1.399   .     A
C985   C989    1.394   .     A
C986   F1014   1.359   .     S
C986   C996    1.404   .     A
C986   C990    1.395   .     A
C987   F1015   1.359   .     S
C987   C991    1.400   .     A
C987   C996    1.403   .     A
C988   C992    1.398   .     A
C988   F1016   1.359   .     S
C988   C995    1.399   .     A
C989   O1017   1.382   .     S
C989   C993    1.415   .     A
C990   O1022   1.383   .     S
C990   C994    1.404   .     A
C991   O1027   1.386   .     S
C991   C994    1.403   .     A
C992   O1032   1.384   .     S
C992   C993    1.418   .     A
C996   C907    1.466   1_655 S
Cu997  N1000   2.019   .     S
Cu997  O1001   1.953   .     S
Cu997  Cu998   2.688   .     S
Cu997  O1007   1.938   .     S
Cu997  O1003   1.956   .     S
Cu997  O1005   1.937   .     S
Cu998  N999    2.019   .     S
Cu998  O1006   1.937   .     S
Cu998  O1002   1.953   .     S
Cu998  O1008   1.938   .     S
Cu998  O1004   1.956   .     S
O1017  C1018   1.410   .     S
C1018  H1020   1.109   .     S
C1018  H1021   1.114   .     S
C1018  H1019   1.113   .     S
O1022  C1023   1.409   .     S
C1023  H1024   1.113   .     S
C1023  H1025   1.109   .     S
C1023  H1026   1.113   .     S
O1027  C1028   1.413   .     S
C1028  H1031   1.114   .     S
C1028  H1030   1.109   .     S
C1028  H1029   1.110   .     S
O1032  C1033   1.412   .     S
C1033  H1035   1.109   .     S
C1033  H1036   1.112   .     S
C1033  H1034   1.114   .     S
O1037  C1038   1.407   .     S
C1038  H1041   1.109   .     S
C1038  H1040   1.114   .     S
H1039  C862    1.111   1_565 S
O1042  C1043   1.409   .     S
C1043  H1044   1.114   .     S
C1043  H1045   1.109   .     S
C1043  H870    1.112   1_565 S
O1047  C1048   1.407   .     S
C1048  H1051   1.109   .     S
C1048  H1050   1.114   .     S
H1049  C872    1.111   1_565 S
O1052  C1053   1.409   .     S
C1053  H1054   1.114   .     S
C1053  H1055   1.109   .     S
C1053  H880    1.112   1_565 S
