data_str_m2_o1_o17_pcu_sym.138
_audit_creation_date              2020-01-03
_audit_creation_method            'Materials Studio'
_symmetry_space_group_name_H-M    'P1'
_symmetry_Int_Tables_number       1
_symmetry_cell_setting            triclinic
loop_
_symmetry_equiv_pos_as_xyz
  x,y,z
_cell_length_a                    32.7926
_cell_length_b                    28.7239
_cell_length_c                    30.0255
_cell_angle_alpha                 90.0148
_cell_angle_beta                  92.1955
_cell_angle_gamma                 90.1020
loop_
_atom_site_label
_atom_site_type_symbol
_atom_site_fract_x
_atom_site_fract_y
_atom_site_fract_z
_atom_site_U_iso_or_equiv
_atom_site_adp_type
_atom_site_occupancy
O1     O     0.10655   0.20625   0.24999   0.00000  Uiso   1.00
O2     O     0.22679   0.12709   0.25000   0.00000  Uiso   1.00
O3     O     0.22679   0.20625   0.25000   0.00000  Uiso   1.00
O4     O     0.10655   0.12709   0.24999   0.00000  Uiso   1.00
C5     C     0.08753   0.16664   0.25284   0.00000  Uiso   1.00
C6     C     0.24581   0.16670   0.24716   0.00000  Uiso   1.00
O7     O     0.16666   0.20627   0.18513   0.00000  Uiso   1.00
O8     O     0.16668   0.12707   0.31487   0.00000  Uiso   1.00
O9     O     0.16668   0.20627   0.31487   0.00000  Uiso   1.00
O10    O     0.16666   0.12707   0.18513   0.00000  Uiso   1.00
C11    C     0.16609   0.16665   0.16460   0.00000  Uiso   1.00
C12    C     0.16724   0.16669   0.33540   0.00000  Uiso   1.00
Cu13   Cu    0.16667   0.21355   0.25000   0.00000  Uiso   1.00
Cu14   Cu    0.16667   0.11978   0.25000   0.00000  Uiso   1.00
C15    C     0.20602   0.15867   0.40821   0.00000  Uiso   1.00
C16    C     0.12731   0.17466   0.09179   0.00000  Uiso   1.00
C17    C     0.16914   0.16681   0.38363   0.00000  Uiso   1.00
C18    C     0.16419   0.16653   0.11637   0.00000  Uiso   1.00
C19    C     0.13318   0.17623   0.40457   0.00000  Uiso   1.00
C20    C     0.20015   0.15710   0.09543   0.00000  Uiso   1.00
C21    C     0.13256   0.17781   0.45061   0.00000  Uiso   1.00
C22    C     0.20077   0.15552   0.04939   0.00000  Uiso   1.00
C23    C     0.16775   0.16635   0.47655   0.00000  Uiso   1.00
C24    C     0.16558   0.16698   0.02345   0.00000  Uiso   1.00
C25    C     0.20485   0.15422   0.45559   0.00000  Uiso   1.00
C26    C     0.12848   0.17911   0.04441   0.00000  Uiso   1.00
C27    C     0.09700   0.19192   0.47053   0.00000  Uiso   1.00
C28    C     0.23633   0.14140   0.02947   0.00000  Uiso   1.00
C29    C     0.09476   0.19485   0.01678   0.00000  Uiso   1.00
C30    C     0.23857   0.13848   0.48322   0.00000  Uiso   1.00
H31    H     0.10566   0.18370   0.38457   0.00000  Uiso   1.00
H32    H     0.22767   0.14963   0.11543   0.00000  Uiso   1.00
H33    H     0.07096   0.20241   0.44949   0.00000  Uiso   1.00
H34    H     0.26237   0.13091   0.05051   0.00000  Uiso   1.00
C35    C     0.02093   0.12406   0.25385   0.00000  Uiso   1.00
C36    C     0.31241   0.20927   0.24615   0.00000  Uiso   1.00
C37    C     0.31224   0.12414   0.24556   0.00000  Uiso   1.00
C38    C     0.02110   0.20919   0.25444   0.00000  Uiso   1.00
C39    C     0.29056   0.16672   0.24490   0.00000  Uiso   1.00
C40    C     0.04278   0.16661   0.25510   0.00000  Uiso   1.00
C41    C     0.14184   0.02466   0.22062   0.00000  Uiso   1.00
C42    C     0.19150   0.30867   0.27938   0.00000  Uiso   1.00
C43    C     0.19151   0.02475   0.27936   0.00000  Uiso   1.00
C44    C     0.14182   0.30858   0.22064   0.00000  Uiso   1.00
N45    N     0.16667   0.28402   0.25000   0.00000  Uiso   1.00
N46    N     0.16667   0.04931   0.25000   0.00000  Uiso   1.00
C47    C     0.24583   0.16167   0.38407   0.00000  Uiso   1.00
H48    H     0.26733   0.18536   0.40235   0.00000  Uiso   1.00
H49    H     0.25921   0.12677   0.37937   0.00000  Uiso   1.00
H50    H     0.24218   0.17721   0.35040   0.00000  Uiso   1.00
C51    C     0.08750   0.17166   0.11593   0.00000  Uiso   1.00
H52    H     0.06601   0.14796   0.09766   0.00000  Uiso   1.00
H53    H     0.09116   0.15613   0.14961   0.00000  Uiso   1.00
H54    H     0.07411   0.20656   0.12063   0.00000  Uiso   1.00
C55    C     0.05797   0.22001   0.03379   0.00000  Uiso   1.00
H56    H     0.04059   0.23829   0.00654   0.00000  Uiso   1.00
H57    H     0.03619   0.19541   0.04843   0.00000  Uiso   1.00
H58    H     0.06787   0.24757   0.05775   0.00000  Uiso   1.00
C59    C     0.27535   0.11330   0.46621   0.00000  Uiso   1.00
H60    H     0.29272   0.09501   0.49345   0.00000  Uiso   1.00
H61    H     0.26545   0.08575   0.44224   0.00000  Uiso   1.00
H62    H     0.29714   0.13790   0.45157   0.00000  Uiso   1.00
Cl63   Cl    0.04399   0.06958   0.26712   0.00000  Uiso   1.00
Cl64   Cl    0.28934   0.26375   0.23288   0.00000  Uiso   1.00
Cl65   Cl    0.28894   0.06987   0.23150   0.00000  Uiso   1.00
Cl66   Cl    0.04439   0.26346   0.26850   0.00000  Uiso   1.00
Cl67   Cl    0.10919   0.05381   0.18187   0.00000  Uiso   1.00
Cl68   Cl    0.22414   0.27952   0.31813   0.00000  Uiso   1.00
Cl69   Cl    0.22427   0.05400   0.31796   0.00000  Uiso   1.00
Cl70   Cl    0.10906   0.27934   0.18204   0.00000  Uiso   1.00
O71    O     0.43988   0.20625   0.24999   0.00000  Uiso   1.00
O72    O     0.56012   0.12709   0.25000   0.00000  Uiso   1.00
O73    O     0.56012   0.20625   0.25000   0.00000  Uiso   1.00
O74    O     0.43988   0.12709   0.24999   0.00000  Uiso   1.00
C75    C     0.42086   0.16664   0.25284   0.00000  Uiso   1.00
C76    C     0.57914   0.16670   0.24716   0.00000  Uiso   1.00
O77    O     0.49999   0.20627   0.18513   0.00000  Uiso   1.00
O78    O     0.50001   0.12707   0.31487   0.00000  Uiso   1.00
O79    O     0.50001   0.20627   0.31487   0.00000  Uiso   1.00
O80    O     0.49999   0.12707   0.18513   0.00000  Uiso   1.00
C81    C     0.49943   0.16665   0.16460   0.00000  Uiso   1.00
C82    C     0.50057   0.16669   0.33540   0.00000  Uiso   1.00
Cu83   Cu    0.50000   0.21355   0.25000   0.00000  Uiso   1.00
Cu84   Cu    0.50000   0.11978   0.25000   0.00000  Uiso   1.00
C85    C     0.53935   0.15867   0.40821   0.00000  Uiso   1.00
C86    C     0.46064   0.17466   0.09179   0.00000  Uiso   1.00
C87    C     0.50248   0.16681   0.38363   0.00000  Uiso   1.00
C88    C     0.49752   0.16653   0.11637   0.00000  Uiso   1.00
C89    C     0.46651   0.17623   0.40457   0.00000  Uiso   1.00
C90    C     0.53348   0.15710   0.09543   0.00000  Uiso   1.00
C91    C     0.46589   0.17781   0.45061   0.00000  Uiso   1.00
C92    C     0.53410   0.15552   0.04939   0.00000  Uiso   1.00
C93    C     0.50109   0.16635   0.47655   0.00000  Uiso   1.00
C94    C     0.49891   0.16698   0.02345   0.00000  Uiso   1.00
C95    C     0.53819   0.15422   0.45559   0.00000  Uiso   1.00
C96    C     0.46181   0.17911   0.04441   0.00000  Uiso   1.00
C97    C     0.43033   0.19192   0.47053   0.00000  Uiso   1.00
C98    C     0.56966   0.14140   0.02947   0.00000  Uiso   1.00
C99    C     0.42809   0.19485   0.01678   0.00000  Uiso   1.00
C100   C     0.57190   0.13848   0.48322   0.00000  Uiso   1.00
H101   H     0.43900   0.18370   0.38457   0.00000  Uiso   1.00
H102   H     0.56100   0.14963   0.11543   0.00000  Uiso   1.00
H103   H     0.40430   0.20241   0.44949   0.00000  Uiso   1.00
H104   H     0.59570   0.13091   0.05051   0.00000  Uiso   1.00
C105   C     0.35426   0.12406   0.25385   0.00000  Uiso   1.00
C106   C     0.64574   0.20927   0.24615   0.00000  Uiso   1.00
C107   C     0.64557   0.12414   0.24556   0.00000  Uiso   1.00
C108   C     0.35443   0.20919   0.25444   0.00000  Uiso   1.00
C109   C     0.62389   0.16672   0.24490   0.00000  Uiso   1.00
C110   C     0.37611   0.16661   0.25510   0.00000  Uiso   1.00
C111   C     0.47517   0.02466   0.22062   0.00000  Uiso   1.00
C112   C     0.52483   0.30867   0.27938   0.00000  Uiso   1.00
C113   C     0.52484   0.02475   0.27936   0.00000  Uiso   1.00
C114   C     0.47516   0.30858   0.22064   0.00000  Uiso   1.00
N115   N     0.50000   0.28402   0.25000   0.00000  Uiso   1.00
N116   N     0.50000   0.04931   0.25000   0.00000  Uiso   1.00
C117   C     0.57916   0.16167   0.38407   0.00000  Uiso   1.00
H118   H     0.60066   0.18536   0.40235   0.00000  Uiso   1.00
H119   H     0.59255   0.12677   0.37937   0.00000  Uiso   1.00
H120   H     0.57551   0.17721   0.35040   0.00000  Uiso   1.00
C121   C     0.42084   0.17166   0.11593   0.00000  Uiso   1.00
H122   H     0.39934   0.14796   0.09766   0.00000  Uiso   1.00
H123   H     0.42449   0.15613   0.14961   0.00000  Uiso   1.00
H124   H     0.40745   0.20656   0.12063   0.00000  Uiso   1.00
C125   C     0.39131   0.22001   0.03379   0.00000  Uiso   1.00
H126   H     0.37392   0.23829   0.00654   0.00000  Uiso   1.00
H127   H     0.36952   0.19541   0.04843   0.00000  Uiso   1.00
H128   H     0.40120   0.24757   0.05775   0.00000  Uiso   1.00
C129   C     0.60868   0.11330   0.46621   0.00000  Uiso   1.00
H130   H     0.62606   0.09501   0.49345   0.00000  Uiso   1.00
H131   H     0.59878   0.08575   0.44224   0.00000  Uiso   1.00
H132   H     0.63047   0.13790   0.45157   0.00000  Uiso   1.00
Cl133  Cl    0.37733   0.06958   0.26712   0.00000  Uiso   1.00
Cl134  Cl    0.62267   0.26375   0.23288   0.00000  Uiso   1.00
Cl135  Cl    0.62227   0.06987   0.23150   0.00000  Uiso   1.00
Cl136  Cl    0.37773   0.26346   0.26850   0.00000  Uiso   1.00
Cl137  Cl    0.44253   0.05381   0.18187   0.00000  Uiso   1.00
Cl138  Cl    0.55747   0.27952   0.31813   0.00000  Uiso   1.00
Cl139  Cl    0.55761   0.05400   0.31796   0.00000  Uiso   1.00
Cl140  Cl    0.44239   0.27934   0.18204   0.00000  Uiso   1.00
O141   O     0.77321   0.20625   0.24999   0.00000  Uiso   1.00
O142   O     0.89345   0.12709   0.25000   0.00000  Uiso   1.00
O143   O     0.89345   0.20625   0.25000   0.00000  Uiso   1.00
O144   O     0.77321   0.12709   0.24999   0.00000  Uiso   1.00
C145   C     0.75419   0.16664   0.25284   0.00000  Uiso   1.00
C146   C     0.91247   0.16670   0.24716   0.00000  Uiso   1.00
O147   O     0.83332   0.20627   0.18513   0.00000  Uiso   1.00
O148   O     0.83334   0.12707   0.31487   0.00000  Uiso   1.00
O149   O     0.83334   0.20627   0.31487   0.00000  Uiso   1.00
O150   O     0.83332   0.12707   0.18513   0.00000  Uiso   1.00
C151   C     0.83276   0.16665   0.16460   0.00000  Uiso   1.00
C152   C     0.83391   0.16669   0.33540   0.00000  Uiso   1.00
Cu153  Cu    0.83333   0.21355   0.25000   0.00000  Uiso   1.00
Cu154  Cu    0.83333   0.11978   0.25000   0.00000  Uiso   1.00
C155   C     0.87269   0.15867   0.40821   0.00000  Uiso   1.00
C156   C     0.79398   0.17466   0.09179   0.00000  Uiso   1.00
C157   C     0.83581   0.16681   0.38363   0.00000  Uiso   1.00
C158   C     0.83085   0.16653   0.11637   0.00000  Uiso   1.00
C159   C     0.79985   0.17623   0.40457   0.00000  Uiso   1.00
C160   C     0.86682   0.15710   0.09543   0.00000  Uiso   1.00
C161   C     0.79923   0.17781   0.45061   0.00000  Uiso   1.00
C162   C     0.86744   0.15552   0.04939   0.00000  Uiso   1.00
C163   C     0.83442   0.16635   0.47655   0.00000  Uiso   1.00
C164   C     0.83224   0.16698   0.02345   0.00000  Uiso   1.00
C165   C     0.87152   0.15422   0.45559   0.00000  Uiso   1.00
C166   C     0.79514   0.17911   0.04441   0.00000  Uiso   1.00
C167   C     0.76367   0.19192   0.47053   0.00000  Uiso   1.00
C168   C     0.90299   0.14140   0.02947   0.00000  Uiso   1.00
C169   C     0.76143   0.19485   0.01678   0.00000  Uiso   1.00
C170   C     0.90523   0.13848   0.48322   0.00000  Uiso   1.00
H171   H     0.77233   0.18370   0.38457   0.00000  Uiso   1.00
H172   H     0.89434   0.14963   0.11543   0.00000  Uiso   1.00
H173   H     0.73763   0.20241   0.44949   0.00000  Uiso   1.00
H174   H     0.92903   0.13091   0.05051   0.00000  Uiso   1.00
C175   C     0.68759   0.12406   0.25385   0.00000  Uiso   1.00
C176   C     0.97907   0.20927   0.24615   0.00000  Uiso   1.00
C177   C     0.97890   0.12414   0.24556   0.00000  Uiso   1.00
C178   C     0.68776   0.20919   0.25444   0.00000  Uiso   1.00
C179   C     0.95722   0.16672   0.24490   0.00000  Uiso   1.00
C180   C     0.70944   0.16661   0.25510   0.00000  Uiso   1.00
C181   C     0.80850   0.02466   0.22062   0.00000  Uiso   1.00
C182   C     0.85816   0.30867   0.27938   0.00000  Uiso   1.00
C183   C     0.85818   0.02475   0.27936   0.00000  Uiso   1.00
C184   C     0.80849   0.30858   0.22064   0.00000  Uiso   1.00
N185   N     0.83333   0.28402   0.25000   0.00000  Uiso   1.00
N186   N     0.83333   0.04931   0.25000   0.00000  Uiso   1.00
C187   C     0.91250   0.16167   0.38407   0.00000  Uiso   1.00
H188   H     0.93399   0.18536   0.40235   0.00000  Uiso   1.00
H189   H     0.92588   0.12677   0.37937   0.00000  Uiso   1.00
H190   H     0.90884   0.17721   0.35040   0.00000  Uiso   1.00
C191   C     0.75417   0.17166   0.11593   0.00000  Uiso   1.00
H192   H     0.73267   0.14796   0.09766   0.00000  Uiso   1.00
H193   H     0.75783   0.15613   0.14961   0.00000  Uiso   1.00
H194   H     0.74078   0.20656   0.12063   0.00000  Uiso   1.00
C195   C     0.72464   0.22001   0.03379   0.00000  Uiso   1.00
H196   H     0.70725   0.23829   0.00654   0.00000  Uiso   1.00
H197   H     0.70285   0.19541   0.04843   0.00000  Uiso   1.00
H198   H     0.73453   0.24757   0.05775   0.00000  Uiso   1.00
C199   C     0.94201   0.11330   0.46621   0.00000  Uiso   1.00
H200   H     0.95939   0.09501   0.49345   0.00000  Uiso   1.00
H201   H     0.93211   0.08575   0.44224   0.00000  Uiso   1.00
H202   H     0.96381   0.13790   0.45157   0.00000  Uiso   1.00
Cl203  Cl    0.71066   0.06958   0.26712   0.00000  Uiso   1.00
Cl204  Cl    0.95601   0.26375   0.23288   0.00000  Uiso   1.00
Cl205  Cl    0.95561   0.06987   0.23150   0.00000  Uiso   1.00
Cl206  Cl    0.71106   0.26346   0.26850   0.00000  Uiso   1.00
Cl207  Cl    0.77586   0.05381   0.18187   0.00000  Uiso   1.00
Cl208  Cl    0.89081   0.27952   0.31813   0.00000  Uiso   1.00
Cl209  Cl    0.89094   0.05400   0.31796   0.00000  Uiso   1.00
Cl210  Cl    0.77573   0.27934   0.18204   0.00000  Uiso   1.00
O211   O     0.10655   0.53958   0.24999   0.00000  Uiso   1.00
O212   O     0.22679   0.46042   0.25000   0.00000  Uiso   1.00
O213   O     0.22679   0.53958   0.25000   0.00000  Uiso   1.00
O214   O     0.10655   0.46042   0.24999   0.00000  Uiso   1.00
C215   C     0.08753   0.49997   0.25284   0.00000  Uiso   1.00
C216   C     0.24581   0.50003   0.24716   0.00000  Uiso   1.00
O217   O     0.16666   0.53960   0.18513   0.00000  Uiso   1.00
O218   O     0.16668   0.46040   0.31487   0.00000  Uiso   1.00
O219   O     0.16668   0.53960   0.31487   0.00000  Uiso   1.00
O220   O     0.16666   0.46040   0.18513   0.00000  Uiso   1.00
C221   C     0.16609   0.49998   0.16460   0.00000  Uiso   1.00
C222   C     0.16724   0.50002   0.33540   0.00000  Uiso   1.00
Cu223  Cu    0.16667   0.54689   0.25000   0.00000  Uiso   1.00
Cu224  Cu    0.16667   0.45311   0.25000   0.00000  Uiso   1.00
C225   C     0.20602   0.49200   0.40821   0.00000  Uiso   1.00
C226   C     0.12731   0.50799   0.09179   0.00000  Uiso   1.00
C227   C     0.16914   0.50014   0.38363   0.00000  Uiso   1.00
C228   C     0.16419   0.49986   0.11637   0.00000  Uiso   1.00
C229   C     0.13318   0.50956   0.40457   0.00000  Uiso   1.00
C230   C     0.20015   0.49044   0.09543   0.00000  Uiso   1.00
C231   C     0.13256   0.51114   0.45061   0.00000  Uiso   1.00
C232   C     0.20077   0.48886   0.04939   0.00000  Uiso   1.00
C233   C     0.16775   0.49968   0.47655   0.00000  Uiso   1.00
C234   C     0.16558   0.50032   0.02345   0.00000  Uiso   1.00
C235   C     0.20485   0.48756   0.45559   0.00000  Uiso   1.00
C236   C     0.12848   0.51244   0.04441   0.00000  Uiso   1.00
C237   C     0.09700   0.52526   0.47053   0.00000  Uiso   1.00
C238   C     0.23633   0.47474   0.02947   0.00000  Uiso   1.00
C239   C     0.09476   0.52818   0.01678   0.00000  Uiso   1.00
C240   C     0.23857   0.47181   0.48322   0.00000  Uiso   1.00
H241   H     0.10566   0.51703   0.38457   0.00000  Uiso   1.00
H242   H     0.22767   0.48297   0.11543   0.00000  Uiso   1.00
H243   H     0.07096   0.53575   0.44949   0.00000  Uiso   1.00
H244   H     0.26237   0.46424   0.05051   0.00000  Uiso   1.00
C245   C     0.02093   0.45739   0.25385   0.00000  Uiso   1.00
C246   C     0.31241   0.54261   0.24615   0.00000  Uiso   1.00
C247   C     0.31224   0.45747   0.24556   0.00000  Uiso   1.00
C248   C     0.02110   0.54253   0.25444   0.00000  Uiso   1.00
C249   C     0.29056   0.50006   0.24490   0.00000  Uiso   1.00
C250   C     0.04278   0.49994   0.25510   0.00000  Uiso   1.00
C251   C     0.14184   0.35800   0.22062   0.00000  Uiso   1.00
C252   C     0.19150   0.64200   0.27938   0.00000  Uiso   1.00
C253   C     0.19151   0.35808   0.27936   0.00000  Uiso   1.00
C254   C     0.14182   0.64192   0.22064   0.00000  Uiso   1.00
N255   N     0.16667   0.61736   0.25000   0.00000  Uiso   1.00
N256   N     0.16667   0.38264   0.25000   0.00000  Uiso   1.00
C257   C     0.24583   0.49500   0.38407   0.00000  Uiso   1.00
H258   H     0.26733   0.51870   0.40235   0.00000  Uiso   1.00
H259   H     0.25921   0.46011   0.37937   0.00000  Uiso   1.00
H260   H     0.24218   0.51055   0.35040   0.00000  Uiso   1.00
C261   C     0.08750   0.50499   0.11593   0.00000  Uiso   1.00
H262   H     0.06601   0.48129   0.09766   0.00000  Uiso   1.00
H263   H     0.09116   0.48946   0.14961   0.00000  Uiso   1.00
H264   H     0.07411   0.53989   0.12063   0.00000  Uiso   1.00
C265   C     0.05797   0.55334   0.03379   0.00000  Uiso   1.00
H266   H     0.04059   0.57162   0.00654   0.00000  Uiso   1.00
H267   H     0.03619   0.52875   0.04843   0.00000  Uiso   1.00
H268   H     0.06787   0.58090   0.05775   0.00000  Uiso   1.00
C269   C     0.27535   0.44664   0.46621   0.00000  Uiso   1.00
H270   H     0.29272   0.42834   0.49345   0.00000  Uiso   1.00
H271   H     0.26545   0.41909   0.44224   0.00000  Uiso   1.00
H272   H     0.29714   0.47123   0.45157   0.00000  Uiso   1.00
Cl273  Cl    0.04399   0.40292   0.26712   0.00000  Uiso   1.00
Cl274  Cl    0.28934   0.59708   0.23288   0.00000  Uiso   1.00
Cl275  Cl    0.28894   0.40321   0.23150   0.00000  Uiso   1.00
Cl276  Cl    0.04439   0.59679   0.26850   0.00000  Uiso   1.00
Cl277  Cl    0.10919   0.38714   0.18187   0.00000  Uiso   1.00
Cl278  Cl    0.22414   0.61285   0.31813   0.00000  Uiso   1.00
Cl279  Cl    0.22427   0.38733   0.31796   0.00000  Uiso   1.00
Cl280  Cl    0.10906   0.61267   0.18204   0.00000  Uiso   1.00
O281   O     0.43988   0.53958   0.24999   0.00000  Uiso   1.00
O282   O     0.56012   0.46042   0.25000   0.00000  Uiso   1.00
O283   O     0.56012   0.53958   0.25000   0.00000  Uiso   1.00
O284   O     0.43988   0.46042   0.24999   0.00000  Uiso   1.00
C285   C     0.42086   0.49997   0.25284   0.00000  Uiso   1.00
C286   C     0.57914   0.50003   0.24716   0.00000  Uiso   1.00
O287   O     0.49999   0.53960   0.18513   0.00000  Uiso   1.00
O288   O     0.50001   0.46040   0.31487   0.00000  Uiso   1.00
O289   O     0.50001   0.53960   0.31487   0.00000  Uiso   1.00
O290   O     0.49999   0.46040   0.18513   0.00000  Uiso   1.00
C291   C     0.49943   0.49998   0.16460   0.00000  Uiso   1.00
C292   C     0.50057   0.50002   0.33540   0.00000  Uiso   1.00
Cu293  Cu    0.50000   0.54689   0.25000   0.00000  Uiso   1.00
Cu294  Cu    0.50000   0.45311   0.25000   0.00000  Uiso   1.00
C295   C     0.53935   0.49200   0.40821   0.00000  Uiso   1.00
C296   C     0.46064   0.50799   0.09179   0.00000  Uiso   1.00
C297   C     0.50248   0.50014   0.38363   0.00000  Uiso   1.00
C298   C     0.49752   0.49986   0.11637   0.00000  Uiso   1.00
C299   C     0.46651   0.50956   0.40457   0.00000  Uiso   1.00
C300   C     0.53348   0.49044   0.09543   0.00000  Uiso   1.00
C301   C     0.46589   0.51114   0.45061   0.00000  Uiso   1.00
C302   C     0.53410   0.48886   0.04939   0.00000  Uiso   1.00
C303   C     0.50109   0.49968   0.47655   0.00000  Uiso   1.00
C304   C     0.49891   0.50032   0.02345   0.00000  Uiso   1.00
C305   C     0.53819   0.48756   0.45559   0.00000  Uiso   1.00
C306   C     0.46181   0.51244   0.04441   0.00000  Uiso   1.00
C307   C     0.43033   0.52526   0.47053   0.00000  Uiso   1.00
C308   C     0.56966   0.47474   0.02947   0.00000  Uiso   1.00
C309   C     0.42809   0.52818   0.01678   0.00000  Uiso   1.00
C310   C     0.57190   0.47181   0.48322   0.00000  Uiso   1.00
H311   H     0.43900   0.51703   0.38457   0.00000  Uiso   1.00
H312   H     0.56100   0.48297   0.11543   0.00000  Uiso   1.00
H313   H     0.40430   0.53575   0.44949   0.00000  Uiso   1.00
H314   H     0.59570   0.46424   0.05051   0.00000  Uiso   1.00
C315   C     0.35426   0.45739   0.25385   0.00000  Uiso   1.00
C316   C     0.64574   0.54261   0.24615   0.00000  Uiso   1.00
C317   C     0.64557   0.45747   0.24556   0.00000  Uiso   1.00
C318   C     0.35443   0.54253   0.25444   0.00000  Uiso   1.00
C319   C     0.62389   0.50006   0.24490   0.00000  Uiso   1.00
C320   C     0.37611   0.49994   0.25510   0.00000  Uiso   1.00
C321   C     0.47517   0.35800   0.22062   0.00000  Uiso   1.00
C322   C     0.52483   0.64200   0.27938   0.00000  Uiso   1.00
C323   C     0.52484   0.35808   0.27936   0.00000  Uiso   1.00
C324   C     0.47516   0.64192   0.22064   0.00000  Uiso   1.00
N325   N     0.50000   0.61736   0.25000   0.00000  Uiso   1.00
N326   N     0.50000   0.38264   0.25000   0.00000  Uiso   1.00
C327   C     0.57916   0.49500   0.38407   0.00000  Uiso   1.00
H328   H     0.60066   0.51870   0.40235   0.00000  Uiso   1.00
H329   H     0.59255   0.46011   0.37937   0.00000  Uiso   1.00
H330   H     0.57551   0.51055   0.35040   0.00000  Uiso   1.00
C331   C     0.42084   0.50499   0.11593   0.00000  Uiso   1.00
H332   H     0.39934   0.48129   0.09766   0.00000  Uiso   1.00
H333   H     0.42449   0.48946   0.14961   0.00000  Uiso   1.00
H334   H     0.40745   0.53989   0.12063   0.00000  Uiso   1.00
C335   C     0.39131   0.55334   0.03379   0.00000  Uiso   1.00
H336   H     0.37392   0.57162   0.00654   0.00000  Uiso   1.00
H337   H     0.36952   0.52875   0.04843   0.00000  Uiso   1.00
H338   H     0.40120   0.58090   0.05775   0.00000  Uiso   1.00
C339   C     0.60868   0.44664   0.46621   0.00000  Uiso   1.00
H340   H     0.62606   0.42834   0.49345   0.00000  Uiso   1.00
H341   H     0.59878   0.41909   0.44224   0.00000  Uiso   1.00
H342   H     0.63047   0.47123   0.45157   0.00000  Uiso   1.00
Cl343  Cl    0.37733   0.40292   0.26712   0.00000  Uiso   1.00
Cl344  Cl    0.62267   0.59708   0.23288   0.00000  Uiso   1.00
Cl345  Cl    0.62227   0.40321   0.23150   0.00000  Uiso   1.00
Cl346  Cl    0.37773   0.59679   0.26850   0.00000  Uiso   1.00
Cl347  Cl    0.44253   0.38714   0.18187   0.00000  Uiso   1.00
Cl348  Cl    0.55747   0.61285   0.31813   0.00000  Uiso   1.00
Cl349  Cl    0.55761   0.38733   0.31796   0.00000  Uiso   1.00
Cl350  Cl    0.44239   0.61267   0.18204   0.00000  Uiso   1.00
O351   O     0.77321   0.53958   0.24999   0.00000  Uiso   1.00
O352   O     0.89345   0.46042   0.25000   0.00000  Uiso   1.00
O353   O     0.89345   0.53958   0.25000   0.00000  Uiso   1.00
O354   O     0.77321   0.46042   0.24999   0.00000  Uiso   1.00
C355   C     0.75419   0.49997   0.25284   0.00000  Uiso   1.00
C356   C     0.91247   0.50003   0.24716   0.00000  Uiso   1.00
O357   O     0.83332   0.53960   0.18513   0.00000  Uiso   1.00
O358   O     0.83334   0.46040   0.31487   0.00000  Uiso   1.00
O359   O     0.83334   0.53960   0.31487   0.00000  Uiso   1.00
O360   O     0.83332   0.46040   0.18513   0.00000  Uiso   1.00
C361   C     0.83276   0.49998   0.16460   0.00000  Uiso   1.00
C362   C     0.83391   0.50002   0.33540   0.00000  Uiso   1.00
Cu363  Cu    0.83333   0.54689   0.25000   0.00000  Uiso   1.00
Cu364  Cu    0.83333   0.45311   0.25000   0.00000  Uiso   1.00
C365   C     0.87269   0.49200   0.40821   0.00000  Uiso   1.00
C366   C     0.79398   0.50799   0.09179   0.00000  Uiso   1.00
C367   C     0.83581   0.50014   0.38363   0.00000  Uiso   1.00
C368   C     0.83085   0.49986   0.11637   0.00000  Uiso   1.00
C369   C     0.79985   0.50956   0.40457   0.00000  Uiso   1.00
C370   C     0.86682   0.49044   0.09543   0.00000  Uiso   1.00
C371   C     0.79923   0.51114   0.45061   0.00000  Uiso   1.00
C372   C     0.86744   0.48886   0.04939   0.00000  Uiso   1.00
C373   C     0.83442   0.49968   0.47655   0.00000  Uiso   1.00
C374   C     0.83224   0.50032   0.02345   0.00000  Uiso   1.00
C375   C     0.87152   0.48756   0.45559   0.00000  Uiso   1.00
C376   C     0.79514   0.51244   0.04441   0.00000  Uiso   1.00
C377   C     0.76367   0.52526   0.47053   0.00000  Uiso   1.00
C378   C     0.90299   0.47474   0.02947   0.00000  Uiso   1.00
C379   C     0.76143   0.52818   0.01678   0.00000  Uiso   1.00
C380   C     0.90523   0.47181   0.48322   0.00000  Uiso   1.00
H381   H     0.77233   0.51703   0.38457   0.00000  Uiso   1.00
H382   H     0.89434   0.48297   0.11543   0.00000  Uiso   1.00
H383   H     0.73763   0.53575   0.44949   0.00000  Uiso   1.00
H384   H     0.92903   0.46424   0.05051   0.00000  Uiso   1.00
C385   C     0.68759   0.45739   0.25385   0.00000  Uiso   1.00
C386   C     0.97907   0.54261   0.24615   0.00000  Uiso   1.00
C387   C     0.97890   0.45747   0.24556   0.00000  Uiso   1.00
C388   C     0.68776   0.54253   0.25444   0.00000  Uiso   1.00
C389   C     0.95722   0.50006   0.24490   0.00000  Uiso   1.00
C390   C     0.70944   0.49994   0.25510   0.00000  Uiso   1.00
C391   C     0.80850   0.35800   0.22062   0.00000  Uiso   1.00
C392   C     0.85816   0.64200   0.27938   0.00000  Uiso   1.00
C393   C     0.85818   0.35808   0.27936   0.00000  Uiso   1.00
C394   C     0.80849   0.64192   0.22064   0.00000  Uiso   1.00
N395   N     0.83333   0.61736   0.25000   0.00000  Uiso   1.00
N396   N     0.83333   0.38264   0.25000   0.00000  Uiso   1.00
C397   C     0.91250   0.49500   0.38407   0.00000  Uiso   1.00
H398   H     0.93399   0.51870   0.40235   0.00000  Uiso   1.00
H399   H     0.92588   0.46011   0.37937   0.00000  Uiso   1.00
H400   H     0.90884   0.51055   0.35040   0.00000  Uiso   1.00
C401   C     0.75417   0.50499   0.11593   0.00000  Uiso   1.00
H402   H     0.73267   0.48129   0.09766   0.00000  Uiso   1.00
H403   H     0.75783   0.48946   0.14961   0.00000  Uiso   1.00
H404   H     0.74078   0.53989   0.12063   0.00000  Uiso   1.00
C405   C     0.72464   0.55334   0.03379   0.00000  Uiso   1.00
H406   H     0.70725   0.57162   0.00654   0.00000  Uiso   1.00
H407   H     0.70285   0.52875   0.04843   0.00000  Uiso   1.00
H408   H     0.73453   0.58090   0.05775   0.00000  Uiso   1.00
C409   C     0.94201   0.44664   0.46621   0.00000  Uiso   1.00
H410   H     0.95939   0.42834   0.49345   0.00000  Uiso   1.00
H411   H     0.93211   0.41909   0.44224   0.00000  Uiso   1.00
H412   H     0.96381   0.47123   0.45157   0.00000  Uiso   1.00
Cl413  Cl    0.71066   0.40292   0.26712   0.00000  Uiso   1.00
Cl414  Cl    0.95601   0.59708   0.23288   0.00000  Uiso   1.00
Cl415  Cl    0.95561   0.40321   0.23150   0.00000  Uiso   1.00
Cl416  Cl    0.71106   0.59679   0.26850   0.00000  Uiso   1.00
Cl417  Cl    0.77586   0.38714   0.18187   0.00000  Uiso   1.00
Cl418  Cl    0.89081   0.61285   0.31813   0.00000  Uiso   1.00
Cl419  Cl    0.89094   0.38733   0.31796   0.00000  Uiso   1.00
Cl420  Cl    0.77573   0.61267   0.18204   0.00000  Uiso   1.00
O421   O     0.10655   0.87291   0.24999   0.00000  Uiso   1.00
O422   O     0.22679   0.79375   0.25000   0.00000  Uiso   1.00
O423   O     0.22679   0.87291   0.25000   0.00000  Uiso   1.00
O424   O     0.10655   0.79375   0.24999   0.00000  Uiso   1.00
C425   C     0.08753   0.83330   0.25284   0.00000  Uiso   1.00
C426   C     0.24581   0.83336   0.24716   0.00000  Uiso   1.00
O427   O     0.16666   0.87293   0.18513   0.00000  Uiso   1.00
O428   O     0.16668   0.79373   0.31487   0.00000  Uiso   1.00
O429   O     0.16668   0.87293   0.31487   0.00000  Uiso   1.00
O430   O     0.16666   0.79373   0.18513   0.00000  Uiso   1.00
C431   C     0.16609   0.83331   0.16460   0.00000  Uiso   1.00
C432   C     0.16724   0.83335   0.33540   0.00000  Uiso   1.00
Cu433  Cu    0.16667   0.88022   0.25000   0.00000  Uiso   1.00
Cu434  Cu    0.16667   0.78645   0.25000   0.00000  Uiso   1.00
C435   C     0.20602   0.82534   0.40821   0.00000  Uiso   1.00
C436   C     0.12731   0.84133   0.09179   0.00000  Uiso   1.00
C437   C     0.16914   0.83347   0.38363   0.00000  Uiso   1.00
C438   C     0.16419   0.83319   0.11637   0.00000  Uiso   1.00
C439   C     0.13318   0.84289   0.40457   0.00000  Uiso   1.00
C440   C     0.20015   0.82377   0.09543   0.00000  Uiso   1.00
C441   C     0.13256   0.84447   0.45061   0.00000  Uiso   1.00
C442   C     0.20077   0.82219   0.04939   0.00000  Uiso   1.00
C443   C     0.16775   0.83301   0.47655   0.00000  Uiso   1.00
C444   C     0.16558   0.83365   0.02345   0.00000  Uiso   1.00
C445   C     0.20485   0.82089   0.45559   0.00000  Uiso   1.00
C446   C     0.12848   0.84577   0.04441   0.00000  Uiso   1.00
C447   C     0.09700   0.85859   0.47053   0.00000  Uiso   1.00
C448   C     0.23633   0.80807   0.02947   0.00000  Uiso   1.00
C449   C     0.09476   0.86151   0.01678   0.00000  Uiso   1.00
C450   C     0.23857   0.80514   0.48322   0.00000  Uiso   1.00
H451   H     0.10566   0.85037   0.38457   0.00000  Uiso   1.00
H452   H     0.22767   0.81630   0.11543   0.00000  Uiso   1.00
H453   H     0.07096   0.86908   0.44949   0.00000  Uiso   1.00
H454   H     0.26237   0.79758   0.05051   0.00000  Uiso   1.00
C455   C     0.02093   0.79073   0.25385   0.00000  Uiso   1.00
C456   C     0.31241   0.87594   0.24615   0.00000  Uiso   1.00
C457   C     0.31224   0.79081   0.24556   0.00000  Uiso   1.00
C458   C     0.02110   0.87586   0.25444   0.00000  Uiso   1.00
C459   C     0.29056   0.83339   0.24490   0.00000  Uiso   1.00
C460   C     0.04278   0.83328   0.25510   0.00000  Uiso   1.00
C461   C     0.14184   0.69133   0.22062   0.00000  Uiso   1.00
C462   C     0.19150   0.97534   0.27938   0.00000  Uiso   1.00
C463   C     0.19151   0.69142   0.27936   0.00000  Uiso   1.00
C464   C     0.14182   0.97525   0.22064   0.00000  Uiso   1.00
N465   N     0.16667   0.95069   0.25000   0.00000  Uiso   1.00
N466   N     0.16667   0.71598   0.25000   0.00000  Uiso   1.00
C467   C     0.24583   0.82834   0.38407   0.00000  Uiso   1.00
H468   H     0.26733   0.85203   0.40235   0.00000  Uiso   1.00
H469   H     0.25921   0.79344   0.37937   0.00000  Uiso   1.00
H470   H     0.24218   0.84388   0.35040   0.00000  Uiso   1.00
C471   C     0.08750   0.83833   0.11593   0.00000  Uiso   1.00
H472   H     0.06601   0.81462   0.09766   0.00000  Uiso   1.00
H473   H     0.09116   0.82280   0.14961   0.00000  Uiso   1.00
H474   H     0.07411   0.87322   0.12063   0.00000  Uiso   1.00
C475   C     0.05797   0.88668   0.03379   0.00000  Uiso   1.00
H476   H     0.04059   0.90496   0.00654   0.00000  Uiso   1.00
H477   H     0.03619   0.86208   0.04843   0.00000  Uiso   1.00
H478   H     0.06787   0.91424   0.05775   0.00000  Uiso   1.00
C479   C     0.27535   0.77997   0.46621   0.00000  Uiso   1.00
H480   H     0.29272   0.76168   0.49345   0.00000  Uiso   1.00
H481   H     0.26545   0.75242   0.44224   0.00000  Uiso   1.00
H482   H     0.29714   0.80456   0.45157   0.00000  Uiso   1.00
Cl483  Cl    0.04399   0.73625   0.26712   0.00000  Uiso   1.00
Cl484  Cl    0.28934   0.93042   0.23288   0.00000  Uiso   1.00
Cl485  Cl    0.28894   0.73654   0.23150   0.00000  Uiso   1.00
Cl486  Cl    0.04439   0.93013   0.26850   0.00000  Uiso   1.00
Cl487  Cl    0.10919   0.72048   0.18187   0.00000  Uiso   1.00
Cl488  Cl    0.22414   0.94619   0.31813   0.00000  Uiso   1.00
Cl489  Cl    0.22427   0.72066   0.31796   0.00000  Uiso   1.00
Cl490  Cl    0.10906   0.94600   0.18204   0.00000  Uiso   1.00
O491   O     0.43988   0.87291   0.24999   0.00000  Uiso   1.00
O492   O     0.56012   0.79375   0.25000   0.00000  Uiso   1.00
O493   O     0.56012   0.87291   0.25000   0.00000  Uiso   1.00
O494   O     0.43988   0.79375   0.24999   0.00000  Uiso   1.00
C495   C     0.42086   0.83330   0.25284   0.00000  Uiso   1.00
C496   C     0.57914   0.83336   0.24716   0.00000  Uiso   1.00
O497   O     0.49999   0.87293   0.18513   0.00000  Uiso   1.00
O498   O     0.50001   0.79373   0.31487   0.00000  Uiso   1.00
O499   O     0.50001   0.87293   0.31487   0.00000  Uiso   1.00
O500   O     0.49999   0.79373   0.18513   0.00000  Uiso   1.00
C501   C     0.49943   0.83331   0.16460   0.00000  Uiso   1.00
C502   C     0.50057   0.83335   0.33540   0.00000  Uiso   1.00
Cu503  Cu    0.50000   0.88022   0.25000   0.00000  Uiso   1.00
Cu504  Cu    0.50000   0.78645   0.25000   0.00000  Uiso   1.00
C505   C     0.53935   0.82534   0.40821   0.00000  Uiso   1.00
C506   C     0.46064   0.84133   0.09179   0.00000  Uiso   1.00
C507   C     0.50248   0.83347   0.38363   0.00000  Uiso   1.00
C508   C     0.49752   0.83319   0.11637   0.00000  Uiso   1.00
C509   C     0.46651   0.84289   0.40457   0.00000  Uiso   1.00
C510   C     0.53348   0.82377   0.09543   0.00000  Uiso   1.00
C511   C     0.46589   0.84447   0.45061   0.00000  Uiso   1.00
C512   C     0.53410   0.82219   0.04939   0.00000  Uiso   1.00
C513   C     0.50109   0.83301   0.47655   0.00000  Uiso   1.00
C514   C     0.49891   0.83365   0.02345   0.00000  Uiso   1.00
C515   C     0.53819   0.82089   0.45559   0.00000  Uiso   1.00
C516   C     0.46181   0.84577   0.04441   0.00000  Uiso   1.00
C517   C     0.43033   0.85859   0.47053   0.00000  Uiso   1.00
C518   C     0.56966   0.80807   0.02947   0.00000  Uiso   1.00
C519   C     0.42809   0.86151   0.01678   0.00000  Uiso   1.00
C520   C     0.57190   0.80514   0.48322   0.00000  Uiso   1.00
H521   H     0.43900   0.85037   0.38457   0.00000  Uiso   1.00
H522   H     0.56100   0.81630   0.11543   0.00000  Uiso   1.00
H523   H     0.40430   0.86908   0.44949   0.00000  Uiso   1.00
H524   H     0.59570   0.79758   0.05051   0.00000  Uiso   1.00
C525   C     0.35426   0.79073   0.25385   0.00000  Uiso   1.00
C526   C     0.64574   0.87594   0.24615   0.00000  Uiso   1.00
C527   C     0.64557   0.79081   0.24556   0.00000  Uiso   1.00
C528   C     0.35443   0.87586   0.25444   0.00000  Uiso   1.00
C529   C     0.62389   0.83339   0.24490   0.00000  Uiso   1.00
C530   C     0.37611   0.83328   0.25510   0.00000  Uiso   1.00
C531   C     0.47517   0.69133   0.22062   0.00000  Uiso   1.00
C532   C     0.52483   0.97534   0.27938   0.00000  Uiso   1.00
C533   C     0.52484   0.69142   0.27936   0.00000  Uiso   1.00
C534   C     0.47516   0.97525   0.22064   0.00000  Uiso   1.00
N535   N     0.50000   0.95069   0.25000   0.00000  Uiso   1.00
N536   N     0.50000   0.71598   0.25000   0.00000  Uiso   1.00
C537   C     0.57916   0.82834   0.38407   0.00000  Uiso   1.00
H538   H     0.60066   0.85203   0.40235   0.00000  Uiso   1.00
H539   H     0.59255   0.79344   0.37937   0.00000  Uiso   1.00
H540   H     0.57551   0.84388   0.35040   0.00000  Uiso   1.00
C541   C     0.42084   0.83833   0.11593   0.00000  Uiso   1.00
H542   H     0.39934   0.81462   0.09766   0.00000  Uiso   1.00
H543   H     0.42449   0.82280   0.14961   0.00000  Uiso   1.00
H544   H     0.40745   0.87322   0.12063   0.00000  Uiso   1.00
C545   C     0.39131   0.88668   0.03379   0.00000  Uiso   1.00
H546   H     0.37392   0.90496   0.00654   0.00000  Uiso   1.00
H547   H     0.36952   0.86208   0.04843   0.00000  Uiso   1.00
H548   H     0.40120   0.91424   0.05775   0.00000  Uiso   1.00
C549   C     0.60868   0.77997   0.46621   0.00000  Uiso   1.00
H550   H     0.62606   0.76168   0.49345   0.00000  Uiso   1.00
H551   H     0.59878   0.75242   0.44224   0.00000  Uiso   1.00
H552   H     0.63047   0.80456   0.45157   0.00000  Uiso   1.00
Cl553  Cl    0.37733   0.73625   0.26712   0.00000  Uiso   1.00
Cl554  Cl    0.62267   0.93042   0.23288   0.00000  Uiso   1.00
Cl555  Cl    0.62227   0.73654   0.23150   0.00000  Uiso   1.00
Cl556  Cl    0.37773   0.93013   0.26850   0.00000  Uiso   1.00
Cl557  Cl    0.44253   0.72048   0.18187   0.00000  Uiso   1.00
Cl558  Cl    0.55747   0.94619   0.31813   0.00000  Uiso   1.00
Cl559  Cl    0.55761   0.72066   0.31796   0.00000  Uiso   1.00
Cl560  Cl    0.44239   0.94600   0.18204   0.00000  Uiso   1.00
O561   O     0.77321   0.87291   0.24999   0.00000  Uiso   1.00
O562   O     0.89345   0.79375   0.25000   0.00000  Uiso   1.00
O563   O     0.89345   0.87291   0.25000   0.00000  Uiso   1.00
O564   O     0.77321   0.79375   0.24999   0.00000  Uiso   1.00
C565   C     0.75419   0.83330   0.25284   0.00000  Uiso   1.00
C566   C     0.91247   0.83336   0.24716   0.00000  Uiso   1.00
O567   O     0.83332   0.87293   0.18513   0.00000  Uiso   1.00
O568   O     0.83334   0.79373   0.31487   0.00000  Uiso   1.00
O569   O     0.83334   0.87293   0.31487   0.00000  Uiso   1.00
O570   O     0.83332   0.79373   0.18513   0.00000  Uiso   1.00
C571   C     0.83276   0.83331   0.16460   0.00000  Uiso   1.00
C572   C     0.83391   0.83335   0.33540   0.00000  Uiso   1.00
Cu573  Cu    0.83333   0.88022   0.25000   0.00000  Uiso   1.00
Cu574  Cu    0.83333   0.78645   0.25000   0.00000  Uiso   1.00
C575   C     0.87269   0.82534   0.40821   0.00000  Uiso   1.00
C576   C     0.79398   0.84133   0.09179   0.00000  Uiso   1.00
C577   C     0.83581   0.83347   0.38363   0.00000  Uiso   1.00
C578   C     0.83085   0.83319   0.11637   0.00000  Uiso   1.00
C579   C     0.79985   0.84289   0.40457   0.00000  Uiso   1.00
C580   C     0.86682   0.82377   0.09543   0.00000  Uiso   1.00
C581   C     0.79923   0.84447   0.45061   0.00000  Uiso   1.00
C582   C     0.86744   0.82219   0.04939   0.00000  Uiso   1.00
C583   C     0.83442   0.83301   0.47655   0.00000  Uiso   1.00
C584   C     0.83224   0.83365   0.02345   0.00000  Uiso   1.00
C585   C     0.87152   0.82089   0.45559   0.00000  Uiso   1.00
C586   C     0.79514   0.84577   0.04441   0.00000  Uiso   1.00
C587   C     0.76367   0.85859   0.47053   0.00000  Uiso   1.00
C588   C     0.90299   0.80807   0.02947   0.00000  Uiso   1.00
C589   C     0.76143   0.86151   0.01678   0.00000  Uiso   1.00
C590   C     0.90523   0.80514   0.48322   0.00000  Uiso   1.00
H591   H     0.77233   0.85037   0.38457   0.00000  Uiso   1.00
H592   H     0.89434   0.81630   0.11543   0.00000  Uiso   1.00
H593   H     0.73763   0.86908   0.44949   0.00000  Uiso   1.00
H594   H     0.92903   0.79758   0.05051   0.00000  Uiso   1.00
C595   C     0.68759   0.79073   0.25385   0.00000  Uiso   1.00
C596   C     0.97907   0.87594   0.24615   0.00000  Uiso   1.00
C597   C     0.97890   0.79081   0.24556   0.00000  Uiso   1.00
C598   C     0.68776   0.87586   0.25444   0.00000  Uiso   1.00
C599   C     0.95722   0.83339   0.24490   0.00000  Uiso   1.00
C600   C     0.70944   0.83328   0.25510   0.00000  Uiso   1.00
C601   C     0.80850   0.69133   0.22062   0.00000  Uiso   1.00
C602   C     0.85816   0.97534   0.27938   0.00000  Uiso   1.00
C603   C     0.85818   0.69142   0.27936   0.00000  Uiso   1.00
C604   C     0.80849   0.97525   0.22064   0.00000  Uiso   1.00
N605   N     0.83333   0.95069   0.25000   0.00000  Uiso   1.00
N606   N     0.83333   0.71598   0.25000   0.00000  Uiso   1.00
C607   C     0.91250   0.82834   0.38407   0.00000  Uiso   1.00
H608   H     0.93399   0.85203   0.40235   0.00000  Uiso   1.00
H609   H     0.92588   0.79344   0.37937   0.00000  Uiso   1.00
H610   H     0.90884   0.84388   0.35040   0.00000  Uiso   1.00
C611   C     0.75417   0.83833   0.11593   0.00000  Uiso   1.00
H612   H     0.73267   0.81462   0.09766   0.00000  Uiso   1.00
H613   H     0.75783   0.82280   0.14961   0.00000  Uiso   1.00
H614   H     0.74078   0.87322   0.12063   0.00000  Uiso   1.00
C615   C     0.72464   0.88668   0.03379   0.00000  Uiso   1.00
H616   H     0.70725   0.90496   0.00654   0.00000  Uiso   1.00
H617   H     0.70285   0.86208   0.04843   0.00000  Uiso   1.00
H618   H     0.73453   0.91424   0.05775   0.00000  Uiso   1.00
C619   C     0.94201   0.77997   0.46621   0.00000  Uiso   1.00
H620   H     0.95939   0.76168   0.49345   0.00000  Uiso   1.00
H621   H     0.93211   0.75242   0.44224   0.00000  Uiso   1.00
H622   H     0.96381   0.80456   0.45157   0.00000  Uiso   1.00
Cl623  Cl    0.71066   0.73625   0.26712   0.00000  Uiso   1.00
Cl624  Cl    0.95601   0.93042   0.23288   0.00000  Uiso   1.00
Cl625  Cl    0.95561   0.73654   0.23150   0.00000  Uiso   1.00
Cl626  Cl    0.71106   0.93013   0.26850   0.00000  Uiso   1.00
Cl627  Cl    0.77586   0.72048   0.18187   0.00000  Uiso   1.00
Cl628  Cl    0.89081   0.94619   0.31813   0.00000  Uiso   1.00
Cl629  Cl    0.89094   0.72066   0.31796   0.00000  Uiso   1.00
Cl630  Cl    0.77573   0.94600   0.18204   0.00000  Uiso   1.00
O631   O     0.10655   0.20625   0.74999   0.00000  Uiso   1.00
O632   O     0.22679   0.12709   0.75000   0.00000  Uiso   1.00
O633   O     0.22679   0.20625   0.75000   0.00000  Uiso   1.00
O634   O     0.10655   0.12709   0.74999   0.00000  Uiso   1.00
C635   C     0.08753   0.16664   0.75284   0.00000  Uiso   1.00
C636   C     0.24581   0.16670   0.74716   0.00000  Uiso   1.00
O637   O     0.16666   0.20627   0.68513   0.00000  Uiso   1.00
O638   O     0.16668   0.12707   0.81487   0.00000  Uiso   1.00
O639   O     0.16668   0.20627   0.81487   0.00000  Uiso   1.00
O640   O     0.16666   0.12707   0.68513   0.00000  Uiso   1.00
C641   C     0.16609   0.16665   0.66460   0.00000  Uiso   1.00
C642   C     0.16724   0.16669   0.83540   0.00000  Uiso   1.00
Cu643  Cu    0.16667   0.21355   0.75000   0.00000  Uiso   1.00
Cu644  Cu    0.16667   0.11978   0.75000   0.00000  Uiso   1.00
C645   C     0.20602   0.15867   0.90821   0.00000  Uiso   1.00
C646   C     0.12731   0.17466   0.59179   0.00000  Uiso   1.00
C647   C     0.16914   0.16681   0.88363   0.00000  Uiso   1.00
C648   C     0.16419   0.16653   0.61637   0.00000  Uiso   1.00
C649   C     0.13318   0.17623   0.90457   0.00000  Uiso   1.00
C650   C     0.20015   0.15710   0.59543   0.00000  Uiso   1.00
C651   C     0.13256   0.17781   0.95061   0.00000  Uiso   1.00
C652   C     0.20077   0.15552   0.54939   0.00000  Uiso   1.00
C653   C     0.16775   0.16635   0.97655   0.00000  Uiso   1.00
C654   C     0.16558   0.16698   0.52345   0.00000  Uiso   1.00
C655   C     0.20485   0.15422   0.95559   0.00000  Uiso   1.00
C656   C     0.12848   0.17911   0.54441   0.00000  Uiso   1.00
C657   C     0.09700   0.19192   0.97053   0.00000  Uiso   1.00
C658   C     0.23633   0.14140   0.52947   0.00000  Uiso   1.00
C659   C     0.09476   0.19485   0.51678   0.00000  Uiso   1.00
C660   C     0.23857   0.13848   0.98322   0.00000  Uiso   1.00
H661   H     0.10566   0.18370   0.88457   0.00000  Uiso   1.00
H662   H     0.22767   0.14963   0.61543   0.00000  Uiso   1.00
H663   H     0.07096   0.20241   0.94949   0.00000  Uiso   1.00
H664   H     0.26237   0.13091   0.55051   0.00000  Uiso   1.00
C665   C     0.02093   0.12406   0.75385   0.00000  Uiso   1.00
C666   C     0.31241   0.20927   0.74615   0.00000  Uiso   1.00
C667   C     0.31224   0.12414   0.74556   0.00000  Uiso   1.00
C668   C     0.02110   0.20919   0.75444   0.00000  Uiso   1.00
C669   C     0.29056   0.16672   0.74490   0.00000  Uiso   1.00
C670   C     0.04278   0.16661   0.75510   0.00000  Uiso   1.00
C671   C     0.14184   0.02466   0.72062   0.00000  Uiso   1.00
C672   C     0.19150   0.30867   0.77938   0.00000  Uiso   1.00
C673   C     0.19151   0.02475   0.77936   0.00000  Uiso   1.00
C674   C     0.14182   0.30858   0.72064   0.00000  Uiso   1.00
N675   N     0.16667   0.28402   0.75000   0.00000  Uiso   1.00
N676   N     0.16667   0.04931   0.75000   0.00000  Uiso   1.00
C677   C     0.24583   0.16167   0.88407   0.00000  Uiso   1.00
H678   H     0.26733   0.18536   0.90235   0.00000  Uiso   1.00
H679   H     0.25921   0.12677   0.87937   0.00000  Uiso   1.00
H680   H     0.24218   0.17721   0.85040   0.00000  Uiso   1.00
C681   C     0.08750   0.17166   0.61593   0.00000  Uiso   1.00
H682   H     0.06601   0.14796   0.59766   0.00000  Uiso   1.00
H683   H     0.09116   0.15613   0.64961   0.00000  Uiso   1.00
H684   H     0.07411   0.20656   0.62063   0.00000  Uiso   1.00
C685   C     0.05797   0.22001   0.53379   0.00000  Uiso   1.00
H686   H     0.04059   0.23829   0.50654   0.00000  Uiso   1.00
H687   H     0.03619   0.19541   0.54843   0.00000  Uiso   1.00
H688   H     0.06787   0.24757   0.55775   0.00000  Uiso   1.00
C689   C     0.27535   0.11330   0.96621   0.00000  Uiso   1.00
H690   H     0.29272   0.09501   0.99345   0.00000  Uiso   1.00
H691   H     0.26545   0.08575   0.94224   0.00000  Uiso   1.00
H692   H     0.29714   0.13790   0.95157   0.00000  Uiso   1.00
Cl693  Cl    0.04399   0.06958   0.76712   0.00000  Uiso   1.00
Cl694  Cl    0.28934   0.26375   0.73288   0.00000  Uiso   1.00
Cl695  Cl    0.28894   0.06987   0.73150   0.00000  Uiso   1.00
Cl696  Cl    0.04439   0.26346   0.76850   0.00000  Uiso   1.00
Cl697  Cl    0.10919   0.05381   0.68187   0.00000  Uiso   1.00
Cl698  Cl    0.22414   0.27952   0.81813   0.00000  Uiso   1.00
Cl699  Cl    0.22427   0.05400   0.81796   0.00000  Uiso   1.00
Cl700  Cl    0.10906   0.27934   0.68204   0.00000  Uiso   1.00
O701   O     0.43988   0.20625   0.74999   0.00000  Uiso   1.00
O702   O     0.56012   0.12709   0.75000   0.00000  Uiso   1.00
O703   O     0.56012   0.20625   0.75000   0.00000  Uiso   1.00
O704   O     0.43988   0.12709   0.74999   0.00000  Uiso   1.00
C705   C     0.42086   0.16664   0.75284   0.00000  Uiso   1.00
C706   C     0.57914   0.16670   0.74716   0.00000  Uiso   1.00
O707   O     0.49999   0.20627   0.68513   0.00000  Uiso   1.00
O708   O     0.50001   0.12707   0.81487   0.00000  Uiso   1.00
O709   O     0.50001   0.20627   0.81487   0.00000  Uiso   1.00
O710   O     0.49999   0.12707   0.68513   0.00000  Uiso   1.00
C711   C     0.49943   0.16665   0.66460   0.00000  Uiso   1.00
C712   C     0.50057   0.16669   0.83540   0.00000  Uiso   1.00
Cu713  Cu    0.50000   0.21355   0.75000   0.00000  Uiso   1.00
Cu714  Cu    0.50000   0.11978   0.75000   0.00000  Uiso   1.00
C715   C     0.53935   0.15867   0.90821   0.00000  Uiso   1.00
C716   C     0.46064   0.17466   0.59179   0.00000  Uiso   1.00
C717   C     0.50248   0.16681   0.88363   0.00000  Uiso   1.00
C718   C     0.49752   0.16653   0.61637   0.00000  Uiso   1.00
C719   C     0.46651   0.17623   0.90457   0.00000  Uiso   1.00
C720   C     0.53348   0.15710   0.59543   0.00000  Uiso   1.00
C721   C     0.46589   0.17781   0.95061   0.00000  Uiso   1.00
C722   C     0.53410   0.15552   0.54939   0.00000  Uiso   1.00
C723   C     0.50109   0.16635   0.97655   0.00000  Uiso   1.00
C724   C     0.49891   0.16698   0.52345   0.00000  Uiso   1.00
C725   C     0.53819   0.15422   0.95559   0.00000  Uiso   1.00
C726   C     0.46181   0.17911   0.54441   0.00000  Uiso   1.00
C727   C     0.43033   0.19192   0.97053   0.00000  Uiso   1.00
C728   C     0.56966   0.14140   0.52947   0.00000  Uiso   1.00
C729   C     0.42809   0.19485   0.51678   0.00000  Uiso   1.00
C730   C     0.57190   0.13848   0.98322   0.00000  Uiso   1.00
H731   H     0.43900   0.18370   0.88457   0.00000  Uiso   1.00
H732   H     0.56100   0.14963   0.61543   0.00000  Uiso   1.00
H733   H     0.40430   0.20241   0.94949   0.00000  Uiso   1.00
H734   H     0.59570   0.13091   0.55051   0.00000  Uiso   1.00
C735   C     0.35426   0.12406   0.75385   0.00000  Uiso   1.00
C736   C     0.64574   0.20927   0.74615   0.00000  Uiso   1.00
C737   C     0.64557   0.12414   0.74556   0.00000  Uiso   1.00
C738   C     0.35443   0.20919   0.75444   0.00000  Uiso   1.00
C739   C     0.62389   0.16672   0.74490   0.00000  Uiso   1.00
C740   C     0.37611   0.16661   0.75510   0.00000  Uiso   1.00
C741   C     0.47517   0.02466   0.72062   0.00000  Uiso   1.00
C742   C     0.52483   0.30867   0.77938   0.00000  Uiso   1.00
C743   C     0.52484   0.02475   0.77936   0.00000  Uiso   1.00
C744   C     0.47516   0.30858   0.72064   0.00000  Uiso   1.00
N745   N     0.50000   0.28402   0.75000   0.00000  Uiso   1.00
N746   N     0.50000   0.04931   0.75000   0.00000  Uiso   1.00
C747   C     0.57916   0.16167   0.88407   0.00000  Uiso   1.00
H748   H     0.60066   0.18536   0.90235   0.00000  Uiso   1.00
H749   H     0.59255   0.12677   0.87937   0.00000  Uiso   1.00
H750   H     0.57551   0.17721   0.85040   0.00000  Uiso   1.00
C751   C     0.42084   0.17166   0.61593   0.00000  Uiso   1.00
H752   H     0.39934   0.14796   0.59766   0.00000  Uiso   1.00
H753   H     0.42449   0.15613   0.64961   0.00000  Uiso   1.00
H754   H     0.40745   0.20656   0.62063   0.00000  Uiso   1.00
C755   C     0.39131   0.22001   0.53379   0.00000  Uiso   1.00
H756   H     0.37392   0.23829   0.50654   0.00000  Uiso   1.00
H757   H     0.36952   0.19541   0.54843   0.00000  Uiso   1.00
H758   H     0.40120   0.24757   0.55775   0.00000  Uiso   1.00
C759   C     0.60868   0.11330   0.96621   0.00000  Uiso   1.00
H760   H     0.62606   0.09501   0.99345   0.00000  Uiso   1.00
H761   H     0.59878   0.08575   0.94224   0.00000  Uiso   1.00
H762   H     0.63047   0.13790   0.95157   0.00000  Uiso   1.00
Cl763  Cl    0.37733   0.06958   0.76712   0.00000  Uiso   1.00
Cl764  Cl    0.62267   0.26375   0.73288   0.00000  Uiso   1.00
Cl765  Cl    0.62227   0.06987   0.73150   0.00000  Uiso   1.00
Cl766  Cl    0.37773   0.26346   0.76850   0.00000  Uiso   1.00
Cl767  Cl    0.44253   0.05381   0.68187   0.00000  Uiso   1.00
Cl768  Cl    0.55747   0.27952   0.81813   0.00000  Uiso   1.00
Cl769  Cl    0.55761   0.05400   0.81796   0.00000  Uiso   1.00
Cl770  Cl    0.44239   0.27934   0.68204   0.00000  Uiso   1.00
O771   O     0.77321   0.20625   0.74999   0.00000  Uiso   1.00
O772   O     0.89345   0.12709   0.75000   0.00000  Uiso   1.00
O773   O     0.89345   0.20625   0.75000   0.00000  Uiso   1.00
O774   O     0.77321   0.12709   0.74999   0.00000  Uiso   1.00
C775   C     0.75419   0.16664   0.75284   0.00000  Uiso   1.00
C776   C     0.91247   0.16670   0.74716   0.00000  Uiso   1.00
O777   O     0.83332   0.20627   0.68513   0.00000  Uiso   1.00
O778   O     0.83334   0.12707   0.81487   0.00000  Uiso   1.00
O779   O     0.83334   0.20627   0.81487   0.00000  Uiso   1.00
O780   O     0.83332   0.12707   0.68513   0.00000  Uiso   1.00
C781   C     0.83276   0.16665   0.66460   0.00000  Uiso   1.00
C782   C     0.83391   0.16669   0.83540   0.00000  Uiso   1.00
Cu783  Cu    0.83333   0.21355   0.75000   0.00000  Uiso   1.00
Cu784  Cu    0.83333   0.11978   0.75000   0.00000  Uiso   1.00
C785   C     0.87269   0.15867   0.90821   0.00000  Uiso   1.00
C786   C     0.79398   0.17466   0.59179   0.00000  Uiso   1.00
C787   C     0.83581   0.16681   0.88363   0.00000  Uiso   1.00
C788   C     0.83085   0.16653   0.61637   0.00000  Uiso   1.00
C789   C     0.79985   0.17623   0.90457   0.00000  Uiso   1.00
C790   C     0.86682   0.15710   0.59543   0.00000  Uiso   1.00
C791   C     0.79923   0.17781   0.95061   0.00000  Uiso   1.00
C792   C     0.86744   0.15552   0.54939   0.00000  Uiso   1.00
C793   C     0.83442   0.16635   0.97655   0.00000  Uiso   1.00
C794   C     0.83224   0.16698   0.52345   0.00000  Uiso   1.00
C795   C     0.87152   0.15422   0.95559   0.00000  Uiso   1.00
C796   C     0.79514   0.17911   0.54441   0.00000  Uiso   1.00
C797   C     0.76367   0.19192   0.97053   0.00000  Uiso   1.00
C798   C     0.90299   0.14140   0.52947   0.00000  Uiso   1.00
C799   C     0.76143   0.19485   0.51678   0.00000  Uiso   1.00
C800   C     0.90523   0.13848   0.98322   0.00000  Uiso   1.00
H801   H     0.77233   0.18370   0.88457   0.00000  Uiso   1.00
H802   H     0.89434   0.14963   0.61543   0.00000  Uiso   1.00
H803   H     0.73763   0.20241   0.94949   0.00000  Uiso   1.00
H804   H     0.92903   0.13091   0.55051   0.00000  Uiso   1.00
C805   C     0.68759   0.12406   0.75385   0.00000  Uiso   1.00
C806   C     0.97907   0.20927   0.74615   0.00000  Uiso   1.00
C807   C     0.97890   0.12414   0.74556   0.00000  Uiso   1.00
C808   C     0.68776   0.20919   0.75444   0.00000  Uiso   1.00
C809   C     0.95722   0.16672   0.74490   0.00000  Uiso   1.00
C810   C     0.70944   0.16661   0.75510   0.00000  Uiso   1.00
C811   C     0.80850   0.02466   0.72062   0.00000  Uiso   1.00
C812   C     0.85816   0.30867   0.77938   0.00000  Uiso   1.00
C813   C     0.85818   0.02475   0.77936   0.00000  Uiso   1.00
C814   C     0.80849   0.30858   0.72064   0.00000  Uiso   1.00
N815   N     0.83333   0.28402   0.75000   0.00000  Uiso   1.00
N816   N     0.83333   0.04931   0.75000   0.00000  Uiso   1.00
C817   C     0.91250   0.16167   0.88407   0.00000  Uiso   1.00
H818   H     0.93399   0.18536   0.90235   0.00000  Uiso   1.00
H819   H     0.92588   0.12677   0.87937   0.00000  Uiso   1.00
H820   H     0.90884   0.17721   0.85040   0.00000  Uiso   1.00
C821   C     0.75417   0.17166   0.61593   0.00000  Uiso   1.00
H822   H     0.73267   0.14796   0.59766   0.00000  Uiso   1.00
H823   H     0.75783   0.15613   0.64961   0.00000  Uiso   1.00
H824   H     0.74078   0.20656   0.62063   0.00000  Uiso   1.00
C825   C     0.72464   0.22001   0.53379   0.00000  Uiso   1.00
H826   H     0.70725   0.23829   0.50654   0.00000  Uiso   1.00
H827   H     0.70285   0.19541   0.54843   0.00000  Uiso   1.00
H828   H     0.73453   0.24757   0.55775   0.00000  Uiso   1.00
C829   C     0.94201   0.11330   0.96621   0.00000  Uiso   1.00
H830   H     0.95939   0.09501   0.99345   0.00000  Uiso   1.00
H831   H     0.93211   0.08575   0.94224   0.00000  Uiso   1.00
H832   H     0.96381   0.13790   0.95157   0.00000  Uiso   1.00
Cl833  Cl    0.71066   0.06958   0.76712   0.00000  Uiso   1.00
Cl834  Cl    0.95601   0.26375   0.73288   0.00000  Uiso   1.00
Cl835  Cl    0.95561   0.06987   0.73150   0.00000  Uiso   1.00
Cl836  Cl    0.71106   0.26346   0.76850   0.00000  Uiso   1.00
Cl837  Cl    0.77586   0.05381   0.68187   0.00000  Uiso   1.00
Cl838  Cl    0.89081   0.27952   0.81813   0.00000  Uiso   1.00
Cl839  Cl    0.89094   0.05400   0.81796   0.00000  Uiso   1.00
Cl840  Cl    0.77573   0.27934   0.68204   0.00000  Uiso   1.00
O841   O     0.10655   0.53958   0.74999   0.00000  Uiso   1.00
O842   O     0.22679   0.46042   0.75000   0.00000  Uiso   1.00
O843   O     0.22679   0.53958   0.75000   0.00000  Uiso   1.00
O844   O     0.10655   0.46042   0.74999   0.00000  Uiso   1.00
C845   C     0.08753   0.49997   0.75284   0.00000  Uiso   1.00
C846   C     0.24581   0.50003   0.74716   0.00000  Uiso   1.00
O847   O     0.16666   0.53960   0.68513   0.00000  Uiso   1.00
O848   O     0.16668   0.46040   0.81487   0.00000  Uiso   1.00
O849   O     0.16668   0.53960   0.81487   0.00000  Uiso   1.00
O850   O     0.16666   0.46040   0.68513   0.00000  Uiso   1.00
C851   C     0.16609   0.49998   0.66460   0.00000  Uiso   1.00
C852   C     0.16724   0.50002   0.83540   0.00000  Uiso   1.00
Cu853  Cu    0.16667   0.54689   0.75000   0.00000  Uiso   1.00
Cu854  Cu    0.16667   0.45311   0.75000   0.00000  Uiso   1.00
C855   C     0.20602   0.49200   0.90821   0.00000  Uiso   1.00
C856   C     0.12731   0.50799   0.59179   0.00000  Uiso   1.00
C857   C     0.16914   0.50014   0.88363   0.00000  Uiso   1.00
C858   C     0.16419   0.49986   0.61637   0.00000  Uiso   1.00
C859   C     0.13318   0.50956   0.90457   0.00000  Uiso   1.00
C860   C     0.20015   0.49044   0.59543   0.00000  Uiso   1.00
C861   C     0.13256   0.51114   0.95061   0.00000  Uiso   1.00
C862   C     0.20077   0.48886   0.54939   0.00000  Uiso   1.00
C863   C     0.16775   0.49968   0.97655   0.00000  Uiso   1.00
C864   C     0.16558   0.50032   0.52345   0.00000  Uiso   1.00
C865   C     0.20485   0.48756   0.95559   0.00000  Uiso   1.00
C866   C     0.12848   0.51244   0.54441   0.00000  Uiso   1.00
C867   C     0.09700   0.52526   0.97053   0.00000  Uiso   1.00
C868   C     0.23633   0.47474   0.52947   0.00000  Uiso   1.00
C869   C     0.09476   0.52818   0.51678   0.00000  Uiso   1.00
C870   C     0.23857   0.47181   0.98322   0.00000  Uiso   1.00
H871   H     0.10566   0.51703   0.88457   0.00000  Uiso   1.00
H872   H     0.22767   0.48297   0.61543   0.00000  Uiso   1.00
H873   H     0.07096   0.53575   0.94949   0.00000  Uiso   1.00
H874   H     0.26237   0.46424   0.55051   0.00000  Uiso   1.00
C875   C     0.02093   0.45739   0.75385   0.00000  Uiso   1.00
C876   C     0.31241   0.54261   0.74615   0.00000  Uiso   1.00
C877   C     0.31224   0.45747   0.74556   0.00000  Uiso   1.00
C878   C     0.02110   0.54253   0.75444   0.00000  Uiso   1.00
C879   C     0.29056   0.50006   0.74490   0.00000  Uiso   1.00
C880   C     0.04278   0.49994   0.75510   0.00000  Uiso   1.00
C881   C     0.14184   0.35800   0.72062   0.00000  Uiso   1.00
C882   C     0.19150   0.64200   0.77938   0.00000  Uiso   1.00
C883   C     0.19151   0.35808   0.77936   0.00000  Uiso   1.00
C884   C     0.14182   0.64192   0.72064   0.00000  Uiso   1.00
N885   N     0.16667   0.61736   0.75000   0.00000  Uiso   1.00
N886   N     0.16667   0.38264   0.75000   0.00000  Uiso   1.00
C887   C     0.24583   0.49500   0.88407   0.00000  Uiso   1.00
H888   H     0.26733   0.51870   0.90235   0.00000  Uiso   1.00
H889   H     0.25921   0.46011   0.87937   0.00000  Uiso   1.00
H890   H     0.24218   0.51055   0.85040   0.00000  Uiso   1.00
C891   C     0.08750   0.50499   0.61593   0.00000  Uiso   1.00
H892   H     0.06601   0.48129   0.59766   0.00000  Uiso   1.00
H893   H     0.09116   0.48946   0.64961   0.00000  Uiso   1.00
H894   H     0.07411   0.53989   0.62063   0.00000  Uiso   1.00
C895   C     0.05797   0.55334   0.53379   0.00000  Uiso   1.00
H896   H     0.04059   0.57162   0.50654   0.00000  Uiso   1.00
H897   H     0.03619   0.52875   0.54843   0.00000  Uiso   1.00
H898   H     0.06787   0.58090   0.55775   0.00000  Uiso   1.00
C899   C     0.27535   0.44664   0.96621   0.00000  Uiso   1.00
H900   H     0.29272   0.42834   0.99345   0.00000  Uiso   1.00
H901   H     0.26545   0.41909   0.94224   0.00000  Uiso   1.00
H902   H     0.29714   0.47123   0.95157   0.00000  Uiso   1.00
Cl903  Cl    0.04399   0.40292   0.76712   0.00000  Uiso   1.00
Cl904  Cl    0.28934   0.59708   0.73288   0.00000  Uiso   1.00
Cl905  Cl    0.28894   0.40321   0.73150   0.00000  Uiso   1.00
Cl906  Cl    0.04439   0.59679   0.76850   0.00000  Uiso   1.00
Cl907  Cl    0.10919   0.38714   0.68187   0.00000  Uiso   1.00
Cl908  Cl    0.22414   0.61285   0.81813   0.00000  Uiso   1.00
Cl909  Cl    0.22427   0.38733   0.81796   0.00000  Uiso   1.00
Cl910  Cl    0.10906   0.61267   0.68204   0.00000  Uiso   1.00
O911   O     0.43988   0.53958   0.74999   0.00000  Uiso   1.00
O912   O     0.56012   0.46042   0.75000   0.00000  Uiso   1.00
O913   O     0.56012   0.53958   0.75000   0.00000  Uiso   1.00
O914   O     0.43988   0.46042   0.74999   0.00000  Uiso   1.00
C915   C     0.42086   0.49997   0.75284   0.00000  Uiso   1.00
C916   C     0.57914   0.50003   0.74716   0.00000  Uiso   1.00
O917   O     0.49999   0.53960   0.68513   0.00000  Uiso   1.00
O918   O     0.50001   0.46040   0.81487   0.00000  Uiso   1.00
O919   O     0.50001   0.53960   0.81487   0.00000  Uiso   1.00
O920   O     0.49999   0.46040   0.68513   0.00000  Uiso   1.00
C921   C     0.49943   0.49998   0.66460   0.00000  Uiso   1.00
C922   C     0.50057   0.50002   0.83540   0.00000  Uiso   1.00
Cu923  Cu    0.50000   0.54689   0.75000   0.00000  Uiso   1.00
Cu924  Cu    0.50000   0.45311   0.75000   0.00000  Uiso   1.00
C925   C     0.53935   0.49200   0.90821   0.00000  Uiso   1.00
C926   C     0.46064   0.50799   0.59179   0.00000  Uiso   1.00
C927   C     0.50248   0.50014   0.88363   0.00000  Uiso   1.00
C928   C     0.49752   0.49986   0.61637   0.00000  Uiso   1.00
C929   C     0.46651   0.50956   0.90457   0.00000  Uiso   1.00
C930   C     0.53348   0.49044   0.59543   0.00000  Uiso   1.00
C931   C     0.46589   0.51114   0.95061   0.00000  Uiso   1.00
C932   C     0.53410   0.48886   0.54939   0.00000  Uiso   1.00
C933   C     0.50109   0.49968   0.97655   0.00000  Uiso   1.00
C934   C     0.49891   0.50032   0.52345   0.00000  Uiso   1.00
C935   C     0.53819   0.48756   0.95559   0.00000  Uiso   1.00
C936   C     0.46181   0.51244   0.54441   0.00000  Uiso   1.00
C937   C     0.43033   0.52526   0.97053   0.00000  Uiso   1.00
C938   C     0.56966   0.47474   0.52947   0.00000  Uiso   1.00
C939   C     0.42809   0.52818   0.51678   0.00000  Uiso   1.00
C940   C     0.57190   0.47181   0.98322   0.00000  Uiso   1.00
H941   H     0.43900   0.51703   0.88457   0.00000  Uiso   1.00
H942   H     0.56100   0.48297   0.61543   0.00000  Uiso   1.00
H943   H     0.40430   0.53575   0.94949   0.00000  Uiso   1.00
H944   H     0.59570   0.46424   0.55051   0.00000  Uiso   1.00
C945   C     0.35426   0.45739   0.75385   0.00000  Uiso   1.00
C946   C     0.64574   0.54261   0.74615   0.00000  Uiso   1.00
C947   C     0.64557   0.45747   0.74556   0.00000  Uiso   1.00
C948   C     0.35443   0.54253   0.75444   0.00000  Uiso   1.00
C949   C     0.62389   0.50006   0.74490   0.00000  Uiso   1.00
C950   C     0.37611   0.49994   0.75510   0.00000  Uiso   1.00
C951   C     0.47517   0.35800   0.72062   0.00000  Uiso   1.00
C952   C     0.52483   0.64200   0.77938   0.00000  Uiso   1.00
C953   C     0.52484   0.35808   0.77936   0.00000  Uiso   1.00
C954   C     0.47516   0.64192   0.72064   0.00000  Uiso   1.00
N955   N     0.50000   0.61736   0.75000   0.00000  Uiso   1.00
N956   N     0.50000   0.38264   0.75000   0.00000  Uiso   1.00
C957   C     0.57916   0.49500   0.88407   0.00000  Uiso   1.00
H958   H     0.60066   0.51870   0.90235   0.00000  Uiso   1.00
H959   H     0.59255   0.46011   0.87937   0.00000  Uiso   1.00
H960   H     0.57551   0.51055   0.85040   0.00000  Uiso   1.00
C961   C     0.42084   0.50499   0.61593   0.00000  Uiso   1.00
H962   H     0.39934   0.48129   0.59766   0.00000  Uiso   1.00
H963   H     0.42449   0.48946   0.64961   0.00000  Uiso   1.00
H964   H     0.40745   0.53989   0.62063   0.00000  Uiso   1.00
C965   C     0.39131   0.55334   0.53379   0.00000  Uiso   1.00
H966   H     0.37392   0.57162   0.50654   0.00000  Uiso   1.00
H967   H     0.36952   0.52875   0.54843   0.00000  Uiso   1.00
H968   H     0.40120   0.58090   0.55775   0.00000  Uiso   1.00
C969   C     0.60868   0.44664   0.96621   0.00000  Uiso   1.00
H970   H     0.62606   0.42834   0.99345   0.00000  Uiso   1.00
H971   H     0.59878   0.41909   0.94224   0.00000  Uiso   1.00
H972   H     0.63047   0.47123   0.95157   0.00000  Uiso   1.00
Cl973  Cl    0.37733   0.40292   0.76712   0.00000  Uiso   1.00
Cl974  Cl    0.62267   0.59708   0.73288   0.00000  Uiso   1.00
Cl975  Cl    0.62227   0.40321   0.73150   0.00000  Uiso   1.00
Cl976  Cl    0.37773   0.59679   0.76850   0.00000  Uiso   1.00
Cl977  Cl    0.44253   0.38714   0.68187   0.00000  Uiso   1.00
Cl978  Cl    0.55747   0.61285   0.81813   0.00000  Uiso   1.00
Cl979  Cl    0.55761   0.38733   0.81796   0.00000  Uiso   1.00
Cl980  Cl    0.44239   0.61267   0.68204   0.00000  Uiso   1.00
O981   O     0.77321   0.53958   0.74999   0.00000  Uiso   1.00
O982   O     0.89345   0.46042   0.75000   0.00000  Uiso   1.00
O983   O     0.89345   0.53958   0.75000   0.00000  Uiso   1.00
O984   O     0.77321   0.46042   0.74999   0.00000  Uiso   1.00
C985   C     0.75419   0.49997   0.75284   0.00000  Uiso   1.00
C986   C     0.91247   0.50003   0.74716   0.00000  Uiso   1.00
O987   O     0.83332   0.53960   0.68513   0.00000  Uiso   1.00
O988   O     0.83334   0.46040   0.81487   0.00000  Uiso   1.00
O989   O     0.83334   0.53960   0.81487   0.00000  Uiso   1.00
O990   O     0.83332   0.46040   0.68513   0.00000  Uiso   1.00
C991   C     0.83276   0.49998   0.66460   0.00000  Uiso   1.00
C992   C     0.83391   0.50002   0.83540   0.00000  Uiso   1.00
Cu993  Cu    0.83333   0.54689   0.75000   0.00000  Uiso   1.00
Cu994  Cu    0.83333   0.45311   0.75000   0.00000  Uiso   1.00
C995   C     0.87269   0.49200   0.90821   0.00000  Uiso   1.00
C996   C     0.79398   0.50799   0.59179   0.00000  Uiso   1.00
C997   C     0.83581   0.50014   0.88363   0.00000  Uiso   1.00
C998   C     0.83085   0.49986   0.61637   0.00000  Uiso   1.00
C999   C     0.79985   0.50956   0.90457   0.00000  Uiso   1.00
C1000  C     0.86682   0.49044   0.59543   0.00000  Uiso   1.00
C1001  C     0.79923   0.51114   0.95061   0.00000  Uiso   1.00
C1002  C     0.86744   0.48886   0.54939   0.00000  Uiso   1.00
C1003  C     0.83442   0.49968   0.97655   0.00000  Uiso   1.00
C1004  C     0.83224   0.50032   0.52345   0.00000  Uiso   1.00
C1005  C     0.87152   0.48756   0.95559   0.00000  Uiso   1.00
C1006  C     0.79514   0.51244   0.54441   0.00000  Uiso   1.00
C1007  C     0.76367   0.52526   0.97053   0.00000  Uiso   1.00
C1008  C     0.90299   0.47474   0.52947   0.00000  Uiso   1.00
C1009  C     0.76143   0.52818   0.51678   0.00000  Uiso   1.00
C1010  C     0.90523   0.47181   0.98322   0.00000  Uiso   1.00
H1011  H     0.77233   0.51703   0.88457   0.00000  Uiso   1.00
H1012  H     0.89434   0.48297   0.61543   0.00000  Uiso   1.00
H1013  H     0.73763   0.53575   0.94949   0.00000  Uiso   1.00
H1014  H     0.92903   0.46424   0.55051   0.00000  Uiso   1.00
C1015  C     0.68759   0.45739   0.75385   0.00000  Uiso   1.00
C1016  C     0.97907   0.54261   0.74615   0.00000  Uiso   1.00
C1017  C     0.97890   0.45747   0.74556   0.00000  Uiso   1.00
C1018  C     0.68776   0.54253   0.75444   0.00000  Uiso   1.00
C1019  C     0.95722   0.50006   0.74490   0.00000  Uiso   1.00
C1020  C     0.70944   0.49994   0.75510   0.00000  Uiso   1.00
C1021  C     0.80850   0.35800   0.72062   0.00000  Uiso   1.00
C1022  C     0.85816   0.64200   0.77938   0.00000  Uiso   1.00
C1023  C     0.85818   0.35808   0.77936   0.00000  Uiso   1.00
C1024  C     0.80849   0.64192   0.72064   0.00000  Uiso   1.00
N1025  N     0.83333   0.61736   0.75000   0.00000  Uiso   1.00
N1026  N     0.83333   0.38264   0.75000   0.00000  Uiso   1.00
C1027  C     0.91250   0.49500   0.88407   0.00000  Uiso   1.00
H1028  H     0.93399   0.51870   0.90235   0.00000  Uiso   1.00
H1029  H     0.92588   0.46011   0.87937   0.00000  Uiso   1.00
H1030  H     0.90884   0.51055   0.85040   0.00000  Uiso   1.00
C1031  C     0.75417   0.50499   0.61593   0.00000  Uiso   1.00
H1032  H     0.73267   0.48129   0.59766   0.00000  Uiso   1.00
H1033  H     0.75783   0.48946   0.64961   0.00000  Uiso   1.00
H1034  H     0.74078   0.53989   0.62063   0.00000  Uiso   1.00
C1035  C     0.72464   0.55334   0.53379   0.00000  Uiso   1.00
H1036  H     0.70725   0.57162   0.50654   0.00000  Uiso   1.00
H1037  H     0.70285   0.52875   0.54843   0.00000  Uiso   1.00
H1038  H     0.73453   0.58090   0.55775   0.00000  Uiso   1.00
C1039  C     0.94201   0.44664   0.96621   0.00000  Uiso   1.00
H1040  H     0.95939   0.42834   0.99345   0.00000  Uiso   1.00
H1041  H     0.93211   0.41909   0.94224   0.00000  Uiso   1.00
H1042  H     0.96381   0.47123   0.95157   0.00000  Uiso   1.00
Cl1043 Cl    0.71066   0.40292   0.76712   0.00000  Uiso   1.00
Cl1044 Cl    0.95601   0.59708   0.73288   0.00000  Uiso   1.00
Cl1045 Cl    0.95561   0.40321   0.73150   0.00000  Uiso   1.00
Cl1046 Cl    0.71106   0.59679   0.76850   0.00000  Uiso   1.00
Cl1047 Cl    0.77586   0.38714   0.68187   0.00000  Uiso   1.00
Cl1048 Cl    0.89081   0.61285   0.81813   0.00000  Uiso   1.00
Cl1049 Cl    0.89094   0.38733   0.81796   0.00000  Uiso   1.00
Cl1050 Cl    0.77573   0.61267   0.68204   0.00000  Uiso   1.00
O1051  O     0.10655   0.87291   0.74999   0.00000  Uiso   1.00
O1052  O     0.22679   0.79375   0.75000   0.00000  Uiso   1.00
O1053  O     0.22679   0.87291   0.75000   0.00000  Uiso   1.00
O1054  O     0.10655   0.79375   0.74999   0.00000  Uiso   1.00
C1055  C     0.08753   0.83330   0.75284   0.00000  Uiso   1.00
C1056  C     0.24581   0.83336   0.74716   0.00000  Uiso   1.00
O1057  O     0.16666   0.87293   0.68513   0.00000  Uiso   1.00
O1058  O     0.16668   0.79373   0.81487   0.00000  Uiso   1.00
O1059  O     0.16668   0.87293   0.81487   0.00000  Uiso   1.00
O1060  O     0.16666   0.79373   0.68513   0.00000  Uiso   1.00
C1061  C     0.16609   0.83331   0.66460   0.00000  Uiso   1.00
C1062  C     0.16724   0.83335   0.83540   0.00000  Uiso   1.00
Cu1063 Cu    0.16667   0.88022   0.75000   0.00000  Uiso   1.00
Cu1064 Cu    0.16667   0.78645   0.75000   0.00000  Uiso   1.00
C1065  C     0.20602   0.82534   0.90821   0.00000  Uiso   1.00
C1066  C     0.12731   0.84133   0.59179   0.00000  Uiso   1.00
C1067  C     0.16914   0.83347   0.88363   0.00000  Uiso   1.00
C1068  C     0.16419   0.83319   0.61637   0.00000  Uiso   1.00
C1069  C     0.13318   0.84289   0.90457   0.00000  Uiso   1.00
C1070  C     0.20015   0.82377   0.59543   0.00000  Uiso   1.00
C1071  C     0.13256   0.84447   0.95061   0.00000  Uiso   1.00
C1072  C     0.20077   0.82219   0.54939   0.00000  Uiso   1.00
C1073  C     0.16775   0.83301   0.97655   0.00000  Uiso   1.00
C1074  C     0.16558   0.83365   0.52345   0.00000  Uiso   1.00
C1075  C     0.20485   0.82089   0.95559   0.00000  Uiso   1.00
C1076  C     0.12848   0.84577   0.54441   0.00000  Uiso   1.00
C1077  C     0.09700   0.85859   0.97053   0.00000  Uiso   1.00
C1078  C     0.23633   0.80807   0.52947   0.00000  Uiso   1.00
C1079  C     0.09476   0.86151   0.51678   0.00000  Uiso   1.00
C1080  C     0.23857   0.80514   0.98322   0.00000  Uiso   1.00
H1081  H     0.10566   0.85037   0.88457   0.00000  Uiso   1.00
H1082  H     0.22767   0.81630   0.61543   0.00000  Uiso   1.00
H1083  H     0.07096   0.86908   0.94949   0.00000  Uiso   1.00
H1084  H     0.26237   0.79758   0.55051   0.00000  Uiso   1.00
C1085  C     0.02093   0.79073   0.75385   0.00000  Uiso   1.00
C1086  C     0.31241   0.87594   0.74615   0.00000  Uiso   1.00
C1087  C     0.31224   0.79081   0.74556   0.00000  Uiso   1.00
C1088  C     0.02110   0.87586   0.75444   0.00000  Uiso   1.00
C1089  C     0.29056   0.83339   0.74490   0.00000  Uiso   1.00
C1090  C     0.04278   0.83328   0.75510   0.00000  Uiso   1.00
C1091  C     0.14184   0.69133   0.72062   0.00000  Uiso   1.00
C1092  C     0.19150   0.97534   0.77938   0.00000  Uiso   1.00
C1093  C     0.19151   0.69142   0.77936   0.00000  Uiso   1.00
C1094  C     0.14182   0.97525   0.72064   0.00000  Uiso   1.00
N1095  N     0.16667   0.95069   0.75000   0.00000  Uiso   1.00
N1096  N     0.16667   0.71598   0.75000   0.00000  Uiso   1.00
C1097  C     0.24583   0.82834   0.88407   0.00000  Uiso   1.00
H1098  H     0.26733   0.85203   0.90235   0.00000  Uiso   1.00
H1099  H     0.25921   0.79344   0.87937   0.00000  Uiso   1.00
H1100  H     0.24218   0.84388   0.85040   0.00000  Uiso   1.00
C1101  C     0.08750   0.83833   0.61593   0.00000  Uiso   1.00
H1102  H     0.06601   0.81462   0.59766   0.00000  Uiso   1.00
H1103  H     0.09116   0.82280   0.64961   0.00000  Uiso   1.00
H1104  H     0.07411   0.87322   0.62063   0.00000  Uiso   1.00
C1105  C     0.05797   0.88668   0.53379   0.00000  Uiso   1.00
H1106  H     0.04059   0.90496   0.50654   0.00000  Uiso   1.00
H1107  H     0.03619   0.86208   0.54843   0.00000  Uiso   1.00
H1108  H     0.06787   0.91424   0.55775   0.00000  Uiso   1.00
C1109  C     0.27535   0.77997   0.96621   0.00000  Uiso   1.00
H1110  H     0.29272   0.76168   0.99345   0.00000  Uiso   1.00
H1111  H     0.26545   0.75242   0.94224   0.00000  Uiso   1.00
H1112  H     0.29714   0.80456   0.95157   0.00000  Uiso   1.00
Cl1113 Cl    0.04399   0.73625   0.76712   0.00000  Uiso   1.00
Cl1114 Cl    0.28934   0.93042   0.73288   0.00000  Uiso   1.00
Cl1115 Cl    0.28894   0.73654   0.73150   0.00000  Uiso   1.00
Cl1116 Cl    0.04439   0.93013   0.76850   0.00000  Uiso   1.00
Cl1117 Cl    0.10919   0.72048   0.68187   0.00000  Uiso   1.00
Cl1118 Cl    0.22414   0.94619   0.81813   0.00000  Uiso   1.00
Cl1119 Cl    0.22427   0.72066   0.81796   0.00000  Uiso   1.00
Cl1120 Cl    0.10906   0.94600   0.68204   0.00000  Uiso   1.00
O1121  O     0.43988   0.87291   0.74999   0.00000  Uiso   1.00
O1122  O     0.56012   0.79375   0.75000   0.00000  Uiso   1.00
O1123  O     0.56012   0.87291   0.75000   0.00000  Uiso   1.00
O1124  O     0.43988   0.79375   0.74999   0.00000  Uiso   1.00
C1125  C     0.42086   0.83330   0.75284   0.00000  Uiso   1.00
C1126  C     0.57914   0.83336   0.74716   0.00000  Uiso   1.00
O1127  O     0.49999   0.87293   0.68513   0.00000  Uiso   1.00
O1128  O     0.50001   0.79373   0.81487   0.00000  Uiso   1.00
O1129  O     0.50001   0.87293   0.81487   0.00000  Uiso   1.00
O1130  O     0.49999   0.79373   0.68513   0.00000  Uiso   1.00
C1131  C     0.49943   0.83331   0.66460   0.00000  Uiso   1.00
C1132  C     0.50057   0.83335   0.83540   0.00000  Uiso   1.00
Cu1133 Cu    0.50000   0.88022   0.75000   0.00000  Uiso   1.00
Cu1134 Cu    0.50000   0.78645   0.75000   0.00000  Uiso   1.00
C1135  C     0.53935   0.82534   0.90821   0.00000  Uiso   1.00
C1136  C     0.46064   0.84133   0.59179   0.00000  Uiso   1.00
C1137  C     0.50248   0.83347   0.88363   0.00000  Uiso   1.00
C1138  C     0.49752   0.83319   0.61637   0.00000  Uiso   1.00
C1139  C     0.46651   0.84289   0.90457   0.00000  Uiso   1.00
C1140  C     0.53348   0.82377   0.59543   0.00000  Uiso   1.00
C1141  C     0.46589   0.84447   0.95061   0.00000  Uiso   1.00
C1142  C     0.53410   0.82219   0.54939   0.00000  Uiso   1.00
C1143  C     0.50109   0.83301   0.97655   0.00000  Uiso   1.00
C1144  C     0.49891   0.83365   0.52345   0.00000  Uiso   1.00
C1145  C     0.53819   0.82089   0.95559   0.00000  Uiso   1.00
C1146  C     0.46181   0.84577   0.54441   0.00000  Uiso   1.00
C1147  C     0.43033   0.85859   0.97053   0.00000  Uiso   1.00
C1148  C     0.56966   0.80807   0.52947   0.00000  Uiso   1.00
C1149  C     0.42809   0.86151   0.51678   0.00000  Uiso   1.00
C1150  C     0.57190   0.80514   0.98322   0.00000  Uiso   1.00
H1151  H     0.43900   0.85037   0.88457   0.00000  Uiso   1.00
H1152  H     0.56100   0.81630   0.61543   0.00000  Uiso   1.00
H1153  H     0.40430   0.86908   0.94949   0.00000  Uiso   1.00
H1154  H     0.59570   0.79758   0.55051   0.00000  Uiso   1.00
C1155  C     0.35426   0.79073   0.75385   0.00000  Uiso   1.00
C1156  C     0.64574   0.87594   0.74615   0.00000  Uiso   1.00
C1157  C     0.64557   0.79081   0.74556   0.00000  Uiso   1.00
C1158  C     0.35443   0.87586   0.75444   0.00000  Uiso   1.00
C1159  C     0.62389   0.83339   0.74490   0.00000  Uiso   1.00
C1160  C     0.37611   0.83328   0.75510   0.00000  Uiso   1.00
C1161  C     0.47517   0.69133   0.72062   0.00000  Uiso   1.00
C1162  C     0.52483   0.97534   0.77938   0.00000  Uiso   1.00
C1163  C     0.52484   0.69142   0.77936   0.00000  Uiso   1.00
C1164  C     0.47516   0.97525   0.72064   0.00000  Uiso   1.00
N1165  N     0.50000   0.95069   0.75000   0.00000  Uiso   1.00
N1166  N     0.50000   0.71598   0.75000   0.00000  Uiso   1.00
C1167  C     0.57916   0.82834   0.88407   0.00000  Uiso   1.00
H1168  H     0.60066   0.85203   0.90235   0.00000  Uiso   1.00
H1169  H     0.59255   0.79344   0.87937   0.00000  Uiso   1.00
H1170  H     0.57551   0.84388   0.85040   0.00000  Uiso   1.00
C1171  C     0.42084   0.83833   0.61593   0.00000  Uiso   1.00
H1172  H     0.39934   0.81462   0.59766   0.00000  Uiso   1.00
H1173  H     0.42449   0.82280   0.64961   0.00000  Uiso   1.00
H1174  H     0.40745   0.87322   0.62063   0.00000  Uiso   1.00
C1175  C     0.39131   0.88668   0.53379   0.00000  Uiso   1.00
H1176  H     0.37392   0.90496   0.50654   0.00000  Uiso   1.00
H1177  H     0.36952   0.86208   0.54843   0.00000  Uiso   1.00
H1178  H     0.40120   0.91424   0.55775   0.00000  Uiso   1.00
C1179  C     0.60868   0.77997   0.96621   0.00000  Uiso   1.00
H1180  H     0.62606   0.76168   0.99345   0.00000  Uiso   1.00
H1181  H     0.59878   0.75242   0.94224   0.00000  Uiso   1.00
H1182  H     0.63047   0.80456   0.95157   0.00000  Uiso   1.00
Cl1183 Cl    0.37733   0.73625   0.76712   0.00000  Uiso   1.00
Cl1184 Cl    0.62267   0.93042   0.73288   0.00000  Uiso   1.00
Cl1185 Cl    0.62227   0.73654   0.73150   0.00000  Uiso   1.00
Cl1186 Cl    0.37773   0.93013   0.76850   0.00000  Uiso   1.00
Cl1187 Cl    0.44253   0.72048   0.68187   0.00000  Uiso   1.00
Cl1188 Cl    0.55747   0.94619   0.81813   0.00000  Uiso   1.00
Cl1189 Cl    0.55761   0.72066   0.81796   0.00000  Uiso   1.00
Cl1190 Cl    0.44239   0.94600   0.68204   0.00000  Uiso   1.00
O1191  O     0.77321   0.87291   0.74999   0.00000  Uiso   1.00
O1192  O     0.89345   0.79375   0.75000   0.00000  Uiso   1.00
O1193  O     0.89345   0.87291   0.75000   0.00000  Uiso   1.00
O1194  O     0.77321   0.79375   0.74999   0.00000  Uiso   1.00
C1195  C     0.75419   0.83330   0.75284   0.00000  Uiso   1.00
C1196  C     0.91247   0.83336   0.74716   0.00000  Uiso   1.00
O1197  O     0.83332   0.87293   0.68513   0.00000  Uiso   1.00
O1198  O     0.83334   0.79373   0.81487   0.00000  Uiso   1.00
O1199  O     0.83334   0.87293   0.81487   0.00000  Uiso   1.00
O1200  O     0.83332   0.79373   0.68513   0.00000  Uiso   1.00
C1201  C     0.83276   0.83331   0.66460   0.00000  Uiso   1.00
C1202  C     0.83391   0.83335   0.83540   0.00000  Uiso   1.00
Cu1203 Cu    0.83333   0.88022   0.75000   0.00000  Uiso   1.00
Cu1204 Cu    0.83333   0.78645   0.75000   0.00000  Uiso   1.00
C1205  C     0.87269   0.82534   0.90821   0.00000  Uiso   1.00
C1206  C     0.79398   0.84133   0.59179   0.00000  Uiso   1.00
C1207  C     0.83581   0.83347   0.88363   0.00000  Uiso   1.00
C1208  C     0.83085   0.83319   0.61637   0.00000  Uiso   1.00
C1209  C     0.79985   0.84289   0.90457   0.00000  Uiso   1.00
C1210  C     0.86682   0.82377   0.59543   0.00000  Uiso   1.00
C1211  C     0.79923   0.84447   0.95061   0.00000  Uiso   1.00
C1212  C     0.86744   0.82219   0.54939   0.00000  Uiso   1.00
C1213  C     0.83442   0.83301   0.97655   0.00000  Uiso   1.00
C1214  C     0.83224   0.83365   0.52345   0.00000  Uiso   1.00
C1215  C     0.87152   0.82089   0.95559   0.00000  Uiso   1.00
C1216  C     0.79514   0.84577   0.54441   0.00000  Uiso   1.00
C1217  C     0.76367   0.85859   0.97053   0.00000  Uiso   1.00
C1218  C     0.90299   0.80807   0.52947   0.00000  Uiso   1.00
C1219  C     0.76143   0.86151   0.51678   0.00000  Uiso   1.00
C1220  C     0.90523   0.80514   0.98322   0.00000  Uiso   1.00
H1221  H     0.77233   0.85037   0.88457   0.00000  Uiso   1.00
H1222  H     0.89434   0.81630   0.61543   0.00000  Uiso   1.00
H1223  H     0.73763   0.86908   0.94949   0.00000  Uiso   1.00
H1224  H     0.92903   0.79758   0.55051   0.00000  Uiso   1.00
C1225  C     0.68759   0.79073   0.75385   0.00000  Uiso   1.00
C1226  C     0.97907   0.87594   0.74615   0.00000  Uiso   1.00
C1227  C     0.97890   0.79081   0.74556   0.00000  Uiso   1.00
C1228  C     0.68776   0.87586   0.75444   0.00000  Uiso   1.00
C1229  C     0.95722   0.83339   0.74490   0.00000  Uiso   1.00
C1230  C     0.70944   0.83328   0.75510   0.00000  Uiso   1.00
C1231  C     0.80850   0.69133   0.72062   0.00000  Uiso   1.00
C1232  C     0.85816   0.97534   0.77938   0.00000  Uiso   1.00
C1233  C     0.85818   0.69142   0.77936   0.00000  Uiso   1.00
C1234  C     0.80849   0.97525   0.72064   0.00000  Uiso   1.00
N1235  N     0.83333   0.95069   0.75000   0.00000  Uiso   1.00
N1236  N     0.83333   0.71598   0.75000   0.00000  Uiso   1.00
C1237  C     0.91250   0.82834   0.88407   0.00000  Uiso   1.00
H1238  H     0.93399   0.85203   0.90235   0.00000  Uiso   1.00
H1239  H     0.92588   0.79344   0.87937   0.00000  Uiso   1.00
H1240  H     0.90884   0.84388   0.85040   0.00000  Uiso   1.00
C1241  C     0.75417   0.83833   0.61593   0.00000  Uiso   1.00
H1242  H     0.73267   0.81462   0.59766   0.00000  Uiso   1.00
H1243  H     0.75783   0.82280   0.64961   0.00000  Uiso   1.00
H1244  H     0.74078   0.87322   0.62063   0.00000  Uiso   1.00
C1245  C     0.72464   0.88668   0.53379   0.00000  Uiso   1.00
H1246  H     0.70725   0.90496   0.50654   0.00000  Uiso   1.00
H1247  H     0.70285   0.86208   0.54843   0.00000  Uiso   1.00
H1248  H     0.73453   0.91424   0.55775   0.00000  Uiso   1.00
C1249  C     0.94201   0.77997   0.96621   0.00000  Uiso   1.00
H1250  H     0.95939   0.76168   0.99345   0.00000  Uiso   1.00
H1251  H     0.93211   0.75242   0.94224   0.00000  Uiso   1.00
H1252  H     0.96381   0.80456   0.95157   0.00000  Uiso   1.00
Cl1253 Cl    0.71066   0.73625   0.76712   0.00000  Uiso   1.00
Cl1254 Cl    0.95601   0.93042   0.73288   0.00000  Uiso   1.00
Cl1255 Cl    0.95561   0.73654   0.73150   0.00000  Uiso   1.00
Cl1256 Cl    0.71106   0.93013   0.76850   0.00000  Uiso   1.00
Cl1257 Cl    0.77586   0.72048   0.68187   0.00000  Uiso   1.00
Cl1258 Cl    0.89081   0.94619   0.81813   0.00000  Uiso   1.00
Cl1259 Cl    0.89094   0.72066   0.81796   0.00000  Uiso   1.00
Cl1260 Cl    0.77573   0.94600   0.68204   0.00000  Uiso   1.00
loop_
_geom_bond_atom_site_label_1
_geom_bond_atom_site_label_2
_geom_bond_distance
_geom_bond_site_symmetry_2
_ccdc_geom_bond_type
O1     C5      1.301   .     A
O1     Cu13    1.982   .     S
O2     C6      1.301   .     A
O2     Cu14    1.982   .     S
O3     Cu13    1.983   .     S
O3     C6      1.301   .     A
O4     Cu14    1.983   .     S
O4     C5      1.301   .     A
C5     C40     1.472   .     S
C6     C39     1.472   .     S
O7     C11     1.294   .     A
O7     Cu13    1.959   .     S
O8     C12     1.294   .     A
O8     Cu14    1.959   .     S
O9     C12     1.293   .     A
O9     Cu13    1.959   .     S
O10    C11     1.293   .     A
O10    Cu14    1.959   .     S
C11    C18     1.447   .     S
C12    C17     1.447   .     S
Cu13   Cu14    2.694   .     S
Cu13   N45     2.024   .     S
Cu14   N46     2.024   .     S
C15    C47     1.520   .     S
C15    C25     1.430   .     A
C15    C17     1.412   .     A
C16    C18     1.412   .     A
C16    C51     1.520   .     S
C16    C26     1.430   .     A
C17    C19     1.385   .     A
C18    C20     1.385   .     A
C19    C21     1.384   .     A
C19    H31     1.086   .     S
C20    H32     1.086   .     S
C20    C22     1.384   .     A
C21    C27     1.392   .     A
C21    C23     1.407   .     A
C22    C28     1.392   .     A
C22    C24     1.407   .     A
C23    C25     1.434   .     A
C23    C654    1.413   .     S
C24    C26     1.434   .     A
C24    C653    1.413   1_554 S
C25    C30     1.431   .     A
C26    C29     1.431   .     A
C27    H33     1.086   .     S
C27    C659    1.396   .     S
C28    H34     1.086   .     S
C28    C660    1.396   1_554 S
C29    C55     1.513   .     S
C29    C657    1.396   1_554 S
C30    C59     1.513   .     S
C30    C658    1.396   .     S
C35    C40     1.415   .     A
C35    Cl63    1.778   .     S
C35    C177    1.391   1_455 S
C36    Cl64    1.778   .     S
C36    C39     1.415   .     A
C36    C108    1.391   .     S
C37    C39     1.416   .     A
C37    Cl65    1.778   .     S
C37    C105    1.391   .     S
C38    C40     1.416   .     A
C38    Cl66    1.778   .     S
C38    C176    1.391   1_455 S
C41    N46     1.373   .     A
C41    Cl67    1.763   .     S
C41    C464    1.419   1_545 S
C42    Cl68    1.763   .     S
C42    N45     1.373   .     A
C42    C253    1.419   .     S
C43    N46     1.373   .     A
C43    Cl69    1.762   .     S
C43    C462    1.419   1_545 S
C44    Cl70    1.762   .     S
C44    N45     1.373   .     A
C44    C251    1.419   .     S
C47    H48     1.109   .     S
C47    H49     1.106   .     S
C47    H50     1.108   .     S
C51    H54     1.106   .     S
C51    H52     1.109   .     S
C51    H53     1.108   .     S
C55    H56     1.112   .     S
C55    H57     1.107   .     S
C55    H58     1.109   .     S
C59    H60     1.111   .     S
C59    H61     1.109   .     S
C59    H62     1.107   .     S
O71    C75     1.301   .     A
O71    Cu83    1.982   .     S
O72    C76     1.301   .     A
O72    Cu84    1.982   .     S
O73    Cu83    1.983   .     S
O73    C76     1.301   .     A
O74    Cu84    1.983   .     S
O74    C75     1.301   .     A
C75    C110    1.472   .     S
C76    C109    1.472   .     S
O77    C81     1.294   .     A
O77    Cu83    1.959   .     S
O78    C82     1.294   .     A
O78    Cu84    1.959   .     S
O79    C82     1.293   .     A
O79    Cu83    1.959   .     S
O80    C81     1.293   .     A
O80    Cu84    1.959   .     S
C81    C88     1.447   .     S
C82    C87     1.447   .     S
Cu83   Cu84    2.694   .     S
Cu83   N115    2.024   .     S
Cu84   N116    2.024   .     S
C85    C117    1.520   .     S
C85    C95     1.430   .     A
C85    C87     1.412   .     A
C86    C88     1.412   .     A
C86    C121    1.520   .     S
C86    C96     1.430   .     A
C87    C89     1.385   .     A
C88    C90     1.385   .     A
C89    C91     1.384   .     A
C89    H101    1.086   .     S
C90    H102    1.086   .     S
C90    C92     1.384   .     A
C91    C97     1.392   .     A
C91    C93     1.407   .     A
C92    C98     1.392   .     A
C92    C94     1.407   .     A
C93    C95     1.434   .     A
C93    C724    1.413   .     S
C94    C96     1.434   .     A
C94    C723    1.413   1_554 S
C95    C100    1.431   .     A
C96    C99     1.431   .     A
C97    H103    1.086   .     S
C97    C729    1.396   .     S
C98    H104    1.086   .     S
C98    C730    1.396   1_554 S
C99    C125    1.513   .     S
C99    C727    1.396   1_554 S
C100   C129    1.513   .     S
C100   C728    1.396   .     S
C105   C110    1.415   .     A
C105   Cl133   1.778   .     S
C106   Cl134   1.778   .     S
C106   C109    1.415   .     A
C106   C178    1.391   .     S
C107   C109    1.416   .     A
C107   Cl135   1.778   .     S
C107   C175    1.391   .     S
C108   C110    1.416   .     A
C108   Cl136   1.778   .     S
C111   N116    1.373   .     A
C111   Cl137   1.763   .     S
C111   C534    1.419   1_545 S
C112   Cl138   1.763   .     S
C112   N115    1.373   .     A
C112   C323    1.419   .     S
C113   N116    1.373   .     A
C113   Cl139   1.762   .     S
C113   C532    1.419   1_545 S
C114   Cl140   1.762   .     S
C114   N115    1.373   .     A
C114   C321    1.419   .     S
C117   H118    1.109   .     S
C117   H119    1.106   .     S
C117   H120    1.108   .     S
C121   H124    1.106   .     S
C121   H122    1.109   .     S
C121   H123    1.108   .     S
C125   H126    1.112   .     S
C125   H127    1.107   .     S
C125   H128    1.109   .     S
C129   H130    1.111   .     S
C129   H131    1.109   .     S
C129   H132    1.107   .     S
O141   C145    1.301   .     A
O141   Cu153   1.982   .     S
O142   C146    1.301   .     A
O142   Cu154   1.982   .     S
O143   Cu153   1.983   .     S
O143   C146    1.301   .     A
O144   Cu154   1.983   .     S
O144   C145    1.301   .     A
C145   C180    1.472   .     S
C146   C179    1.472   .     S
O147   C151    1.294   .     A
O147   Cu153   1.959   .     S
O148   C152    1.294   .     A
O148   Cu154   1.959   .     S
O149   C152    1.293   .     A
O149   Cu153   1.959   .     S
O150   C151    1.293   .     A
O150   Cu154   1.959   .     S
C151   C158    1.447   .     S
C152   C157    1.447   .     S
Cu153  Cu154   2.694   .     S
Cu153  N185    2.024   .     S
Cu154  N186    2.024   .     S
C155   C187    1.520   .     S
C155   C165    1.430   .     A
C155   C157    1.412   .     A
C156   C158    1.412   .     A
C156   C191    1.520   .     S
C156   C166    1.430   .     A
C157   C159    1.385   .     A
C158   C160    1.385   .     A
C159   C161    1.384   .     A
C159   H171    1.086   .     S
C160   H172    1.086   .     S
C160   C162    1.384   .     A
C161   C167    1.392   .     A
C161   C163    1.407   .     A
C162   C168    1.392   .     A
C162   C164    1.407   .     A
C163   C165    1.434   .     A
C163   C794    1.413   .     S
C164   C166    1.434   .     A
C164   C793    1.413   1_554 S
C165   C170    1.431   .     A
C166   C169    1.431   .     A
C167   H173    1.086   .     S
C167   C799    1.396   .     S
C168   H174    1.086   .     S
C168   C800    1.396   1_554 S
C169   C195    1.513   .     S
C169   C797    1.396   1_554 S
C170   C199    1.513   .     S
C170   C798    1.396   .     S
C175   C180    1.415   .     A
C175   Cl203   1.778   .     S
C176   Cl204   1.778   .     S
C176   C179    1.415   .     A
C176   C38     1.391   1_655 S
C177   C179    1.416   .     A
C177   Cl205   1.778   .     S
C177   C35     1.391   1_655 S
C178   C180    1.416   .     A
C178   Cl206   1.778   .     S
C181   N186    1.373   .     A
C181   Cl207   1.763   .     S
C181   C604    1.419   1_545 S
C182   Cl208   1.763   .     S
C182   N185    1.373   .     A
C182   C393    1.419   .     S
C183   N186    1.373   .     A
C183   Cl209   1.762   .     S
C183   C602    1.419   1_545 S
C184   Cl210   1.762   .     S
C184   N185    1.373   .     A
C184   C391    1.419   .     S
C187   H188    1.109   .     S
C187   H189    1.106   .     S
C187   H190    1.108   .     S
C191   H194    1.106   .     S
C191   H192    1.109   .     S
C191   H193    1.108   .     S
C195   H196    1.112   .     S
C195   H197    1.107   .     S
C195   H198    1.109   .     S
C199   H200    1.111   .     S
C199   H201    1.109   .     S
C199   H202    1.107   .     S
O211   C215    1.301   .     A
O211   Cu223   1.982   .     S
O212   C216    1.301   .     A
O212   Cu224   1.982   .     S
O213   Cu223   1.983   .     S
O213   C216    1.301   .     A
O214   Cu224   1.983   .     S
O214   C215    1.301   .     A
C215   C250    1.472   .     S
C216   C249    1.472   .     S
O217   C221    1.294   .     A
O217   Cu223   1.959   .     S
O218   C222    1.294   .     A
O218   Cu224   1.959   .     S
O219   C222    1.293   .     A
O219   Cu223   1.959   .     S
O220   C221    1.293   .     A
O220   Cu224   1.959   .     S
C221   C228    1.447   .     S
C222   C227    1.447   .     S
Cu223  Cu224   2.694   .     S
Cu223  N255    2.024   .     S
Cu224  N256    2.024   .     S
C225   C257    1.520   .     S
C225   C235    1.430   .     A
C225   C227    1.412   .     A
C226   C228    1.412   .     A
C226   C261    1.520   .     S
C226   C236    1.430   .     A
C227   C229    1.385   .     A
C228   C230    1.385   .     A
C229   C231    1.384   .     A
C229   H241    1.086   .     S
C230   H242    1.086   .     S
C230   C232    1.384   .     A
C231   C237    1.392   .     A
C231   C233    1.407   .     A
C232   C238    1.392   .     A
C232   C234    1.407   .     A
C233   C235    1.434   .     A
C233   C864    1.413   .     S
C234   C236    1.434   .     A
C234   C863    1.413   1_554 S
C235   C240    1.431   .     A
C236   C239    1.431   .     A
C237   H243    1.086   .     S
C237   C869    1.396   .     S
C238   H244    1.086   .     S
C238   C870    1.396   1_554 S
C239   C265    1.513   .     S
C239   C867    1.396   1_554 S
C240   C269    1.513   .     S
C240   C868    1.396   .     S
C245   C250    1.415   .     A
C245   Cl273   1.778   .     S
C245   C387    1.391   1_455 S
C246   Cl274   1.778   .     S
C246   C249    1.415   .     A
C246   C318    1.391   .     S
C247   C249    1.416   .     A
C247   Cl275   1.778   .     S
C247   C315    1.391   .     S
C248   C250    1.416   .     A
C248   Cl276   1.778   .     S
C248   C386    1.391   1_455 S
C251   N256    1.373   .     A
C251   Cl277   1.763   .     S
C252   Cl278   1.763   .     S
C252   N255    1.373   .     A
C252   C463    1.419   .     S
C253   N256    1.373   .     A
C253   Cl279   1.762   .     S
C254   Cl280   1.762   .     S
C254   N255    1.373   .     A
C254   C461    1.419   .     S
C257   H258    1.109   .     S
C257   H259    1.106   .     S
C257   H260    1.108   .     S
C261   H264    1.106   .     S
C261   H262    1.109   .     S
C261   H263    1.108   .     S
C265   H266    1.112   .     S
C265   H267    1.107   .     S
C265   H268    1.109   .     S
C269   H270    1.111   .     S
C269   H271    1.109   .     S
C269   H272    1.107   .     S
O281   C285    1.301   .     A
O281   Cu293   1.982   .     S
O282   C286    1.301   .     A
O282   Cu294   1.982   .     S
O283   Cu293   1.983   .     S
O283   C286    1.301   .     A
O284   Cu294   1.983   .     S
O284   C285    1.301   .     A
C285   C320    1.472   .     S
C286   C319    1.472   .     S
O287   C291    1.294   .     A
O287   Cu293   1.959   .     S
O288   C292    1.294   .     A
O288   Cu294   1.959   .     S
O289   C292    1.293   .     A
O289   Cu293   1.959   .     S
O290   C291    1.293   .     A
O290   Cu294   1.959   .     S
C291   C298    1.447   .     S
C292   C297    1.447   .     S
Cu293  Cu294   2.694   .     S
Cu293  N325    2.024   .     S
Cu294  N326    2.024   .     S
C295   C327    1.520   .     S
C295   C305    1.430   .     A
C295   C297    1.412   .     A
C296   C298    1.412   .     A
C296   C331    1.520   .     S
C296   C306    1.430   .     A
C297   C299    1.385   .     A
C298   C300    1.385   .     A
C299   C301    1.384   .     A
C299   H311    1.086   .     S
C300   H312    1.086   .     S
C300   C302    1.384   .     A
C301   C307    1.392   .     A
C301   C303    1.407   .     A
C302   C308    1.392   .     A
C302   C304    1.407   .     A
C303   C305    1.434   .     A
C303   C934    1.413   .     S
C304   C306    1.434   .     A
C304   C933    1.413   1_554 S
C305   C310    1.431   .     A
C306   C309    1.431   .     A
C307   H313    1.086   .     S
C307   C939    1.396   .     S
C308   H314    1.086   .     S
C308   C940    1.396   1_554 S
C309   C335    1.513   .     S
C309   C937    1.396   1_554 S
C310   C339    1.513   .     S
C310   C938    1.396   .     S
C315   C320    1.415   .     A
C315   Cl343   1.778   .     S
C316   Cl344   1.778   .     S
C316   C319    1.415   .     A
C316   C388    1.391   .     S
C317   C319    1.416   .     A
C317   Cl345   1.778   .     S
C317   C385    1.391   .     S
C318   C320    1.416   .     A
C318   Cl346   1.778   .     S
C321   N326    1.373   .     A
C321   Cl347   1.763   .     S
C322   Cl348   1.763   .     S
C322   N325    1.373   .     A
C322   C533    1.419   .     S
C323   N326    1.373   .     A
C323   Cl349   1.762   .     S
C324   Cl350   1.762   .     S
C324   N325    1.373   .     A
C324   C531    1.419   .     S
C327   H328    1.109   .     S
C327   H329    1.106   .     S
C327   H330    1.108   .     S
C331   H334    1.106   .     S
C331   H332    1.109   .     S
C331   H333    1.108   .     S
C335   H336    1.112   .     S
C335   H337    1.107   .     S
C335   H338    1.109   .     S
C339   H340    1.111   .     S
C339   H341    1.109   .     S
C339   H342    1.107   .     S
O351   C355    1.301   .     A
O351   Cu363   1.982   .     S
O352   C356    1.301   .     A
O352   Cu364   1.982   .     S
O353   Cu363   1.983   .     S
O353   C356    1.301   .     A
O354   Cu364   1.983   .     S
O354   C355    1.301   .     A
C355   C390    1.472   .     S
C356   C389    1.472   .     S
O357   C361    1.294   .     A
O357   Cu363   1.959   .     S
O358   C362    1.294   .     A
O358   Cu364   1.959   .     S
O359   C362    1.293   .     A
O359   Cu363   1.959   .     S
O360   C361    1.293   .     A
O360   Cu364   1.959   .     S
C361   C368    1.447   .     S
C362   C367    1.447   .     S
Cu363  Cu364   2.694   .     S
Cu363  N395    2.024   .     S
Cu364  N396    2.024   .     S
C365   C397    1.520   .     S
C365   C375    1.430   .     A
C365   C367    1.412   .     A
C366   C368    1.412   .     A
C366   C401    1.520   .     S
C366   C376    1.430   .     A
C367   C369    1.385   .     A
C368   C370    1.385   .     A
C369   C371    1.384   .     A
C369   H381    1.086   .     S
C370   H382    1.086   .     S
C370   C372    1.384   .     A
C371   C377    1.392   .     A
C371   C373    1.407   .     A
C372   C378    1.392   .     A
C372   C374    1.407   .     A
C373   C375    1.434   .     A
C373   C1004   1.413   .     S
C374   C376    1.434   .     A
C374   C1003   1.413   1_554 S
C375   C380    1.431   .     A
C376   C379    1.431   .     A
C377   H383    1.086   .     S
C377   C1009   1.396   .     S
C378   H384    1.086   .     S
C378   C1010   1.396   1_554 S
C379   C405    1.513   .     S
C379   C1007   1.396   1_554 S
C380   C409    1.513   .     S
C380   C1008   1.396   .     S
C385   C390    1.415   .     A
C385   Cl413   1.778   .     S
C386   Cl414   1.778   .     S
C386   C389    1.415   .     A
C386   C248    1.391   1_655 S
C387   C389    1.416   .     A
C387   Cl415   1.778   .     S
C387   C245    1.391   1_655 S
C388   C390    1.416   .     A
C388   Cl416   1.778   .     S
C391   N396    1.373   .     A
C391   Cl417   1.763   .     S
C392   Cl418   1.763   .     S
C392   N395    1.373   .     A
C392   C603    1.419   .     S
C393   N396    1.373   .     A
C393   Cl419   1.762   .     S
C394   Cl420   1.762   .     S
C394   N395    1.373   .     A
C394   C601    1.419   .     S
C397   H398    1.109   .     S
C397   H399    1.106   .     S
C397   H400    1.108   .     S
C401   H404    1.106   .     S
C401   H402    1.109   .     S
C401   H403    1.108   .     S
C405   H406    1.112   .     S
C405   H407    1.107   .     S
C405   H408    1.109   .     S
C409   H410    1.111   .     S
C409   H411    1.109   .     S
C409   H412    1.107   .     S
O421   C425    1.301   .     A
O421   Cu433   1.982   .     S
O422   C426    1.301   .     A
O422   Cu434   1.982   .     S
O423   Cu433   1.983   .     S
O423   C426    1.301   .     A
O424   Cu434   1.983   .     S
O424   C425    1.301   .     A
C425   C460    1.472   .     S
C426   C459    1.472   .     S
O427   C431    1.294   .     A
O427   Cu433   1.959   .     S
O428   C432    1.294   .     A
O428   Cu434   1.959   .     S
O429   C432    1.293   .     A
O429   Cu433   1.959   .     S
O430   C431    1.293   .     A
O430   Cu434   1.959   .     S
C431   C438    1.447   .     S
C432   C437    1.447   .     S
Cu433  Cu434   2.694   .     S
Cu433  N465    2.024   .     S
Cu434  N466    2.024   .     S
C435   C467    1.520   .     S
C435   C445    1.430   .     A
C435   C437    1.412   .     A
C436   C438    1.412   .     A
C436   C471    1.520   .     S
C436   C446    1.430   .     A
C437   C439    1.385   .     A
C438   C440    1.385   .     A
C439   C441    1.384   .     A
C439   H451    1.086   .     S
C440   H452    1.086   .     S
C440   C442    1.384   .     A
C441   C447    1.392   .     A
C441   C443    1.407   .     A
C442   C448    1.392   .     A
C442   C444    1.407   .     A
C443   C445    1.434   .     A
C443   C1074   1.413   .     S
C444   C446    1.434   .     A
C444   C1073   1.413   1_554 S
C445   C450    1.431   .     A
C446   C449    1.431   .     A
C447   H453    1.086   .     S
C447   C1079   1.396   .     S
C448   H454    1.086   .     S
C448   C1080   1.396   1_554 S
C449   C475    1.513   .     S
C449   C1077   1.396   1_554 S
C450   C479    1.513   .     S
C450   C1078   1.396   .     S
C455   C460    1.415   .     A
C455   Cl483   1.778   .     S
C455   C597    1.391   1_455 S
C456   Cl484   1.778   .     S
C456   C459    1.415   .     A
C456   C528    1.391   .     S
C457   C459    1.416   .     A
C457   Cl485   1.778   .     S
C457   C525    1.391   .     S
C458   C460    1.416   .     A
C458   Cl486   1.778   .     S
C458   C596    1.391   1_455 S
C461   N466    1.373   .     A
C461   Cl487   1.763   .     S
C462   Cl488   1.763   .     S
C462   N465    1.373   .     A
C462   C43     1.419   1_565 S
C463   N466    1.373   .     A
C463   Cl489   1.762   .     S
C464   Cl490   1.762   .     S
C464   N465    1.373   .     A
C464   C41     1.419   1_565 S
C467   H468    1.109   .     S
C467   H469    1.106   .     S
C467   H470    1.108   .     S
C471   H474    1.106   .     S
C471   H472    1.109   .     S
C471   H473    1.108   .     S
C475   H476    1.112   .     S
C475   H477    1.107   .     S
C475   H478    1.109   .     S
C479   H480    1.111   .     S
C479   H481    1.109   .     S
C479   H482    1.107   .     S
O491   C495    1.301   .     A
O491   Cu503   1.982   .     S
O492   C496    1.301   .     A
O492   Cu504   1.982   .     S
O493   Cu503   1.983   .     S
O493   C496    1.301   .     A
O494   Cu504   1.983   .     S
O494   C495    1.301   .     A
C495   C530    1.472   .     S
C496   C529    1.472   .     S
O497   C501    1.294   .     A
O497   Cu503   1.959   .     S
O498   C502    1.294   .     A
O498   Cu504   1.959   .     S
O499   C502    1.293   .     A
O499   Cu503   1.959   .     S
O500   C501    1.293   .     A
O500   Cu504   1.959   .     S
C501   C508    1.447   .     S
C502   C507    1.447   .     S
Cu503  Cu504   2.694   .     S
Cu503  N535    2.024   .     S
Cu504  N536    2.024   .     S
C505   C537    1.520   .     S
C505   C515    1.430   .     A
C505   C507    1.412   .     A
C506   C508    1.412   .     A
C506   C541    1.520   .     S
C506   C516    1.430   .     A
C507   C509    1.385   .     A
C508   C510    1.385   .     A
C509   C511    1.384   .     A
C509   H521    1.086   .     S
C510   H522    1.086   .     S
C510   C512    1.384   .     A
C511   C517    1.392   .     A
C511   C513    1.407   .     A
C512   C518    1.392   .     A
C512   C514    1.407   .     A
C513   C515    1.434   .     A
C513   C1144   1.413   .     S
C514   C516    1.434   .     A
C514   C1143   1.413   1_554 S
C515   C520    1.431   .     A
C516   C519    1.431   .     A
C517   H523    1.086   .     S
C517   C1149   1.396   .     S
C518   H524    1.086   .     S
C518   C1150   1.396   1_554 S
C519   C545    1.513   .     S
C519   C1147   1.396   1_554 S
C520   C549    1.513   .     S
C520   C1148   1.396   .     S
C525   C530    1.415   .     A
C525   Cl553   1.778   .     S
C526   Cl554   1.778   .     S
C526   C529    1.415   .     A
C526   C598    1.391   .     S
C527   C529    1.416   .     A
C527   Cl555   1.778   .     S
C527   C595    1.391   .     S
C528   C530    1.416   .     A
C528   Cl556   1.778   .     S
C531   N536    1.373   .     A
C531   Cl557   1.763   .     S
C532   Cl558   1.763   .     S
C532   N535    1.373   .     A
C532   C113    1.419   1_565 S
C533   N536    1.373   .     A
C533   Cl559   1.762   .     S
C534   Cl560   1.762   .     S
C534   N535    1.373   .     A
C534   C111    1.419   1_565 S
C537   H538    1.109   .     S
C537   H539    1.106   .     S
C537   H540    1.108   .     S
C541   H544    1.106   .     S
C541   H542    1.109   .     S
C541   H543    1.108   .     S
C545   H546    1.112   .     S
C545   H547    1.107   .     S
C545   H548    1.109   .     S
C549   H550    1.111   .     S
C549   H551    1.109   .     S
C549   H552    1.107   .     S
O561   C565    1.301   .     A
O561   Cu573   1.982   .     S
O562   C566    1.301   .     A
O562   Cu574   1.982   .     S
O563   Cu573   1.983   .     S
O563   C566    1.301   .     A
O564   Cu574   1.983   .     S
O564   C565    1.301   .     A
C565   C600    1.472   .     S
C566   C599    1.472   .     S
O567   C571    1.294   .     A
O567   Cu573   1.959   .     S
O568   C572    1.294   .     A
O568   Cu574   1.959   .     S
O569   C572    1.293   .     A
O569   Cu573   1.959   .     S
O570   C571    1.293   .     A
O570   Cu574   1.959   .     S
C571   C578    1.447   .     S
C572   C577    1.447   .     S
Cu573  Cu574   2.694   .     S
Cu573  N605    2.024   .     S
Cu574  N606    2.024   .     S
C575   C607    1.520   .     S
C575   C585    1.430   .     A
C575   C577    1.412   .     A
C576   C578    1.412   .     A
C576   C611    1.520   .     S
C576   C586    1.430   .     A
C577   C579    1.385   .     A
C578   C580    1.385   .     A
C579   C581    1.384   .     A
C579   H591    1.086   .     S
C580   H592    1.086   .     S
C580   C582    1.384   .     A
C581   C587    1.392   .     A
C581   C583    1.407   .     A
C582   C588    1.392   .     A
C582   C584    1.407   .     A
C583   C585    1.434   .     A
C583   C1214   1.413   .     S
C584   C586    1.434   .     A
C584   C1213   1.413   1_554 S
C585   C590    1.431   .     A
C586   C589    1.431   .     A
C587   H593    1.086   .     S
C587   C1219   1.396   .     S
C588   H594    1.086   .     S
C588   C1220   1.396   1_554 S
C589   C615    1.513   .     S
C589   C1217   1.396   1_554 S
C590   C619    1.513   .     S
C590   C1218   1.396   .     S
C595   C600    1.415   .     A
C595   Cl623   1.778   .     S
C596   Cl624   1.778   .     S
C596   C599    1.415   .     A
C596   C458    1.391   1_655 S
C597   C599    1.416   .     A
C597   Cl625   1.778   .     S
C597   C455    1.391   1_655 S
C598   C600    1.416   .     A
C598   Cl626   1.778   .     S
C601   N606    1.373   .     A
C601   Cl627   1.763   .     S
C602   Cl628   1.763   .     S
C602   N605    1.373   .     A
C602   C183    1.419   1_565 S
C603   N606    1.373   .     A
C603   Cl629   1.762   .     S
C604   Cl630   1.762   .     S
C604   N605    1.373   .     A
C604   C181    1.419   1_565 S
C607   H608    1.109   .     S
C607   H609    1.106   .     S
C607   H610    1.108   .     S
C611   H614    1.106   .     S
C611   H612    1.109   .     S
C611   H613    1.108   .     S
C615   H616    1.112   .     S
C615   H617    1.107   .     S
C615   H618    1.109   .     S
C619   H620    1.111   .     S
C619   H621    1.109   .     S
C619   H622    1.107   .     S
O631   C635    1.301   .     A
O631   Cu643   1.982   .     S
O632   C636    1.301   .     A
O632   Cu644   1.982   .     S
O633   Cu643   1.983   .     S
O633   C636    1.301   .     A
O634   Cu644   1.983   .     S
O634   C635    1.301   .     A
C635   C670    1.472   .     S
C636   C669    1.472   .     S
O637   C641    1.294   .     A
O637   Cu643   1.959   .     S
O638   C642    1.294   .     A
O638   Cu644   1.959   .     S
O639   C642    1.293   .     A
O639   Cu643   1.959   .     S
O640   C641    1.293   .     A
O640   Cu644   1.959   .     S
C641   C648    1.447   .     S
C642   C647    1.447   .     S
Cu643  Cu644   2.694   .     S
Cu643  N675    2.024   .     S
Cu644  N676    2.024   .     S
C645   C677    1.520   .     S
C645   C655    1.430   .     A
C645   C647    1.412   .     A
C646   C648    1.412   .     A
C646   C681    1.520   .     S
C646   C656    1.430   .     A
C647   C649    1.385   .     A
C648   C650    1.385   .     A
C649   C651    1.384   .     A
C649   H661    1.086   .     S
C650   H662    1.086   .     S
C650   C652    1.384   .     A
C651   C657    1.392   .     A
C651   C653    1.407   .     A
C652   C658    1.392   .     A
C652   C654    1.407   .     A
C653   C655    1.434   .     A
C653   C24     1.413   1_556 S
C654   C656    1.434   .     A
C655   C660    1.431   .     A
C656   C659    1.431   .     A
C657   H663    1.086   .     S
C657   C29     1.396   1_556 S
C658   H664    1.086   .     S
C659   C685    1.513   .     S
C660   C689    1.513   .     S
C660   C28     1.396   1_556 S
C665   C670    1.415   .     A
C665   Cl693   1.778   .     S
C665   C807    1.391   1_455 S
C666   Cl694   1.778   .     S
C666   C669    1.415   .     A
C666   C738    1.391   .     S
C667   C669    1.416   .     A
C667   Cl695   1.778   .     S
C667   C735    1.391   .     S
C668   C670    1.416   .     A
C668   Cl696   1.778   .     S
C668   C806    1.391   1_455 S
C671   N676    1.373   .     A
C671   Cl697   1.763   .     S
C671   C1094   1.419   1_545 S
C672   Cl698   1.763   .     S
C672   N675    1.373   .     A
C672   C883    1.419   .     S
C673   N676    1.373   .     A
C673   Cl699   1.762   .     S
C673   C1092   1.419   1_545 S
C674   Cl700   1.762   .     S
C674   N675    1.373   .     A
C674   C881    1.419   .     S
C677   H678    1.109   .     S
C677   H679    1.106   .     S
C677   H680    1.108   .     S
C681   H684    1.106   .     S
C681   H682    1.109   .     S
C681   H683    1.108   .     S
C685   H686    1.112   .     S
C685   H687    1.107   .     S
C685   H688    1.109   .     S
C689   H690    1.111   .     S
C689   H691    1.109   .     S
C689   H692    1.107   .     S
O701   C705    1.301   .     A
O701   Cu713   1.982   .     S
O702   C706    1.301   .     A
O702   Cu714   1.982   .     S
O703   Cu713   1.983   .     S
O703   C706    1.301   .     A
O704   Cu714   1.983   .     S
O704   C705    1.301   .     A
C705   C740    1.472   .     S
C706   C739    1.472   .     S
O707   C711    1.294   .     A
O707   Cu713   1.959   .     S
O708   C712    1.294   .     A
O708   Cu714   1.959   .     S
O709   C712    1.293   .     A
O709   Cu713   1.959   .     S
O710   C711    1.293   .     A
O710   Cu714   1.959   .     S
C711   C718    1.447   .     S
C712   C717    1.447   .     S
Cu713  Cu714   2.694   .     S
Cu713  N745    2.024   .     S
Cu714  N746    2.024   .     S
C715   C747    1.520   .     S
C715   C725    1.430   .     A
C715   C717    1.412   .     A
C716   C718    1.412   .     A
C716   C751    1.520   .     S
C716   C726    1.430   .     A
C717   C719    1.385   .     A
C718   C720    1.385   .     A
C719   C721    1.384   .     A
C719   H731    1.086   .     S
C720   H732    1.086   .     S
C720   C722    1.384   .     A
C721   C727    1.392   .     A
C721   C723    1.407   .     A
C722   C728    1.392   .     A
C722   C724    1.407   .     A
C723   C725    1.434   .     A
C723   C94     1.413   1_556 S
C724   C726    1.434   .     A
C725   C730    1.431   .     A
C726   C729    1.431   .     A
C727   H733    1.086   .     S
C727   C99     1.396   1_556 S
C728   H734    1.086   .     S
C729   C755    1.513   .     S
C730   C759    1.513   .     S
C730   C98     1.396   1_556 S
C735   C740    1.415   .     A
C735   Cl763   1.778   .     S
C736   Cl764   1.778   .     S
C736   C739    1.415   .     A
C736   C808    1.391   .     S
C737   C739    1.416   .     A
C737   Cl765   1.778   .     S
C737   C805    1.391   .     S
C738   C740    1.416   .     A
C738   Cl766   1.778   .     S
C741   N746    1.373   .     A
C741   Cl767   1.763   .     S
C741   C1164   1.419   1_545 S
C742   Cl768   1.763   .     S
C742   N745    1.373   .     A
C742   C953    1.419   .     S
C743   N746    1.373   .     A
C743   Cl769   1.762   .     S
C743   C1162   1.419   1_545 S
C744   Cl770   1.762   .     S
C744   N745    1.373   .     A
C744   C951    1.419   .     S
C747   H748    1.109   .     S
C747   H749    1.106   .     S
C747   H750    1.108   .     S
C751   H754    1.106   .     S
C751   H752    1.109   .     S
C751   H753    1.108   .     S
C755   H756    1.112   .     S
C755   H757    1.107   .     S
C755   H758    1.109   .     S
C759   H760    1.111   .     S
C759   H761    1.109   .     S
C759   H762    1.107   .     S
O771   C775    1.301   .     A
O771   Cu783   1.982   .     S
O772   C776    1.301   .     A
O772   Cu784   1.982   .     S
O773   Cu783   1.983   .     S
O773   C776    1.301   .     A
O774   Cu784   1.983   .     S
O774   C775    1.301   .     A
C775   C810    1.472   .     S
C776   C809    1.472   .     S
O777   C781    1.294   .     A
O777   Cu783   1.959   .     S
O778   C782    1.294   .     A
O778   Cu784   1.959   .     S
O779   C782    1.293   .     A
O779   Cu783   1.959   .     S
O780   C781    1.293   .     A
O780   Cu784   1.959   .     S
C781   C788    1.447   .     S
C782   C787    1.447   .     S
Cu783  Cu784   2.694   .     S
Cu783  N815    2.024   .     S
Cu784  N816    2.024   .     S
C785   C817    1.520   .     S
C785   C795    1.430   .     A
C785   C787    1.412   .     A
C786   C788    1.412   .     A
C786   C821    1.520   .     S
C786   C796    1.430   .     A
C787   C789    1.385   .     A
C788   C790    1.385   .     A
C789   C791    1.384   .     A
C789   H801    1.086   .     S
C790   H802    1.086   .     S
C790   C792    1.384   .     A
C791   C797    1.392   .     A
C791   C793    1.407   .     A
C792   C798    1.392   .     A
C792   C794    1.407   .     A
C793   C795    1.434   .     A
C793   C164    1.413   1_556 S
C794   C796    1.434   .     A
C795   C800    1.431   .     A
C796   C799    1.431   .     A
C797   H803    1.086   .     S
C797   C169    1.396   1_556 S
C798   H804    1.086   .     S
C799   C825    1.513   .     S
C800   C829    1.513   .     S
C800   C168    1.396   1_556 S
C805   C810    1.415   .     A
C805   Cl833   1.778   .     S
C806   Cl834   1.778   .     S
C806   C809    1.415   .     A
C806   C668    1.391   1_655 S
C807   C809    1.416   .     A
C807   Cl835   1.778   .     S
C807   C665    1.391   1_655 S
C808   C810    1.416   .     A
C808   Cl836   1.778   .     S
C811   N816    1.373   .     A
C811   Cl837   1.763   .     S
C811   C1234   1.419   1_545 S
C812   Cl838   1.763   .     S
C812   N815    1.373   .     A
C812   C1023   1.419   .     S
C813   N816    1.373   .     A
C813   Cl839   1.762   .     S
C813   C1232   1.419   1_545 S
C814   Cl840   1.762   .     S
C814   N815    1.373   .     A
C814   C1021   1.419   .     S
C817   H818    1.109   .     S
C817   H819    1.106   .     S
C817   H820    1.108   .     S
C821   H824    1.106   .     S
C821   H822    1.109   .     S
C821   H823    1.108   .     S
C825   H826    1.112   .     S
C825   H827    1.107   .     S
C825   H828    1.109   .     S
C829   H830    1.111   .     S
C829   H831    1.109   .     S
C829   H832    1.107   .     S
O841   C845    1.301   .     A
O841   Cu853   1.982   .     S
O842   C846    1.301   .     A
O842   Cu854   1.982   .     S
O843   Cu853   1.983   .     S
O843   C846    1.301   .     A
O844   Cu854   1.983   .     S
O844   C845    1.301   .     A
C845   C880    1.472   .     S
C846   C879    1.472   .     S
O847   C851    1.294   .     A
O847   Cu853   1.959   .     S
O848   C852    1.294   .     A
O848   Cu854   1.959   .     S
O849   C852    1.293   .     A
O849   Cu853   1.959   .     S
O850   C851    1.293   .     A
O850   Cu854   1.959   .     S
C851   C858    1.447   .     S
C852   C857    1.447   .     S
Cu853  Cu854   2.694   .     S
Cu853  N885    2.024   .     S
Cu854  N886    2.024   .     S
C855   C887    1.520   .     S
C855   C865    1.430   .     A
C855   C857    1.412   .     A
C856   C858    1.412   .     A
C856   C891    1.520   .     S
C856   C866    1.430   .     A
C857   C859    1.385   .     A
C858   C860    1.385   .     A
C859   C861    1.384   .     A
C859   H871    1.086   .     S
C860   H872    1.086   .     S
C860   C862    1.384   .     A
C861   C867    1.392   .     A
C861   C863    1.407   .     A
C862   C868    1.392   .     A
C862   C864    1.407   .     A
C863   C865    1.434   .     A
C863   C234    1.413   1_556 S
C864   C866    1.434   .     A
C865   C870    1.431   .     A
C866   C869    1.431   .     A
C867   H873    1.086   .     S
C867   C239    1.396   1_556 S
C868   H874    1.086   .     S
C869   C895    1.513   .     S
C870   C899    1.513   .     S
C870   C238    1.396   1_556 S
C875   C880    1.415   .     A
C875   Cl903   1.778   .     S
C875   C1017   1.391   1_455 S
C876   Cl904   1.778   .     S
C876   C879    1.415   .     A
C876   C948    1.391   .     S
C877   C879    1.416   .     A
C877   Cl905   1.778   .     S
C877   C945    1.391   .     S
C878   C880    1.416   .     A
C878   Cl906   1.778   .     S
C878   C1016   1.391   1_455 S
C881   N886    1.373   .     A
C881   Cl907   1.763   .     S
C882   Cl908   1.763   .     S
C882   N885    1.373   .     A
C882   C1093   1.419   .     S
C883   N886    1.373   .     A
C883   Cl909   1.762   .     S
C884   Cl910   1.762   .     S
C884   N885    1.373   .     A
C884   C1091   1.419   .     S
C887   H888    1.109   .     S
C887   H889    1.106   .     S
C887   H890    1.108   .     S
C891   H894    1.106   .     S
C891   H892    1.109   .     S
C891   H893    1.108   .     S
C895   H896    1.112   .     S
C895   H897    1.107   .     S
C895   H898    1.109   .     S
C899   H900    1.111   .     S
C899   H901    1.109   .     S
C899   H902    1.107   .     S
O911   C915    1.301   .     A
O911   Cu923   1.982   .     S
O912   C916    1.301   .     A
O912   Cu924   1.982   .     S
O913   Cu923   1.983   .     S
O913   C916    1.301   .     A
O914   Cu924   1.983   .     S
O914   C915    1.301   .     A
C915   C950    1.472   .     S
C916   C949    1.472   .     S
O917   C921    1.294   .     A
O917   Cu923   1.959   .     S
O918   C922    1.294   .     A
O918   Cu924   1.959   .     S
O919   C922    1.293   .     A
O919   Cu923   1.959   .     S
O920   C921    1.293   .     A
O920   Cu924   1.959   .     S
C921   C928    1.447   .     S
C922   C927    1.447   .     S
Cu923  Cu924   2.694   .     S
Cu923  N955    2.024   .     S
Cu924  N956    2.024   .     S
C925   C957    1.520   .     S
C925   C935    1.430   .     A
C925   C927    1.412   .     A
C926   C928    1.412   .     A
C926   C961    1.520   .     S
C926   C936    1.430   .     A
C927   C929    1.385   .     A
C928   C930    1.385   .     A
C929   C931    1.384   .     A
C929   H941    1.086   .     S
C930   H942    1.086   .     S
C930   C932    1.384   .     A
C931   C937    1.392   .     A
C931   C933    1.407   .     A
C932   C938    1.392   .     A
C932   C934    1.407   .     A
C933   C935    1.434   .     A
C933   C304    1.413   1_556 S
C934   C936    1.434   .     A
C935   C940    1.431   .     A
C936   C939    1.431   .     A
C937   H943    1.086   .     S
C937   C309    1.396   1_556 S
C938   H944    1.086   .     S
C939   C965    1.513   .     S
C940   C969    1.513   .     S
C940   C308    1.396   1_556 S
C945   C950    1.415   .     A
C945   Cl973   1.778   .     S
C946   Cl974   1.778   .     S
C946   C949    1.415   .     A
C946   C1018   1.391   .     S
C947   C949    1.416   .     A
C947   Cl975   1.778   .     S
C947   C1015   1.391   .     S
C948   C950    1.416   .     A
C948   Cl976   1.778   .     S
C951   N956    1.373   .     A
C951   Cl977   1.763   .     S
C952   Cl978   1.763   .     S
C952   N955    1.373   .     A
C952   C1163   1.419   .     S
C953   N956    1.373   .     A
C953   Cl979   1.762   .     S
C954   Cl980   1.762   .     S
C954   N955    1.373   .     A
C954   C1161   1.419   .     S
C957   H958    1.109   .     S
C957   H959    1.106   .     S
C957   H960    1.108   .     S
C961   H964    1.106   .     S
C961   H962    1.109   .     S
C961   H963    1.108   .     S
C965   H966    1.112   .     S
C965   H967    1.107   .     S
C965   H968    1.109   .     S
C969   H970    1.111   .     S
C969   H971    1.109   .     S
C969   H972    1.107   .     S
O981   C985    1.301   .     A
O981   Cu993   1.982   .     S
O982   C986    1.301   .     A
O982   Cu994   1.982   .     S
O983   Cu993   1.983   .     S
O983   C986    1.301   .     A
O984   Cu994   1.983   .     S
O984   C985    1.301   .     A
C985   C1020   1.472   .     S
C986   C1019   1.472   .     S
O987   C991    1.294   .     A
O987   Cu993   1.959   .     S
O988   C992    1.294   .     A
O988   Cu994   1.959   .     S
O989   C992    1.293   .     A
O989   Cu993   1.959   .     S
O990   C991    1.293   .     A
O990   Cu994   1.959   .     S
C991   C998    1.447   .     S
C992   C997    1.447   .     S
Cu993  Cu994   2.694   .     S
Cu993  N1025   2.024   .     S
Cu994  N1026   2.024   .     S
C995   C1027   1.520   .     S
C995   C1005   1.430   .     A
C995   C997    1.412   .     A
C996   C998    1.412   .     A
C996   C1031   1.520   .     S
C996   C1006   1.430   .     A
C997   C999    1.385   .     A
C998   C1000   1.385   .     A
C999   C1001   1.384   .     A
C999   H1011   1.086   .     S
C1000  H1012   1.086   .     S
C1000  C1002   1.384   .     A
C1001  C1007   1.392   .     A
C1001  C1003   1.407   .     A
C1002  C1008   1.392   .     A
C1002  C1004   1.407   .     A
C1003  C1005   1.434   .     A
C1003  C374    1.413   1_556 S
C1004  C1006   1.434   .     A
C1005  C1010   1.431   .     A
C1006  C1009   1.431   .     A
C1007  H1013   1.086   .     S
C1007  C379    1.396   1_556 S
C1008  H1014   1.086   .     S
C1009  C1035   1.513   .     S
C1010  C1039   1.513   .     S
C1010  C378    1.396   1_556 S
C1015  C1020   1.415   .     A
C1015  Cl1043  1.778   .     S
C1016  Cl1044  1.778   .     S
C1016  C1019   1.415   .     A
C1016  C878    1.391   1_655 S
C1017  C1019   1.416   .     A
C1017  Cl1045  1.778   .     S
C1017  C875    1.391   1_655 S
C1018  C1020   1.416   .     A
C1018  Cl1046  1.778   .     S
C1021  N1026   1.373   .     A
C1021  Cl1047  1.763   .     S
C1022  Cl1048  1.763   .     S
C1022  N1025   1.373   .     A
C1022  C1233   1.419   .     S
C1023  N1026   1.373   .     A
C1023  Cl1049  1.762   .     S
C1024  Cl1050  1.762   .     S
C1024  N1025   1.373   .     A
C1024  C1231   1.419   .     S
C1027  H1028   1.109   .     S
C1027  H1029   1.106   .     S
C1027  H1030   1.108   .     S
C1031  H1034   1.106   .     S
C1031  H1032   1.109   .     S
C1031  H1033   1.108   .     S
C1035  H1036   1.112   .     S
C1035  H1037   1.107   .     S
C1035  H1038   1.109   .     S
C1039  H1040   1.111   .     S
C1039  H1041   1.109   .     S
C1039  H1042   1.107   .     S
O1051  C1055   1.301   .     A
O1051  Cu1063  1.982   .     S
O1052  C1056   1.301   .     A
O1052  Cu1064  1.982   .     S
O1053  Cu1063  1.983   .     S
O1053  C1056   1.301   .     A
O1054  Cu1064  1.983   .     S
O1054  C1055   1.301   .     A
C1055  C1090   1.472   .     S
C1056  C1089   1.472   .     S
O1057  C1061   1.294   .     A
O1057  Cu1063  1.959   .     S
O1058  C1062   1.294   .     A
O1058  Cu1064  1.959   .     S
O1059  C1062   1.293   .     A
O1059  Cu1063  1.959   .     S
O1060  C1061   1.293   .     A
O1060  Cu1064  1.959   .     S
C1061  C1068   1.447   .     S
C1062  C1067   1.447   .     S
Cu1063 Cu1064  2.694   .     S
Cu1063 N1095   2.024   .     S
Cu1064 N1096   2.024   .     S
C1065  C1097   1.520   .     S
C1065  C1075   1.430   .     A
C1065  C1067   1.412   .     A
C1066  C1068   1.412   .     A
C1066  C1101   1.520   .     S
C1066  C1076   1.430   .     A
C1067  C1069   1.385   .     A
C1068  C1070   1.385   .     A
C1069  C1071   1.384   .     A
C1069  H1081   1.086   .     S
C1070  H1082   1.086   .     S
C1070  C1072   1.384   .     A
C1071  C1077   1.392   .     A
C1071  C1073   1.407   .     A
C1072  C1078   1.392   .     A
C1072  C1074   1.407   .     A
C1073  C1075   1.434   .     A
C1073  C444    1.413   1_556 S
C1074  C1076   1.434   .     A
C1075  C1080   1.431   .     A
C1076  C1079   1.431   .     A
C1077  H1083   1.086   .     S
C1077  C449    1.396   1_556 S
C1078  H1084   1.086   .     S
C1079  C1105   1.513   .     S
C1080  C1109   1.513   .     S
C1080  C448    1.396   1_556 S
C1085  C1090   1.415   .     A
C1085  Cl1113  1.778   .     S
C1085  C1227   1.391   1_455 S
C1086  Cl1114  1.778   .     S
C1086  C1089   1.415   .     A
C1086  C1158   1.391   .     S
C1087  C1089   1.416   .     A
C1087  Cl1115  1.778   .     S
C1087  C1155   1.391   .     S
C1088  C1090   1.416   .     A
C1088  Cl1116  1.778   .     S
C1088  C1226   1.391   1_455 S
C1091  N1096   1.373   .     A
C1091  Cl1117  1.763   .     S
C1092  Cl1118  1.763   .     S
C1092  N1095   1.373   .     A
C1092  C673    1.419   1_565 S
C1093  N1096   1.373   .     A
C1093  Cl1119  1.762   .     S
C1094  Cl1120  1.762   .     S
C1094  N1095   1.373   .     A
C1094  C671    1.419   1_565 S
C1097  H1098   1.109   .     S
C1097  H1099   1.106   .     S
C1097  H1100   1.108   .     S
C1101  H1104   1.106   .     S
C1101  H1102   1.109   .     S
C1101  H1103   1.108   .     S
C1105  H1106   1.112   .     S
C1105  H1107   1.107   .     S
C1105  H1108   1.109   .     S
C1109  H1110   1.111   .     S
C1109  H1111   1.109   .     S
C1109  H1112   1.107   .     S
O1121  C1125   1.301   .     A
O1121  Cu1133  1.982   .     S
O1122  C1126   1.301   .     A
O1122  Cu1134  1.982   .     S
O1123  Cu1133  1.983   .     S
O1123  C1126   1.301   .     A
O1124  Cu1134  1.983   .     S
O1124  C1125   1.301   .     A
C1125  C1160   1.472   .     S
C1126  C1159   1.472   .     S
O1127  C1131   1.294   .     A
O1127  Cu1133  1.959   .     S
O1128  C1132   1.294   .     A
O1128  Cu1134  1.959   .     S
O1129  C1132   1.293   .     A
O1129  Cu1133  1.959   .     S
O1130  C1131   1.293   .     A
O1130  Cu1134  1.959   .     S
C1131  C1138   1.447   .     S
C1132  C1137   1.447   .     S
Cu1133 Cu1134  2.694   .     S
Cu1133 N1165   2.024   .     S
Cu1134 N1166   2.024   .     S
C1135  C1167   1.520   .     S
C1135  C1145   1.430   .     A
C1135  C1137   1.412   .     A
C1136  C1138   1.412   .     A
C1136  C1171   1.520   .     S
C1136  C1146   1.430   .     A
C1137  C1139   1.385   .     A
C1138  C1140   1.385   .     A
C1139  C1141   1.384   .     A
C1139  H1151   1.086   .     S
C1140  H1152   1.086   .     S
C1140  C1142   1.384   .     A
C1141  C1147   1.392   .     A
C1141  C1143   1.407   .     A
C1142  C1148   1.392   .     A
C1142  C1144   1.407   .     A
C1143  C1145   1.434   .     A
C1143  C514    1.413   1_556 S
C1144  C1146   1.434   .     A
C1145  C1150   1.431   .     A
C1146  C1149   1.431   .     A
C1147  H1153   1.086   .     S
C1147  C519    1.396   1_556 S
C1148  H1154   1.086   .     S
C1149  C1175   1.513   .     S
C1150  C1179   1.513   .     S
C1150  C518    1.396   1_556 S
C1155  C1160   1.415   .     A
C1155  Cl1183  1.778   .     S
C1156  Cl1184  1.778   .     S
C1156  C1159   1.415   .     A
C1156  C1228   1.391   .     S
C1157  C1159   1.416   .     A
C1157  Cl1185  1.778   .     S
C1157  C1225   1.391   .     S
C1158  C1160   1.416   .     A
C1158  Cl1186  1.778   .     S
C1161  N1166   1.373   .     A
C1161  Cl1187  1.763   .     S
C1162  Cl1188  1.763   .     S
C1162  N1165   1.373   .     A
C1162  C743    1.419   1_565 S
C1163  N1166   1.373   .     A
C1163  Cl1189  1.762   .     S
C1164  Cl1190  1.762   .     S
C1164  N1165   1.373   .     A
C1164  C741    1.419   1_565 S
C1167  H1168   1.109   .     S
C1167  H1169   1.106   .     S
C1167  H1170   1.108   .     S
C1171  H1174   1.106   .     S
C1171  H1172   1.109   .     S
C1171  H1173   1.108   .     S
C1175  H1176   1.112   .     S
C1175  H1177   1.107   .     S
C1175  H1178   1.109   .     S
C1179  H1180   1.111   .     S
C1179  H1181   1.109   .     S
C1179  H1182   1.107   .     S
O1191  C1195   1.301   .     A
O1191  Cu1203  1.982   .     S
O1192  C1196   1.301   .     A
O1192  Cu1204  1.982   .     S
O1193  Cu1203  1.983   .     S
O1193  C1196   1.301   .     A
O1194  Cu1204  1.983   .     S
O1194  C1195   1.301   .     A
C1195  C1230   1.472   .     S
C1196  C1229   1.472   .     S
O1197  C1201   1.294   .     A
O1197  Cu1203  1.959   .     S
O1198  C1202   1.294   .     A
O1198  Cu1204  1.959   .     S
O1199  C1202   1.293   .     A
O1199  Cu1203  1.959   .     S
O1200  C1201   1.293   .     A
O1200  Cu1204  1.959   .     S
C1201  C1208   1.447   .     S
C1202  C1207   1.447   .     S
Cu1203 Cu1204  2.694   .     S
Cu1203 N1235   2.024   .     S
Cu1204 N1236   2.024   .     S
C1205  C1237   1.520   .     S
C1205  C1215   1.430   .     A
C1205  C1207   1.412   .     A
C1206  C1208   1.412   .     A
C1206  C1241   1.520   .     S
C1206  C1216   1.430   .     A
C1207  C1209   1.385   .     A
C1208  C1210   1.385   .     A
C1209  C1211   1.384   .     A
C1209  H1221   1.086   .     S
C1210  H1222   1.086   .     S
C1210  C1212   1.384   .     A
C1211  C1217   1.392   .     A
C1211  C1213   1.407   .     A
C1212  C1218   1.392   .     A
C1212  C1214   1.407   .     A
C1213  C1215   1.434   .     A
C1213  C584    1.413   1_556 S
C1214  C1216   1.434   .     A
C1215  C1220   1.431   .     A
C1216  C1219   1.431   .     A
C1217  H1223   1.086   .     S
C1217  C589    1.396   1_556 S
C1218  H1224   1.086   .     S
C1219  C1245   1.513   .     S
C1220  C1249   1.513   .     S
C1220  C588    1.396   1_556 S
C1225  C1230   1.415   .     A
C1225  Cl1253  1.778   .     S
C1226  Cl1254  1.778   .     S
C1226  C1229   1.415   .     A
C1226  C1088   1.391   1_655 S
C1227  C1229   1.416   .     A
C1227  Cl1255  1.778   .     S
C1227  C1085   1.391   1_655 S
C1228  C1230   1.416   .     A
C1228  Cl1256  1.778   .     S
C1231  N1236   1.373   .     A
C1231  Cl1257  1.763   .     S
C1232  Cl1258  1.763   .     S
C1232  N1235   1.373   .     A
C1232  C813    1.419   1_565 S
C1233  N1236   1.373   .     A
C1233  Cl1259  1.762   .     S
C1234  Cl1260  1.762   .     S
C1234  N1235   1.373   .     A
C1234  C811    1.419   1_565 S
C1237  H1238   1.109   .     S
C1237  H1239   1.106   .     S
C1237  H1240   1.108   .     S
C1241  H1244   1.106   .     S
C1241  H1242   1.109   .     S
C1241  H1243   1.108   .     S
C1245  H1246   1.112   .     S
C1245  H1247   1.107   .     S
C1245  H1248   1.109   .     S
C1249  H1250   1.111   .     S
C1249  H1251   1.109   .     S
C1249  H1252   1.107   .     S
