data_str_m2_o10_o17_pcu_sym.63
_audit_creation_date              2020-01-03
_audit_creation_method            'Materials Studio'
_symmetry_space_group_name_H-M    'P1'
_symmetry_Int_Tables_number       1
_symmetry_cell_setting            triclinic
loop_
_symmetry_equiv_pos_as_xyz
  x,y,z
_cell_length_a                    30.0881
_cell_length_b                    26.0566
_cell_length_c                    22.3416
_cell_angle_alpha                 102.8591
_cell_angle_beta                  94.5613
_cell_angle_gamma                 92.5409
loop_
_atom_site_label
_atom_site_type_symbol
_atom_site_fract_x
_atom_site_fract_y
_atom_site_fract_z
_atom_site_U_iso_or_equiv
_atom_site_adp_type
_atom_site_occupancy
C1     C     0.24865   0.06658   0.15110   0.00000  Uiso   1.00
C2     C     0.08890   0.14693   0.11240   0.00000  Uiso   1.00
C3     C     0.38403   0.16773   0.16557   0.00000  Uiso   1.00
C4     C     0.11597   0.16561   0.16776   0.00000  Uiso   1.00
C5     C     0.40323   0.14910   0.11040   0.00000  Uiso   1.00
C6     C     0.09677   0.18423   0.22293   0.00000  Uiso   1.00
C7     C     0.44956   0.14822   0.11034   0.00000  Uiso   1.00
C8     C     0.05044   0.18511   0.22299   0.00000  Uiso   1.00
C9     C     0.47672   0.16699   0.16632   0.00000  Uiso   1.00
C10    C     0.02328   0.16634   0.16701   0.00000  Uiso   1.00
C11    C     0.45733   0.18636   0.22168   0.00000  Uiso   1.00
C12    C     0.25135   0.26676   0.18223   0.00000  Uiso   1.00
C13    C     0.04267   0.14697   0.11165   0.00000  Uiso   1.00
C14    C     0.46927   0.12866   0.05562   0.00000  Uiso   1.00
C15    C     0.03073   0.20467   0.27772   0.00000  Uiso   1.00
C16    C     0.01559   0.12807   0.05641   0.00000  Uiso   1.00
C17    C     0.48441   0.20526   0.27692   0.00000  Uiso   1.00
C18    C     0.24799   0.01063   0.14232   0.00000  Uiso   1.00
C19    C     0.25201   0.32270   0.19101   0.00000  Uiso   1.00
C20    C     0.16436   0.16625   0.16719   0.00000  Uiso   1.00
C21    C     0.33564   0.16708   0.16615   0.00000  Uiso   1.00
C22    C     0.41110   0.18640   0.22094   0.00000  Uiso   1.00
Cu23   Cu    0.25500   0.17246   0.22813   0.00000  Uiso   1.00
Cu24   Cu    0.24499   0.16087   0.10521   0.00000  Uiso   1.00
F25    F     0.44382   0.11007   0.00144   0.00000  Uiso   1.00
F26    F     0.05618   0.22326   0.33189   0.00000  Uiso   1.00
H27    H     0.39621   0.20118   0.26358   0.00000  Uiso   1.00
H28    H     0.28501   0.20745   0.01727   0.00000  Uiso   1.00
H29    H     0.10379   0.13215   0.06976   0.00000  Uiso   1.00
H30    H     0.38205   0.13456   0.06785   0.00000  Uiso   1.00
H31    H     0.11795   0.19877   0.26548   0.00000  Uiso   1.00
H32    H     0.03031   0.11297   0.01376   0.00000  Uiso   1.00
H33    H     0.46969   0.22036   0.31958   0.00000  Uiso   1.00
H34    H     0.24421   0.32015   0.09537   0.00000  Uiso   1.00
H35    H     0.25579   0.01318   0.23796   0.00000  Uiso   1.00
H36    H     0.21498   0.12588   0.31606   0.00000  Uiso   1.00
N37    N     0.23744   0.15214   0.01284   0.00000  Uiso   1.00
N38    N     0.26255   0.18119   0.32049   0.00000  Uiso   1.00
O39    O     0.25325   0.09538   0.20659   0.00000  Uiso   1.00
O40    O     0.24674   0.23796   0.12674   0.00000  Uiso   1.00
O41    O     0.24480   0.08559   0.10279   0.00000  Uiso   1.00
O42    O     0.25520   0.24774   0.23055   0.00000  Uiso   1.00
O43    O     0.18935   0.17155   0.21857   0.00000  Uiso   1.00
O44    O     0.31064   0.16179   0.11476   0.00000  Uiso   1.00
O45    O     0.18090   0.16176   0.11477   0.00000  Uiso   1.00
O46    O     0.31910   0.17157   0.21857   0.00000  Uiso   1.00
C47    C     0.74865   0.06658   0.15110   0.00000  Uiso   1.00
C48    C     0.58890   0.14693   0.11240   0.00000  Uiso   1.00
C49    C     0.88403   0.16773   0.16557   0.00000  Uiso   1.00
C50    C     0.61597   0.16561   0.16776   0.00000  Uiso   1.00
C51    C     0.90323   0.14910   0.11040   0.00000  Uiso   1.00
C52    C     0.59677   0.18423   0.22293   0.00000  Uiso   1.00
C53    C     0.94956   0.14822   0.11034   0.00000  Uiso   1.00
C54    C     0.55044   0.18511   0.22299   0.00000  Uiso   1.00
C55    C     0.97672   0.16699   0.16632   0.00000  Uiso   1.00
C56    C     0.52328   0.16634   0.16701   0.00000  Uiso   1.00
C57    C     0.95733   0.18636   0.22168   0.00000  Uiso   1.00
C58    C     0.75135   0.26676   0.18223   0.00000  Uiso   1.00
C59    C     0.54267   0.14697   0.11165   0.00000  Uiso   1.00
C60    C     0.96927   0.12866   0.05562   0.00000  Uiso   1.00
C61    C     0.53073   0.20467   0.27772   0.00000  Uiso   1.00
C62    C     0.51559   0.12807   0.05641   0.00000  Uiso   1.00
C63    C     0.98441   0.20526   0.27692   0.00000  Uiso   1.00
C64    C     0.74799   0.01063   0.14232   0.00000  Uiso   1.00
C65    C     0.75201   0.32270   0.19101   0.00000  Uiso   1.00
C66    C     0.66436   0.16625   0.16719   0.00000  Uiso   1.00
C67    C     0.83564   0.16708   0.16615   0.00000  Uiso   1.00
C68    C     0.91110   0.18640   0.22094   0.00000  Uiso   1.00
Cu69   Cu    0.75500   0.17246   0.22813   0.00000  Uiso   1.00
Cu70   Cu    0.74499   0.16087   0.10521   0.00000  Uiso   1.00
F71    F     0.94382   0.11007   0.00144   0.00000  Uiso   1.00
F72    F     0.55618   0.22326   0.33189   0.00000  Uiso   1.00
H73    H     0.89621   0.20118   0.26358   0.00000  Uiso   1.00
H74    H     0.78501   0.20745   0.01727   0.00000  Uiso   1.00
H75    H     0.60379   0.13215   0.06976   0.00000  Uiso   1.00
H76    H     0.88205   0.13456   0.06785   0.00000  Uiso   1.00
H77    H     0.61795   0.19877   0.26548   0.00000  Uiso   1.00
H78    H     0.53031   0.11297   0.01376   0.00000  Uiso   1.00
H79    H     0.96969   0.22036   0.31958   0.00000  Uiso   1.00
H80    H     0.74421   0.32015   0.09537   0.00000  Uiso   1.00
H81    H     0.75579   0.01318   0.23796   0.00000  Uiso   1.00
H82    H     0.71498   0.12588   0.31606   0.00000  Uiso   1.00
N83    N     0.73744   0.15214   0.01284   0.00000  Uiso   1.00
N84    N     0.76255   0.18119   0.32049   0.00000  Uiso   1.00
O85    O     0.75325   0.09538   0.20659   0.00000  Uiso   1.00
O86    O     0.74674   0.23796   0.12674   0.00000  Uiso   1.00
O87    O     0.74480   0.08559   0.10279   0.00000  Uiso   1.00
O88    O     0.75520   0.24774   0.23055   0.00000  Uiso   1.00
O89    O     0.68935   0.17155   0.21857   0.00000  Uiso   1.00
O90    O     0.81064   0.16179   0.11476   0.00000  Uiso   1.00
O91    O     0.68090   0.16176   0.11477   0.00000  Uiso   1.00
O92    O     0.81910   0.17157   0.21857   0.00000  Uiso   1.00
C93    C     0.24865   0.39991   0.15110   0.00000  Uiso   1.00
C94    C     0.08890   0.48027   0.11240   0.00000  Uiso   1.00
C95    C     0.38403   0.50106   0.16557   0.00000  Uiso   1.00
C96    C     0.11597   0.49894   0.16776   0.00000  Uiso   1.00
C97    C     0.40323   0.48243   0.11040   0.00000  Uiso   1.00
C98    C     0.09677   0.51757   0.22293   0.00000  Uiso   1.00
C99    C     0.44956   0.48156   0.11034   0.00000  Uiso   1.00
C100   C     0.05044   0.51844   0.22299   0.00000  Uiso   1.00
C101   C     0.47672   0.50033   0.16632   0.00000  Uiso   1.00
C102   C     0.02328   0.49967   0.16701   0.00000  Uiso   1.00
C103   C     0.45733   0.51970   0.22168   0.00000  Uiso   1.00
C104   C     0.25135   0.60009   0.18223   0.00000  Uiso   1.00
C105   C     0.04267   0.48030   0.11165   0.00000  Uiso   1.00
C106   C     0.46927   0.46199   0.05562   0.00000  Uiso   1.00
C107   C     0.03073   0.53800   0.27772   0.00000  Uiso   1.00
C108   C     0.01559   0.46140   0.05641   0.00000  Uiso   1.00
C109   C     0.48441   0.53860   0.27692   0.00000  Uiso   1.00
C110   C     0.24799   0.34396   0.14232   0.00000  Uiso   1.00
C111   C     0.25201   0.65604   0.19101   0.00000  Uiso   1.00
C112   C     0.16436   0.49959   0.16719   0.00000  Uiso   1.00
C113   C     0.33564   0.50041   0.16615   0.00000  Uiso   1.00
C114   C     0.41110   0.51973   0.22094   0.00000  Uiso   1.00
Cu115  Cu    0.25500   0.50579   0.22813   0.00000  Uiso   1.00
Cu116  Cu    0.24499   0.49421   0.10521   0.00000  Uiso   1.00
F117   F     0.44382   0.44341   0.00144   0.00000  Uiso   1.00
F118   F     0.05618   0.55659   0.33189   0.00000  Uiso   1.00
H119   H     0.39621   0.53452   0.26358   0.00000  Uiso   1.00
H120   H     0.28501   0.54078   0.01727   0.00000  Uiso   1.00
H121   H     0.10379   0.46549   0.06976   0.00000  Uiso   1.00
H122   H     0.38205   0.46789   0.06785   0.00000  Uiso   1.00
H123   H     0.11795   0.53211   0.26548   0.00000  Uiso   1.00
H124   H     0.03031   0.44630   0.01376   0.00000  Uiso   1.00
H125   H     0.46969   0.55370   0.31958   0.00000  Uiso   1.00
H126   H     0.24421   0.65349   0.09537   0.00000  Uiso   1.00
H127   H     0.25579   0.34651   0.23796   0.00000  Uiso   1.00
H128   H     0.21498   0.45922   0.31606   0.00000  Uiso   1.00
N129   N     0.23744   0.48547   0.01284   0.00000  Uiso   1.00
N130   N     0.26255   0.51453   0.32049   0.00000  Uiso   1.00
O131   O     0.25325   0.42871   0.20659   0.00000  Uiso   1.00
O132   O     0.24674   0.57129   0.12674   0.00000  Uiso   1.00
O133   O     0.24480   0.41892   0.10279   0.00000  Uiso   1.00
O134   O     0.25520   0.58108   0.23055   0.00000  Uiso   1.00
O135   O     0.18935   0.50488   0.21857   0.00000  Uiso   1.00
O136   O     0.31064   0.49512   0.11476   0.00000  Uiso   1.00
O137   O     0.18090   0.49510   0.11477   0.00000  Uiso   1.00
O138   O     0.31910   0.50490   0.21857   0.00000  Uiso   1.00
C139   C     0.74865   0.39991   0.15110   0.00000  Uiso   1.00
C140   C     0.58890   0.48027   0.11240   0.00000  Uiso   1.00
C141   C     0.88403   0.50106   0.16557   0.00000  Uiso   1.00
C142   C     0.61597   0.49894   0.16776   0.00000  Uiso   1.00
C143   C     0.90323   0.48243   0.11040   0.00000  Uiso   1.00
C144   C     0.59677   0.51757   0.22293   0.00000  Uiso   1.00
C145   C     0.94956   0.48156   0.11034   0.00000  Uiso   1.00
C146   C     0.55044   0.51844   0.22299   0.00000  Uiso   1.00
C147   C     0.97672   0.50033   0.16632   0.00000  Uiso   1.00
C148   C     0.52328   0.49967   0.16701   0.00000  Uiso   1.00
C149   C     0.95733   0.51970   0.22168   0.00000  Uiso   1.00
C150   C     0.75135   0.60009   0.18223   0.00000  Uiso   1.00
C151   C     0.54267   0.48030   0.11165   0.00000  Uiso   1.00
C152   C     0.96927   0.46199   0.05562   0.00000  Uiso   1.00
C153   C     0.53073   0.53800   0.27772   0.00000  Uiso   1.00
C154   C     0.51559   0.46140   0.05641   0.00000  Uiso   1.00
C155   C     0.98441   0.53860   0.27692   0.00000  Uiso   1.00
C156   C     0.74799   0.34396   0.14232   0.00000  Uiso   1.00
C157   C     0.75201   0.65604   0.19101   0.00000  Uiso   1.00
C158   C     0.66436   0.49959   0.16719   0.00000  Uiso   1.00
C159   C     0.83564   0.50041   0.16615   0.00000  Uiso   1.00
C160   C     0.91110   0.51973   0.22094   0.00000  Uiso   1.00
Cu161  Cu    0.75500   0.50579   0.22813   0.00000  Uiso   1.00
Cu162  Cu    0.74499   0.49421   0.10521   0.00000  Uiso   1.00
F163   F     0.94382   0.44341   0.00144   0.00000  Uiso   1.00
F164   F     0.55618   0.55659   0.33189   0.00000  Uiso   1.00
H165   H     0.89621   0.53452   0.26358   0.00000  Uiso   1.00
H166   H     0.78501   0.54078   0.01727   0.00000  Uiso   1.00
H167   H     0.60379   0.46549   0.06976   0.00000  Uiso   1.00
H168   H     0.88205   0.46789   0.06785   0.00000  Uiso   1.00
H169   H     0.61795   0.53211   0.26548   0.00000  Uiso   1.00
H170   H     0.53031   0.44630   0.01376   0.00000  Uiso   1.00
H171   H     0.96969   0.55370   0.31958   0.00000  Uiso   1.00
H172   H     0.74421   0.65349   0.09537   0.00000  Uiso   1.00
H173   H     0.75579   0.34651   0.23796   0.00000  Uiso   1.00
H174   H     0.71498   0.45922   0.31606   0.00000  Uiso   1.00
N175   N     0.73744   0.48547   0.01284   0.00000  Uiso   1.00
N176   N     0.76255   0.51453   0.32049   0.00000  Uiso   1.00
O177   O     0.75325   0.42871   0.20659   0.00000  Uiso   1.00
O178   O     0.74674   0.57129   0.12674   0.00000  Uiso   1.00
O179   O     0.74480   0.41892   0.10279   0.00000  Uiso   1.00
O180   O     0.75520   0.58108   0.23055   0.00000  Uiso   1.00
O181   O     0.68935   0.50488   0.21857   0.00000  Uiso   1.00
O182   O     0.81064   0.49512   0.11476   0.00000  Uiso   1.00
O183   O     0.68090   0.49510   0.11477   0.00000  Uiso   1.00
O184   O     0.81910   0.50490   0.21857   0.00000  Uiso   1.00
C185   C     0.24865   0.73324   0.15110   0.00000  Uiso   1.00
C186   C     0.08890   0.81360   0.11240   0.00000  Uiso   1.00
C187   C     0.38403   0.83439   0.16557   0.00000  Uiso   1.00
C188   C     0.11597   0.83227   0.16776   0.00000  Uiso   1.00
C189   C     0.40323   0.81577   0.11040   0.00000  Uiso   1.00
C190   C     0.09677   0.85090   0.22293   0.00000  Uiso   1.00
C191   C     0.44956   0.81489   0.11034   0.00000  Uiso   1.00
C192   C     0.05044   0.85178   0.22299   0.00000  Uiso   1.00
C193   C     0.47672   0.83366   0.16632   0.00000  Uiso   1.00
C194   C     0.02328   0.83301   0.16701   0.00000  Uiso   1.00
C195   C     0.45733   0.85303   0.22168   0.00000  Uiso   1.00
C196   C     0.25135   0.93342   0.18223   0.00000  Uiso   1.00
C197   C     0.04267   0.81364   0.11165   0.00000  Uiso   1.00
C198   C     0.46927   0.79533   0.05562   0.00000  Uiso   1.00
C199   C     0.03073   0.87134   0.27772   0.00000  Uiso   1.00
C200   C     0.01559   0.79474   0.05641   0.00000  Uiso   1.00
C201   C     0.48441   0.87193   0.27692   0.00000  Uiso   1.00
C202   C     0.24799   0.67730   0.14232   0.00000  Uiso   1.00
C203   C     0.25201   0.98937   0.19101   0.00000  Uiso   1.00
C204   C     0.16436   0.83292   0.16719   0.00000  Uiso   1.00
C205   C     0.33564   0.83375   0.16615   0.00000  Uiso   1.00
C206   C     0.41110   0.85307   0.22094   0.00000  Uiso   1.00
Cu207  Cu    0.25500   0.83913   0.22813   0.00000  Uiso   1.00
Cu208  Cu    0.24499   0.82754   0.10521   0.00000  Uiso   1.00
F209   F     0.44382   0.77674   0.00144   0.00000  Uiso   1.00
F210   F     0.05618   0.88992   0.33189   0.00000  Uiso   1.00
H211   H     0.39621   0.86785   0.26358   0.00000  Uiso   1.00
H212   H     0.28501   0.87412   0.01727   0.00000  Uiso   1.00
H213   H     0.10379   0.79882   0.06976   0.00000  Uiso   1.00
H214   H     0.38205   0.80122   0.06785   0.00000  Uiso   1.00
H215   H     0.11795   0.86544   0.26548   0.00000  Uiso   1.00
H216   H     0.03031   0.77964   0.01376   0.00000  Uiso   1.00
H217   H     0.46969   0.88703   0.31958   0.00000  Uiso   1.00
H218   H     0.24421   0.98682   0.09537   0.00000  Uiso   1.00
H219   H     0.25579   0.67985   0.23796   0.00000  Uiso   1.00
H220   H     0.21498   0.79255   0.31606   0.00000  Uiso   1.00
N221   N     0.23744   0.81881   0.01284   0.00000  Uiso   1.00
N222   N     0.26255   0.84786   0.32049   0.00000  Uiso   1.00
O223   O     0.25325   0.76204   0.20659   0.00000  Uiso   1.00
O224   O     0.24674   0.90462   0.12674   0.00000  Uiso   1.00
O225   O     0.24480   0.75226   0.10279   0.00000  Uiso   1.00
O226   O     0.25520   0.91441   0.23055   0.00000  Uiso   1.00
O227   O     0.18935   0.83821   0.21857   0.00000  Uiso   1.00
O228   O     0.31064   0.82845   0.11476   0.00000  Uiso   1.00
O229   O     0.18090   0.82843   0.11477   0.00000  Uiso   1.00
O230   O     0.31910   0.83824   0.21857   0.00000  Uiso   1.00
C231   C     0.74865   0.73324   0.15110   0.00000  Uiso   1.00
C232   C     0.58890   0.81360   0.11240   0.00000  Uiso   1.00
C233   C     0.88403   0.83439   0.16557   0.00000  Uiso   1.00
C234   C     0.61597   0.83227   0.16776   0.00000  Uiso   1.00
C235   C     0.90323   0.81577   0.11040   0.00000  Uiso   1.00
C236   C     0.59677   0.85090   0.22293   0.00000  Uiso   1.00
C237   C     0.94956   0.81489   0.11034   0.00000  Uiso   1.00
C238   C     0.55044   0.85178   0.22299   0.00000  Uiso   1.00
C239   C     0.97672   0.83366   0.16632   0.00000  Uiso   1.00
C240   C     0.52328   0.83301   0.16701   0.00000  Uiso   1.00
C241   C     0.95733   0.85303   0.22168   0.00000  Uiso   1.00
C242   C     0.75135   0.93342   0.18223   0.00000  Uiso   1.00
C243   C     0.54267   0.81364   0.11165   0.00000  Uiso   1.00
C244   C     0.96927   0.79533   0.05562   0.00000  Uiso   1.00
C245   C     0.53073   0.87134   0.27772   0.00000  Uiso   1.00
C246   C     0.51559   0.79474   0.05641   0.00000  Uiso   1.00
C247   C     0.98441   0.87193   0.27692   0.00000  Uiso   1.00
C248   C     0.74799   0.67730   0.14232   0.00000  Uiso   1.00
C249   C     0.75201   0.98937   0.19101   0.00000  Uiso   1.00
C250   C     0.66436   0.83292   0.16719   0.00000  Uiso   1.00
C251   C     0.83564   0.83375   0.16615   0.00000  Uiso   1.00
C252   C     0.91110   0.85307   0.22094   0.00000  Uiso   1.00
Cu253  Cu    0.75500   0.83913   0.22813   0.00000  Uiso   1.00
Cu254  Cu    0.74499   0.82754   0.10521   0.00000  Uiso   1.00
F255   F     0.94382   0.77674   0.00144   0.00000  Uiso   1.00
F256   F     0.55618   0.88992   0.33189   0.00000  Uiso   1.00
H257   H     0.89621   0.86785   0.26358   0.00000  Uiso   1.00
H258   H     0.78501   0.87412   0.01727   0.00000  Uiso   1.00
H259   H     0.60379   0.79882   0.06976   0.00000  Uiso   1.00
H260   H     0.88205   0.80122   0.06785   0.00000  Uiso   1.00
H261   H     0.61795   0.86544   0.26548   0.00000  Uiso   1.00
H262   H     0.53031   0.77964   0.01376   0.00000  Uiso   1.00
H263   H     0.96969   0.88703   0.31958   0.00000  Uiso   1.00
H264   H     0.74421   0.98682   0.09537   0.00000  Uiso   1.00
H265   H     0.75579   0.67985   0.23796   0.00000  Uiso   1.00
H266   H     0.71498   0.79255   0.31606   0.00000  Uiso   1.00
N267   N     0.73744   0.81881   0.01284   0.00000  Uiso   1.00
N268   N     0.76255   0.84786   0.32049   0.00000  Uiso   1.00
O269   O     0.75325   0.76204   0.20659   0.00000  Uiso   1.00
O270   O     0.74674   0.90462   0.12674   0.00000  Uiso   1.00
O271   O     0.74480   0.75226   0.10279   0.00000  Uiso   1.00
O272   O     0.75520   0.91441   0.23055   0.00000  Uiso   1.00
O273   O     0.68935   0.83821   0.21857   0.00000  Uiso   1.00
O274   O     0.81064   0.82845   0.11476   0.00000  Uiso   1.00
O275   O     0.68090   0.82843   0.11477   0.00000  Uiso   1.00
O276   O     0.81910   0.83824   0.21857   0.00000  Uiso   1.00
C277   C     0.24865   0.06658   0.48443   0.00000  Uiso   1.00
C278   C     0.08890   0.14693   0.44573   0.00000  Uiso   1.00
C279   C     0.38403   0.16773   0.49891   0.00000  Uiso   1.00
C280   C     0.11597   0.16561   0.50110   0.00000  Uiso   1.00
C281   C     0.40323   0.14910   0.44374   0.00000  Uiso   1.00
C282   C     0.09677   0.18423   0.55627   0.00000  Uiso   1.00
C283   C     0.44956   0.14822   0.44367   0.00000  Uiso   1.00
C284   C     0.05044   0.18511   0.55633   0.00000  Uiso   1.00
C285   C     0.47672   0.16699   0.49966   0.00000  Uiso   1.00
C286   C     0.02328   0.16634   0.50034   0.00000  Uiso   1.00
C287   C     0.45733   0.18636   0.55501   0.00000  Uiso   1.00
C288   C     0.25135   0.26676   0.51557   0.00000  Uiso   1.00
C289   C     0.04267   0.14697   0.44499   0.00000  Uiso   1.00
C290   C     0.46927   0.12866   0.38895   0.00000  Uiso   1.00
C291   C     0.03073   0.20467   0.61105   0.00000  Uiso   1.00
C292   C     0.01559   0.12807   0.38975   0.00000  Uiso   1.00
C293   C     0.48441   0.20526   0.61025   0.00000  Uiso   1.00
C294   C     0.24799   0.01063   0.47565   0.00000  Uiso   1.00
C295   C     0.25201   0.32270   0.52435   0.00000  Uiso   1.00
C296   C     0.16436   0.16625   0.50052   0.00000  Uiso   1.00
C297   C     0.33564   0.16708   0.49948   0.00000  Uiso   1.00
C298   C     0.41110   0.18640   0.55427   0.00000  Uiso   1.00
Cu299  Cu    0.25500   0.17246   0.56146   0.00000  Uiso   1.00
Cu300  Cu    0.24499   0.16087   0.43854   0.00000  Uiso   1.00
F301   F     0.44382   0.11007   0.33478   0.00000  Uiso   1.00
F302   F     0.05618   0.22326   0.66523   0.00000  Uiso   1.00
H303   H     0.39621   0.20118   0.59691   0.00000  Uiso   1.00
H304   H     0.28501   0.20745   0.35060   0.00000  Uiso   1.00
H305   H     0.10379   0.13215   0.40309   0.00000  Uiso   1.00
H306   H     0.38205   0.13456   0.40119   0.00000  Uiso   1.00
H307   H     0.11795   0.19877   0.59881   0.00000  Uiso   1.00
H308   H     0.03031   0.11297   0.34709   0.00000  Uiso   1.00
H309   H     0.46969   0.22036   0.65291   0.00000  Uiso   1.00
H310   H     0.24421   0.32015   0.42870   0.00000  Uiso   1.00
H311   H     0.25579   0.01318   0.57130   0.00000  Uiso   1.00
H312   H     0.21498   0.12588   0.64940   0.00000  Uiso   1.00
N313   N     0.23744   0.15214   0.34617   0.00000  Uiso   1.00
N314   N     0.26255   0.18119   0.65383   0.00000  Uiso   1.00
O315   O     0.25325   0.09538   0.53992   0.00000  Uiso   1.00
O316   O     0.24674   0.23796   0.46008   0.00000  Uiso   1.00
O317   O     0.24480   0.08559   0.43612   0.00000  Uiso   1.00
O318   O     0.25520   0.24774   0.56388   0.00000  Uiso   1.00
O319   O     0.18935   0.17155   0.55191   0.00000  Uiso   1.00
O320   O     0.31064   0.16179   0.44809   0.00000  Uiso   1.00
O321   O     0.18090   0.16176   0.44810   0.00000  Uiso   1.00
O322   O     0.31910   0.17157   0.55190   0.00000  Uiso   1.00
C323   C     0.74865   0.06658   0.48443   0.00000  Uiso   1.00
C324   C     0.58890   0.14693   0.44573   0.00000  Uiso   1.00
C325   C     0.88403   0.16773   0.49891   0.00000  Uiso   1.00
C326   C     0.61597   0.16561   0.50110   0.00000  Uiso   1.00
C327   C     0.90323   0.14910   0.44374   0.00000  Uiso   1.00
C328   C     0.59677   0.18423   0.55627   0.00000  Uiso   1.00
C329   C     0.94956   0.14822   0.44367   0.00000  Uiso   1.00
C330   C     0.55044   0.18511   0.55633   0.00000  Uiso   1.00
C331   C     0.97672   0.16699   0.49966   0.00000  Uiso   1.00
C332   C     0.52328   0.16634   0.50034   0.00000  Uiso   1.00
C333   C     0.95733   0.18636   0.55501   0.00000  Uiso   1.00
C334   C     0.75135   0.26676   0.51557   0.00000  Uiso   1.00
C335   C     0.54267   0.14697   0.44499   0.00000  Uiso   1.00
C336   C     0.96927   0.12866   0.38895   0.00000  Uiso   1.00
C337   C     0.53073   0.20467   0.61105   0.00000  Uiso   1.00
C338   C     0.51559   0.12807   0.38975   0.00000  Uiso   1.00
C339   C     0.98441   0.20526   0.61025   0.00000  Uiso   1.00
C340   C     0.74799   0.01063   0.47565   0.00000  Uiso   1.00
C341   C     0.75201   0.32270   0.52435   0.00000  Uiso   1.00
C342   C     0.66436   0.16625   0.50052   0.00000  Uiso   1.00
C343   C     0.83564   0.16708   0.49948   0.00000  Uiso   1.00
C344   C     0.91110   0.18640   0.55427   0.00000  Uiso   1.00
Cu345  Cu    0.75500   0.17246   0.56146   0.00000  Uiso   1.00
Cu346  Cu    0.74499   0.16087   0.43854   0.00000  Uiso   1.00
F347   F     0.94382   0.11007   0.33478   0.00000  Uiso   1.00
F348   F     0.55618   0.22326   0.66523   0.00000  Uiso   1.00
H349   H     0.89621   0.20118   0.59691   0.00000  Uiso   1.00
H350   H     0.78501   0.20745   0.35060   0.00000  Uiso   1.00
H351   H     0.60379   0.13215   0.40309   0.00000  Uiso   1.00
H352   H     0.88205   0.13456   0.40119   0.00000  Uiso   1.00
H353   H     0.61795   0.19877   0.59881   0.00000  Uiso   1.00
H354   H     0.53031   0.11297   0.34709   0.00000  Uiso   1.00
H355   H     0.96969   0.22036   0.65291   0.00000  Uiso   1.00
H356   H     0.74421   0.32015   0.42870   0.00000  Uiso   1.00
H357   H     0.75579   0.01318   0.57130   0.00000  Uiso   1.00
H358   H     0.71498   0.12588   0.64940   0.00000  Uiso   1.00
N359   N     0.73744   0.15214   0.34617   0.00000  Uiso   1.00
N360   N     0.76255   0.18119   0.65383   0.00000  Uiso   1.00
O361   O     0.75325   0.09538   0.53992   0.00000  Uiso   1.00
O362   O     0.74674   0.23796   0.46008   0.00000  Uiso   1.00
O363   O     0.74480   0.08559   0.43612   0.00000  Uiso   1.00
O364   O     0.75520   0.24774   0.56388   0.00000  Uiso   1.00
O365   O     0.68935   0.17155   0.55191   0.00000  Uiso   1.00
O366   O     0.81064   0.16179   0.44809   0.00000  Uiso   1.00
O367   O     0.68090   0.16176   0.44810   0.00000  Uiso   1.00
O368   O     0.81910   0.17157   0.55190   0.00000  Uiso   1.00
C369   C     0.24865   0.39991   0.48443   0.00000  Uiso   1.00
C370   C     0.08890   0.48027   0.44573   0.00000  Uiso   1.00
C371   C     0.38403   0.50106   0.49891   0.00000  Uiso   1.00
C372   C     0.11597   0.49894   0.50110   0.00000  Uiso   1.00
C373   C     0.40323   0.48243   0.44374   0.00000  Uiso   1.00
C374   C     0.09677   0.51757   0.55627   0.00000  Uiso   1.00
C375   C     0.44956   0.48156   0.44367   0.00000  Uiso   1.00
C376   C     0.05044   0.51844   0.55633   0.00000  Uiso   1.00
C377   C     0.47672   0.50033   0.49966   0.00000  Uiso   1.00
C378   C     0.02328   0.49967   0.50034   0.00000  Uiso   1.00
C379   C     0.45733   0.51970   0.55501   0.00000  Uiso   1.00
C380   C     0.25135   0.60009   0.51557   0.00000  Uiso   1.00
C381   C     0.04267   0.48030   0.44499   0.00000  Uiso   1.00
C382   C     0.46927   0.46199   0.38895   0.00000  Uiso   1.00
C383   C     0.03073   0.53800   0.61105   0.00000  Uiso   1.00
C384   C     0.01559   0.46140   0.38975   0.00000  Uiso   1.00
C385   C     0.48441   0.53860   0.61025   0.00000  Uiso   1.00
C386   C     0.24799   0.34396   0.47565   0.00000  Uiso   1.00
C387   C     0.25201   0.65604   0.52435   0.00000  Uiso   1.00
C388   C     0.16436   0.49959   0.50052   0.00000  Uiso   1.00
C389   C     0.33564   0.50041   0.49948   0.00000  Uiso   1.00
C390   C     0.41110   0.51973   0.55427   0.00000  Uiso   1.00
Cu391  Cu    0.25500   0.50579   0.56146   0.00000  Uiso   1.00
Cu392  Cu    0.24499   0.49421   0.43854   0.00000  Uiso   1.00
F393   F     0.44382   0.44341   0.33478   0.00000  Uiso   1.00
F394   F     0.05618   0.55659   0.66523   0.00000  Uiso   1.00
H395   H     0.39621   0.53452   0.59691   0.00000  Uiso   1.00
H396   H     0.28501   0.54078   0.35060   0.00000  Uiso   1.00
H397   H     0.10379   0.46549   0.40309   0.00000  Uiso   1.00
H398   H     0.38205   0.46789   0.40119   0.00000  Uiso   1.00
H399   H     0.11795   0.53211   0.59881   0.00000  Uiso   1.00
H400   H     0.03031   0.44630   0.34709   0.00000  Uiso   1.00
H401   H     0.46969   0.55370   0.65291   0.00000  Uiso   1.00
H402   H     0.24421   0.65349   0.42870   0.00000  Uiso   1.00
H403   H     0.25579   0.34651   0.57130   0.00000  Uiso   1.00
H404   H     0.21498   0.45922   0.64940   0.00000  Uiso   1.00
N405   N     0.23744   0.48547   0.34617   0.00000  Uiso   1.00
N406   N     0.26255   0.51453   0.65383   0.00000  Uiso   1.00
O407   O     0.25325   0.42871   0.53992   0.00000  Uiso   1.00
O408   O     0.24674   0.57129   0.46008   0.00000  Uiso   1.00
O409   O     0.24480   0.41892   0.43612   0.00000  Uiso   1.00
O410   O     0.25520   0.58108   0.56388   0.00000  Uiso   1.00
O411   O     0.18935   0.50488   0.55191   0.00000  Uiso   1.00
O412   O     0.31064   0.49512   0.44809   0.00000  Uiso   1.00
O413   O     0.18090   0.49510   0.44810   0.00000  Uiso   1.00
O414   O     0.31910   0.50490   0.55190   0.00000  Uiso   1.00
C415   C     0.74865   0.39991   0.48443   0.00000  Uiso   1.00
C416   C     0.58890   0.48027   0.44573   0.00000  Uiso   1.00
C417   C     0.88403   0.50106   0.49891   0.00000  Uiso   1.00
C418   C     0.61597   0.49894   0.50110   0.00000  Uiso   1.00
C419   C     0.90323   0.48243   0.44374   0.00000  Uiso   1.00
C420   C     0.59677   0.51757   0.55627   0.00000  Uiso   1.00
C421   C     0.94956   0.48156   0.44367   0.00000  Uiso   1.00
C422   C     0.55044   0.51844   0.55633   0.00000  Uiso   1.00
C423   C     0.97672   0.50033   0.49966   0.00000  Uiso   1.00
C424   C     0.52328   0.49967   0.50034   0.00000  Uiso   1.00
C425   C     0.95733   0.51970   0.55501   0.00000  Uiso   1.00
C426   C     0.75135   0.60009   0.51557   0.00000  Uiso   1.00
C427   C     0.54267   0.48030   0.44499   0.00000  Uiso   1.00
C428   C     0.96927   0.46199   0.38895   0.00000  Uiso   1.00
C429   C     0.53073   0.53800   0.61105   0.00000  Uiso   1.00
C430   C     0.51559   0.46140   0.38975   0.00000  Uiso   1.00
C431   C     0.98441   0.53860   0.61025   0.00000  Uiso   1.00
C432   C     0.74799   0.34396   0.47565   0.00000  Uiso   1.00
C433   C     0.75201   0.65604   0.52435   0.00000  Uiso   1.00
C434   C     0.66436   0.49959   0.50052   0.00000  Uiso   1.00
C435   C     0.83564   0.50041   0.49948   0.00000  Uiso   1.00
C436   C     0.91110   0.51973   0.55427   0.00000  Uiso   1.00
Cu437  Cu    0.75500   0.50579   0.56146   0.00000  Uiso   1.00
Cu438  Cu    0.74499   0.49421   0.43854   0.00000  Uiso   1.00
F439   F     0.94382   0.44341   0.33478   0.00000  Uiso   1.00
F440   F     0.55618   0.55659   0.66523   0.00000  Uiso   1.00
H441   H     0.89621   0.53452   0.59691   0.00000  Uiso   1.00
H442   H     0.78501   0.54078   0.35060   0.00000  Uiso   1.00
H443   H     0.60379   0.46549   0.40309   0.00000  Uiso   1.00
H444   H     0.88205   0.46789   0.40119   0.00000  Uiso   1.00
H445   H     0.61795   0.53211   0.59881   0.00000  Uiso   1.00
H446   H     0.53031   0.44630   0.34709   0.00000  Uiso   1.00
H447   H     0.96969   0.55370   0.65291   0.00000  Uiso   1.00
H448   H     0.74421   0.65349   0.42870   0.00000  Uiso   1.00
H449   H     0.75579   0.34651   0.57130   0.00000  Uiso   1.00
H450   H     0.71498   0.45922   0.64940   0.00000  Uiso   1.00
N451   N     0.73744   0.48547   0.34617   0.00000  Uiso   1.00
N452   N     0.76255   0.51453   0.65383   0.00000  Uiso   1.00
O453   O     0.75325   0.42871   0.53992   0.00000  Uiso   1.00
O454   O     0.74674   0.57129   0.46008   0.00000  Uiso   1.00
O455   O     0.74480   0.41892   0.43612   0.00000  Uiso   1.00
O456   O     0.75520   0.58108   0.56388   0.00000  Uiso   1.00
O457   O     0.68935   0.50488   0.55191   0.00000  Uiso   1.00
O458   O     0.81064   0.49512   0.44809   0.00000  Uiso   1.00
O459   O     0.68090   0.49510   0.44810   0.00000  Uiso   1.00
O460   O     0.81910   0.50490   0.55190   0.00000  Uiso   1.00
C461   C     0.24865   0.73324   0.48443   0.00000  Uiso   1.00
C462   C     0.08890   0.81360   0.44573   0.00000  Uiso   1.00
C463   C     0.38403   0.83439   0.49891   0.00000  Uiso   1.00
C464   C     0.11597   0.83227   0.50110   0.00000  Uiso   1.00
C465   C     0.40323   0.81577   0.44374   0.00000  Uiso   1.00
C466   C     0.09677   0.85090   0.55627   0.00000  Uiso   1.00
C467   C     0.44956   0.81489   0.44367   0.00000  Uiso   1.00
C468   C     0.05044   0.85178   0.55633   0.00000  Uiso   1.00
C469   C     0.47672   0.83366   0.49966   0.00000  Uiso   1.00
C470   C     0.02328   0.83301   0.50034   0.00000  Uiso   1.00
C471   C     0.45733   0.85303   0.55501   0.00000  Uiso   1.00
C472   C     0.25135   0.93342   0.51557   0.00000  Uiso   1.00
C473   C     0.04267   0.81364   0.44499   0.00000  Uiso   1.00
C474   C     0.46927   0.79533   0.38895   0.00000  Uiso   1.00
C475   C     0.03073   0.87134   0.61105   0.00000  Uiso   1.00
C476   C     0.01559   0.79474   0.38975   0.00000  Uiso   1.00
C477   C     0.48441   0.87193   0.61025   0.00000  Uiso   1.00
C478   C     0.24799   0.67730   0.47565   0.00000  Uiso   1.00
C479   C     0.25201   0.98937   0.52435   0.00000  Uiso   1.00
C480   C     0.16436   0.83292   0.50052   0.00000  Uiso   1.00
C481   C     0.33564   0.83375   0.49948   0.00000  Uiso   1.00
C482   C     0.41110   0.85307   0.55427   0.00000  Uiso   1.00
Cu483  Cu    0.25500   0.83913   0.56146   0.00000  Uiso   1.00
Cu484  Cu    0.24499   0.82754   0.43854   0.00000  Uiso   1.00
F485   F     0.44382   0.77674   0.33478   0.00000  Uiso   1.00
F486   F     0.05618   0.88992   0.66523   0.00000  Uiso   1.00
H487   H     0.39621   0.86785   0.59691   0.00000  Uiso   1.00
H488   H     0.28501   0.87412   0.35060   0.00000  Uiso   1.00
H489   H     0.10379   0.79882   0.40309   0.00000  Uiso   1.00
H490   H     0.38205   0.80122   0.40119   0.00000  Uiso   1.00
H491   H     0.11795   0.86544   0.59881   0.00000  Uiso   1.00
H492   H     0.03031   0.77964   0.34709   0.00000  Uiso   1.00
H493   H     0.46969   0.88703   0.65291   0.00000  Uiso   1.00
H494   H     0.24421   0.98682   0.42870   0.00000  Uiso   1.00
H495   H     0.25579   0.67985   0.57130   0.00000  Uiso   1.00
H496   H     0.21498   0.79255   0.64940   0.00000  Uiso   1.00
N497   N     0.23744   0.81881   0.34617   0.00000  Uiso   1.00
N498   N     0.26255   0.84786   0.65383   0.00000  Uiso   1.00
O499   O     0.25325   0.76204   0.53992   0.00000  Uiso   1.00
O500   O     0.24674   0.90462   0.46008   0.00000  Uiso   1.00
O501   O     0.24480   0.75226   0.43612   0.00000  Uiso   1.00
O502   O     0.25520   0.91441   0.56388   0.00000  Uiso   1.00
O503   O     0.18935   0.83821   0.55191   0.00000  Uiso   1.00
O504   O     0.31064   0.82845   0.44809   0.00000  Uiso   1.00
O505   O     0.18090   0.82843   0.44810   0.00000  Uiso   1.00
O506   O     0.31910   0.83824   0.55190   0.00000  Uiso   1.00
C507   C     0.74865   0.73324   0.48443   0.00000  Uiso   1.00
C508   C     0.58890   0.81360   0.44573   0.00000  Uiso   1.00
C509   C     0.88403   0.83439   0.49891   0.00000  Uiso   1.00
C510   C     0.61597   0.83227   0.50110   0.00000  Uiso   1.00
C511   C     0.90323   0.81577   0.44374   0.00000  Uiso   1.00
C512   C     0.59677   0.85090   0.55627   0.00000  Uiso   1.00
C513   C     0.94956   0.81489   0.44367   0.00000  Uiso   1.00
C514   C     0.55044   0.85178   0.55633   0.00000  Uiso   1.00
C515   C     0.97672   0.83366   0.49966   0.00000  Uiso   1.00
C516   C     0.52328   0.83301   0.50034   0.00000  Uiso   1.00
C517   C     0.95733   0.85303   0.55501   0.00000  Uiso   1.00
C518   C     0.75135   0.93342   0.51557   0.00000  Uiso   1.00
C519   C     0.54267   0.81364   0.44499   0.00000  Uiso   1.00
C520   C     0.96927   0.79533   0.38895   0.00000  Uiso   1.00
C521   C     0.53073   0.87134   0.61105   0.00000  Uiso   1.00
C522   C     0.51559   0.79474   0.38975   0.00000  Uiso   1.00
C523   C     0.98441   0.87193   0.61025   0.00000  Uiso   1.00
C524   C     0.74799   0.67730   0.47565   0.00000  Uiso   1.00
C525   C     0.75201   0.98937   0.52435   0.00000  Uiso   1.00
C526   C     0.66436   0.83292   0.50052   0.00000  Uiso   1.00
C527   C     0.83564   0.83375   0.49948   0.00000  Uiso   1.00
C528   C     0.91110   0.85307   0.55427   0.00000  Uiso   1.00
Cu529  Cu    0.75500   0.83913   0.56146   0.00000  Uiso   1.00
Cu530  Cu    0.74499   0.82754   0.43854   0.00000  Uiso   1.00
F531   F     0.94382   0.77674   0.33478   0.00000  Uiso   1.00
F532   F     0.55618   0.88992   0.66523   0.00000  Uiso   1.00
H533   H     0.89621   0.86785   0.59691   0.00000  Uiso   1.00
H534   H     0.78501   0.87412   0.35060   0.00000  Uiso   1.00
H535   H     0.60379   0.79882   0.40309   0.00000  Uiso   1.00
H536   H     0.88205   0.80122   0.40119   0.00000  Uiso   1.00
H537   H     0.61795   0.86544   0.59881   0.00000  Uiso   1.00
H538   H     0.53031   0.77964   0.34709   0.00000  Uiso   1.00
H539   H     0.96969   0.88703   0.65291   0.00000  Uiso   1.00
H540   H     0.74421   0.98682   0.42870   0.00000  Uiso   1.00
H541   H     0.75579   0.67985   0.57130   0.00000  Uiso   1.00
H542   H     0.71498   0.79255   0.64940   0.00000  Uiso   1.00
N543   N     0.73744   0.81881   0.34617   0.00000  Uiso   1.00
N544   N     0.76255   0.84786   0.65383   0.00000  Uiso   1.00
O545   O     0.75325   0.76204   0.53992   0.00000  Uiso   1.00
O546   O     0.74674   0.90462   0.46008   0.00000  Uiso   1.00
O547   O     0.74480   0.75226   0.43612   0.00000  Uiso   1.00
O548   O     0.75520   0.91441   0.56388   0.00000  Uiso   1.00
O549   O     0.68935   0.83821   0.55191   0.00000  Uiso   1.00
O550   O     0.81064   0.82845   0.44809   0.00000  Uiso   1.00
O551   O     0.68090   0.82843   0.44810   0.00000  Uiso   1.00
O552   O     0.81910   0.83824   0.55190   0.00000  Uiso   1.00
C553   C     0.24865   0.06658   0.81777   0.00000  Uiso   1.00
C554   C     0.08890   0.14693   0.77906   0.00000  Uiso   1.00
C555   C     0.38403   0.16773   0.83224   0.00000  Uiso   1.00
C556   C     0.11597   0.16561   0.83443   0.00000  Uiso   1.00
C557   C     0.40323   0.14910   0.77707   0.00000  Uiso   1.00
C558   C     0.09677   0.18423   0.88960   0.00000  Uiso   1.00
C559   C     0.44956   0.14822   0.77701   0.00000  Uiso   1.00
C560   C     0.05044   0.18511   0.88966   0.00000  Uiso   1.00
C561   C     0.47672   0.16699   0.83299   0.00000  Uiso   1.00
C562   C     0.02328   0.16634   0.83368   0.00000  Uiso   1.00
C563   C     0.45733   0.18636   0.88835   0.00000  Uiso   1.00
C564   C     0.25135   0.26676   0.84890   0.00000  Uiso   1.00
C565   C     0.04267   0.14697   0.77832   0.00000  Uiso   1.00
C566   C     0.46927   0.12866   0.72228   0.00000  Uiso   1.00
C567   C     0.03073   0.20467   0.94438   0.00000  Uiso   1.00
C568   C     0.01559   0.12807   0.72308   0.00000  Uiso   1.00
C569   C     0.48441   0.20526   0.94359   0.00000  Uiso   1.00
C570   C     0.24799   0.01063   0.80899   0.00000  Uiso   1.00
C571   C     0.25201   0.32270   0.85768   0.00000  Uiso   1.00
C572   C     0.16436   0.16625   0.83385   0.00000  Uiso   1.00
C573   C     0.33564   0.16708   0.83281   0.00000  Uiso   1.00
C574   C     0.41110   0.18640   0.88760   0.00000  Uiso   1.00
Cu575  Cu    0.25500   0.17246   0.89479   0.00000  Uiso   1.00
Cu576  Cu    0.24499   0.16087   0.77187   0.00000  Uiso   1.00
F577   F     0.44382   0.11007   0.66811   0.00000  Uiso   1.00
F578   F     0.05618   0.22326   0.99856   0.00000  Uiso   1.00
H579   H     0.39621   0.20118   0.93024   0.00000  Uiso   1.00
H580   H     0.28501   0.20745   0.68394   0.00000  Uiso   1.00
H581   H     0.10379   0.13215   0.73642   0.00000  Uiso   1.00
H582   H     0.38205   0.13456   0.73452   0.00000  Uiso   1.00
H583   H     0.11795   0.19877   0.93215   0.00000  Uiso   1.00
H584   H     0.03031   0.11297   0.68042   0.00000  Uiso   1.00
H585   H     0.46969   0.22036   0.98624   0.00000  Uiso   1.00
H586   H     0.24421   0.32015   0.76204   0.00000  Uiso   1.00
H587   H     0.25579   0.01318   0.90463   0.00000  Uiso   1.00
H588   H     0.21498   0.12588   0.98273   0.00000  Uiso   1.00
N589   N     0.23744   0.15214   0.67951   0.00000  Uiso   1.00
N590   N     0.26255   0.18119   0.98716   0.00000  Uiso   1.00
O591   O     0.25325   0.09538   0.87326   0.00000  Uiso   1.00
O592   O     0.24674   0.23796   0.79341   0.00000  Uiso   1.00
O593   O     0.24480   0.08559   0.76945   0.00000  Uiso   1.00
O594   O     0.25520   0.24774   0.89721   0.00000  Uiso   1.00
O595   O     0.18935   0.17155   0.88524   0.00000  Uiso   1.00
O596   O     0.31064   0.16179   0.78143   0.00000  Uiso   1.00
O597   O     0.18090   0.16176   0.78143   0.00000  Uiso   1.00
O598   O     0.31910   0.17157   0.88523   0.00000  Uiso   1.00
C599   C     0.74865   0.06658   0.81777   0.00000  Uiso   1.00
C600   C     0.58890   0.14693   0.77906   0.00000  Uiso   1.00
C601   C     0.88403   0.16773   0.83224   0.00000  Uiso   1.00
C602   C     0.61597   0.16561   0.83443   0.00000  Uiso   1.00
C603   C     0.90323   0.14910   0.77707   0.00000  Uiso   1.00
C604   C     0.59677   0.18423   0.88960   0.00000  Uiso   1.00
C605   C     0.94956   0.14822   0.77701   0.00000  Uiso   1.00
C606   C     0.55044   0.18511   0.88966   0.00000  Uiso   1.00
C607   C     0.97672   0.16699   0.83299   0.00000  Uiso   1.00
C608   C     0.52328   0.16634   0.83368   0.00000  Uiso   1.00
C609   C     0.95733   0.18636   0.88835   0.00000  Uiso   1.00
C610   C     0.75135   0.26676   0.84890   0.00000  Uiso   1.00
C611   C     0.54267   0.14697   0.77832   0.00000  Uiso   1.00
C612   C     0.96927   0.12866   0.72228   0.00000  Uiso   1.00
C613   C     0.53073   0.20467   0.94438   0.00000  Uiso   1.00
C614   C     0.51559   0.12807   0.72308   0.00000  Uiso   1.00
C615   C     0.98441   0.20526   0.94359   0.00000  Uiso   1.00
C616   C     0.74799   0.01063   0.80899   0.00000  Uiso   1.00
C617   C     0.75201   0.32270   0.85768   0.00000  Uiso   1.00
C618   C     0.66436   0.16625   0.83385   0.00000  Uiso   1.00
C619   C     0.83564   0.16708   0.83281   0.00000  Uiso   1.00
C620   C     0.91110   0.18640   0.88760   0.00000  Uiso   1.00
Cu621  Cu    0.75500   0.17246   0.89479   0.00000  Uiso   1.00
Cu622  Cu    0.74499   0.16087   0.77187   0.00000  Uiso   1.00
F623   F     0.94382   0.11007   0.66811   0.00000  Uiso   1.00
F624   F     0.55618   0.22326   0.99856   0.00000  Uiso   1.00
H625   H     0.89621   0.20118   0.93024   0.00000  Uiso   1.00
H626   H     0.78501   0.20745   0.68394   0.00000  Uiso   1.00
H627   H     0.60379   0.13215   0.73642   0.00000  Uiso   1.00
H628   H     0.88205   0.13456   0.73452   0.00000  Uiso   1.00
H629   H     0.61795   0.19877   0.93215   0.00000  Uiso   1.00
H630   H     0.53031   0.11297   0.68042   0.00000  Uiso   1.00
H631   H     0.96969   0.22036   0.98624   0.00000  Uiso   1.00
H632   H     0.74421   0.32015   0.76204   0.00000  Uiso   1.00
H633   H     0.75579   0.01318   0.90463   0.00000  Uiso   1.00
H634   H     0.71498   0.12588   0.98273   0.00000  Uiso   1.00
N635   N     0.73744   0.15214   0.67951   0.00000  Uiso   1.00
N636   N     0.76255   0.18119   0.98716   0.00000  Uiso   1.00
O637   O     0.75325   0.09538   0.87326   0.00000  Uiso   1.00
O638   O     0.74674   0.23796   0.79341   0.00000  Uiso   1.00
O639   O     0.74480   0.08559   0.76945   0.00000  Uiso   1.00
O640   O     0.75520   0.24774   0.89721   0.00000  Uiso   1.00
O641   O     0.68935   0.17155   0.88524   0.00000  Uiso   1.00
O642   O     0.81064   0.16179   0.78143   0.00000  Uiso   1.00
O643   O     0.68090   0.16176   0.78143   0.00000  Uiso   1.00
O644   O     0.81910   0.17157   0.88523   0.00000  Uiso   1.00
C645   C     0.24865   0.39991   0.81777   0.00000  Uiso   1.00
C646   C     0.08890   0.48027   0.77906   0.00000  Uiso   1.00
C647   C     0.38403   0.50106   0.83224   0.00000  Uiso   1.00
C648   C     0.11597   0.49894   0.83443   0.00000  Uiso   1.00
C649   C     0.40323   0.48243   0.77707   0.00000  Uiso   1.00
C650   C     0.09677   0.51757   0.88960   0.00000  Uiso   1.00
C651   C     0.44956   0.48156   0.77701   0.00000  Uiso   1.00
C652   C     0.05044   0.51844   0.88966   0.00000  Uiso   1.00
C653   C     0.47672   0.50033   0.83299   0.00000  Uiso   1.00
C654   C     0.02328   0.49967   0.83368   0.00000  Uiso   1.00
C655   C     0.45733   0.51970   0.88835   0.00000  Uiso   1.00
C656   C     0.25135   0.60009   0.84890   0.00000  Uiso   1.00
C657   C     0.04267   0.48030   0.77832   0.00000  Uiso   1.00
C658   C     0.46927   0.46199   0.72228   0.00000  Uiso   1.00
C659   C     0.03073   0.53800   0.94438   0.00000  Uiso   1.00
C660   C     0.01559   0.46140   0.72308   0.00000  Uiso   1.00
C661   C     0.48441   0.53860   0.94359   0.00000  Uiso   1.00
C662   C     0.24799   0.34396   0.80899   0.00000  Uiso   1.00
C663   C     0.25201   0.65604   0.85768   0.00000  Uiso   1.00
C664   C     0.16436   0.49959   0.83385   0.00000  Uiso   1.00
C665   C     0.33564   0.50041   0.83281   0.00000  Uiso   1.00
C666   C     0.41110   0.51973   0.88760   0.00000  Uiso   1.00
Cu667  Cu    0.25500   0.50579   0.89479   0.00000  Uiso   1.00
Cu668  Cu    0.24499   0.49421   0.77187   0.00000  Uiso   1.00
F669   F     0.44382   0.44341   0.66811   0.00000  Uiso   1.00
F670   F     0.05618   0.55659   0.99856   0.00000  Uiso   1.00
H671   H     0.39621   0.53452   0.93024   0.00000  Uiso   1.00
H672   H     0.28501   0.54078   0.68394   0.00000  Uiso   1.00
H673   H     0.10379   0.46549   0.73642   0.00000  Uiso   1.00
H674   H     0.38205   0.46789   0.73452   0.00000  Uiso   1.00
H675   H     0.11795   0.53211   0.93215   0.00000  Uiso   1.00
H676   H     0.03031   0.44630   0.68042   0.00000  Uiso   1.00
H677   H     0.46969   0.55370   0.98624   0.00000  Uiso   1.00
H678   H     0.24421   0.65349   0.76204   0.00000  Uiso   1.00
H679   H     0.25579   0.34651   0.90463   0.00000  Uiso   1.00
H680   H     0.21498   0.45922   0.98273   0.00000  Uiso   1.00
N681   N     0.23744   0.48547   0.67951   0.00000  Uiso   1.00
N682   N     0.26255   0.51453   0.98716   0.00000  Uiso   1.00
O683   O     0.25325   0.42871   0.87326   0.00000  Uiso   1.00
O684   O     0.24674   0.57129   0.79341   0.00000  Uiso   1.00
O685   O     0.24480   0.41892   0.76945   0.00000  Uiso   1.00
O686   O     0.25520   0.58108   0.89721   0.00000  Uiso   1.00
O687   O     0.18935   0.50488   0.88524   0.00000  Uiso   1.00
O688   O     0.31064   0.49512   0.78143   0.00000  Uiso   1.00
O689   O     0.18090   0.49510   0.78143   0.00000  Uiso   1.00
O690   O     0.31910   0.50490   0.88523   0.00000  Uiso   1.00
C691   C     0.74865   0.39991   0.81777   0.00000  Uiso   1.00
C692   C     0.58890   0.48027   0.77906   0.00000  Uiso   1.00
C693   C     0.88403   0.50106   0.83224   0.00000  Uiso   1.00
C694   C     0.61597   0.49894   0.83443   0.00000  Uiso   1.00
C695   C     0.90323   0.48243   0.77707   0.00000  Uiso   1.00
C696   C     0.59677   0.51757   0.88960   0.00000  Uiso   1.00
C697   C     0.94956   0.48156   0.77701   0.00000  Uiso   1.00
C698   C     0.55044   0.51844   0.88966   0.00000  Uiso   1.00
C699   C     0.97672   0.50033   0.83299   0.00000  Uiso   1.00
C700   C     0.52328   0.49967   0.83368   0.00000  Uiso   1.00
C701   C     0.95733   0.51970   0.88835   0.00000  Uiso   1.00
C702   C     0.75135   0.60009   0.84890   0.00000  Uiso   1.00
C703   C     0.54267   0.48030   0.77832   0.00000  Uiso   1.00
C704   C     0.96927   0.46199   0.72228   0.00000  Uiso   1.00
C705   C     0.53073   0.53800   0.94438   0.00000  Uiso   1.00
C706   C     0.51559   0.46140   0.72308   0.00000  Uiso   1.00
C707   C     0.98441   0.53860   0.94359   0.00000  Uiso   1.00
C708   C     0.74799   0.34396   0.80899   0.00000  Uiso   1.00
C709   C     0.75201   0.65604   0.85768   0.00000  Uiso   1.00
C710   C     0.66436   0.49959   0.83385   0.00000  Uiso   1.00
C711   C     0.83564   0.50041   0.83281   0.00000  Uiso   1.00
C712   C     0.91110   0.51973   0.88760   0.00000  Uiso   1.00
Cu713  Cu    0.75500   0.50579   0.89479   0.00000  Uiso   1.00
Cu714  Cu    0.74499   0.49421   0.77187   0.00000  Uiso   1.00
F715   F     0.94382   0.44341   0.66811   0.00000  Uiso   1.00
F716   F     0.55618   0.55659   0.99856   0.00000  Uiso   1.00
H717   H     0.89621   0.53452   0.93024   0.00000  Uiso   1.00
H718   H     0.78501   0.54078   0.68394   0.00000  Uiso   1.00
H719   H     0.60379   0.46549   0.73642   0.00000  Uiso   1.00
H720   H     0.88205   0.46789   0.73452   0.00000  Uiso   1.00
H721   H     0.61795   0.53211   0.93215   0.00000  Uiso   1.00
H722   H     0.53031   0.44630   0.68042   0.00000  Uiso   1.00
H723   H     0.96969   0.55370   0.98624   0.00000  Uiso   1.00
H724   H     0.74421   0.65349   0.76204   0.00000  Uiso   1.00
H725   H     0.75579   0.34651   0.90463   0.00000  Uiso   1.00
H726   H     0.71498   0.45922   0.98273   0.00000  Uiso   1.00
N727   N     0.73744   0.48547   0.67951   0.00000  Uiso   1.00
N728   N     0.76255   0.51453   0.98716   0.00000  Uiso   1.00
O729   O     0.75325   0.42871   0.87326   0.00000  Uiso   1.00
O730   O     0.74674   0.57129   0.79341   0.00000  Uiso   1.00
O731   O     0.74480   0.41892   0.76945   0.00000  Uiso   1.00
O732   O     0.75520   0.58108   0.89721   0.00000  Uiso   1.00
O733   O     0.68935   0.50488   0.88524   0.00000  Uiso   1.00
O734   O     0.81064   0.49512   0.78143   0.00000  Uiso   1.00
O735   O     0.68090   0.49510   0.78143   0.00000  Uiso   1.00
O736   O     0.81910   0.50490   0.88523   0.00000  Uiso   1.00
C737   C     0.24865   0.73324   0.81777   0.00000  Uiso   1.00
C738   C     0.08890   0.81360   0.77906   0.00000  Uiso   1.00
C739   C     0.38403   0.83439   0.83224   0.00000  Uiso   1.00
C740   C     0.11597   0.83227   0.83443   0.00000  Uiso   1.00
C741   C     0.40323   0.81577   0.77707   0.00000  Uiso   1.00
C742   C     0.09677   0.85090   0.88960   0.00000  Uiso   1.00
C743   C     0.44956   0.81489   0.77701   0.00000  Uiso   1.00
C744   C     0.05044   0.85178   0.88966   0.00000  Uiso   1.00
C745   C     0.47672   0.83366   0.83299   0.00000  Uiso   1.00
C746   C     0.02328   0.83301   0.83368   0.00000  Uiso   1.00
C747   C     0.45733   0.85303   0.88835   0.00000  Uiso   1.00
C748   C     0.25135   0.93342   0.84890   0.00000  Uiso   1.00
C749   C     0.04267   0.81364   0.77832   0.00000  Uiso   1.00
C750   C     0.46927   0.79533   0.72228   0.00000  Uiso   1.00
C751   C     0.03073   0.87134   0.94438   0.00000  Uiso   1.00
C752   C     0.01559   0.79474   0.72308   0.00000  Uiso   1.00
C753   C     0.48441   0.87193   0.94359   0.00000  Uiso   1.00
C754   C     0.24799   0.67730   0.80899   0.00000  Uiso   1.00
C755   C     0.25201   0.98937   0.85768   0.00000  Uiso   1.00
C756   C     0.16436   0.83292   0.83385   0.00000  Uiso   1.00
C757   C     0.33564   0.83375   0.83281   0.00000  Uiso   1.00
C758   C     0.41110   0.85307   0.88760   0.00000  Uiso   1.00
Cu759  Cu    0.25500   0.83913   0.89479   0.00000  Uiso   1.00
Cu760  Cu    0.24499   0.82754   0.77187   0.00000  Uiso   1.00
F761   F     0.44382   0.77674   0.66811   0.00000  Uiso   1.00
F762   F     0.05618   0.88992   0.99856   0.00000  Uiso   1.00
H763   H     0.39621   0.86785   0.93024   0.00000  Uiso   1.00
H764   H     0.28501   0.87412   0.68394   0.00000  Uiso   1.00
H765   H     0.10379   0.79882   0.73642   0.00000  Uiso   1.00
H766   H     0.38205   0.80122   0.73452   0.00000  Uiso   1.00
H767   H     0.11795   0.86544   0.93215   0.00000  Uiso   1.00
H768   H     0.03031   0.77964   0.68042   0.00000  Uiso   1.00
H769   H     0.46969   0.88703   0.98624   0.00000  Uiso   1.00
H770   H     0.24421   0.98682   0.76204   0.00000  Uiso   1.00
H771   H     0.25579   0.67985   0.90463   0.00000  Uiso   1.00
H772   H     0.21498   0.79255   0.98273   0.00000  Uiso   1.00
N773   N     0.23744   0.81881   0.67951   0.00000  Uiso   1.00
N774   N     0.26255   0.84786   0.98716   0.00000  Uiso   1.00
O775   O     0.25325   0.76204   0.87326   0.00000  Uiso   1.00
O776   O     0.24674   0.90462   0.79341   0.00000  Uiso   1.00
O777   O     0.24480   0.75226   0.76945   0.00000  Uiso   1.00
O778   O     0.25520   0.91441   0.89721   0.00000  Uiso   1.00
O779   O     0.18935   0.83821   0.88524   0.00000  Uiso   1.00
O780   O     0.31064   0.82845   0.78143   0.00000  Uiso   1.00
O781   O     0.18090   0.82843   0.78143   0.00000  Uiso   1.00
O782   O     0.31910   0.83824   0.88523   0.00000  Uiso   1.00
C783   C     0.74865   0.73324   0.81777   0.00000  Uiso   1.00
C784   C     0.58890   0.81360   0.77906   0.00000  Uiso   1.00
C785   C     0.88403   0.83439   0.83224   0.00000  Uiso   1.00
C786   C     0.61597   0.83227   0.83443   0.00000  Uiso   1.00
C787   C     0.90323   0.81577   0.77707   0.00000  Uiso   1.00
C788   C     0.59677   0.85090   0.88960   0.00000  Uiso   1.00
C789   C     0.94956   0.81489   0.77701   0.00000  Uiso   1.00
C790   C     0.55044   0.85178   0.88966   0.00000  Uiso   1.00
C791   C     0.97672   0.83366   0.83299   0.00000  Uiso   1.00
C792   C     0.52328   0.83301   0.83368   0.00000  Uiso   1.00
C793   C     0.95733   0.85303   0.88835   0.00000  Uiso   1.00
C794   C     0.75135   0.93342   0.84890   0.00000  Uiso   1.00
C795   C     0.54267   0.81364   0.77832   0.00000  Uiso   1.00
C796   C     0.96927   0.79533   0.72228   0.00000  Uiso   1.00
C797   C     0.53073   0.87134   0.94438   0.00000  Uiso   1.00
C798   C     0.51559   0.79474   0.72308   0.00000  Uiso   1.00
C799   C     0.98441   0.87193   0.94359   0.00000  Uiso   1.00
C800   C     0.74799   0.67730   0.80899   0.00000  Uiso   1.00
C801   C     0.75201   0.98937   0.85768   0.00000  Uiso   1.00
C802   C     0.66436   0.83292   0.83385   0.00000  Uiso   1.00
C803   C     0.83564   0.83375   0.83281   0.00000  Uiso   1.00
C804   C     0.91110   0.85307   0.88760   0.00000  Uiso   1.00
Cu805  Cu    0.75500   0.83913   0.89479   0.00000  Uiso   1.00
Cu806  Cu    0.74499   0.82754   0.77187   0.00000  Uiso   1.00
F807   F     0.94382   0.77674   0.66811   0.00000  Uiso   1.00
F808   F     0.55618   0.88992   0.99856   0.00000  Uiso   1.00
H809   H     0.89621   0.86785   0.93024   0.00000  Uiso   1.00
H810   H     0.78501   0.87412   0.68394   0.00000  Uiso   1.00
H811   H     0.60379   0.79882   0.73642   0.00000  Uiso   1.00
H812   H     0.88205   0.80122   0.73452   0.00000  Uiso   1.00
H813   H     0.61795   0.86544   0.93215   0.00000  Uiso   1.00
H814   H     0.53031   0.77964   0.68042   0.00000  Uiso   1.00
H815   H     0.96969   0.88703   0.98624   0.00000  Uiso   1.00
H816   H     0.74421   0.98682   0.76204   0.00000  Uiso   1.00
H817   H     0.75579   0.67985   0.90463   0.00000  Uiso   1.00
H818   H     0.71498   0.79255   0.98273   0.00000  Uiso   1.00
N819   N     0.73744   0.81881   0.67951   0.00000  Uiso   1.00
N820   N     0.76255   0.84786   0.98716   0.00000  Uiso   1.00
O821   O     0.75325   0.76204   0.87326   0.00000  Uiso   1.00
O822   O     0.74674   0.90462   0.79341   0.00000  Uiso   1.00
O823   O     0.74480   0.75226   0.76945   0.00000  Uiso   1.00
O824   O     0.75520   0.91441   0.89721   0.00000  Uiso   1.00
O825   O     0.68935   0.83821   0.88524   0.00000  Uiso   1.00
O826   O     0.81064   0.82845   0.78143   0.00000  Uiso   1.00
O827   O     0.68090   0.82843   0.78143   0.00000  Uiso   1.00
O828   O     0.81910   0.83824   0.88523   0.00000  Uiso   1.00
loop_
_geom_bond_atom_site_label_1
_geom_bond_atom_site_label_2
_geom_bond_distance
_geom_bond_site_symmetry_2
_ccdc_geom_bond_type
C1     C18     1.426   .     S
C1     O41     1.283   .     A
C1     O39     1.292   .     A
C2     C4      1.402   .     A
C2     H29     1.085   .     S
C2     C13     1.390   .     A
C3     C22     1.402   .     A
C3     C21     1.456   .     S
C3     C5      1.400   .     A
C4     C6      1.400   .     A
C4     C20     1.456   .     S
C5     H30     1.084   .     S
C5     C7      1.395   .     A
C6     H31     1.084   .     S
C6     C8      1.395   .     A
C7     C9      1.415   .     A
C7     C14     1.404   .     A
C8     C10     1.415   .     A
C8     C15     1.404   .     A
C9     C11     1.410   .     A
C9     C56     1.401   .     S
C10    C13     1.410   .     A
C10    C55     1.401   1_455 S
C11    C22     1.390   .     A
C11    C17     1.401   .     A
C12    O40     1.292   .     A
C12    C19     1.426   .     S
C12    O42     1.283   .     A
C13    C16     1.401   .     A
C14    F25     1.358   .     S
C14    C62     1.393   .     S
C15    F26     1.358   .     S
C15    C63     1.393   1_455 S
C16    H32     1.084   .     S
C16    C60     1.393   1_455 S
C17    H33     1.084   .     S
C17    C61     1.393   .     S
C18    C203    1.326   1_545 S
C18    H218    1.088   1_545 S
C19    C110    1.326   .     S
C19    H127    1.088   .     S
C20    O45     1.292   .     A
C20    O43     1.298   .     A
C21    O44     1.298   .     A
C21    O46     1.292   .     A
C22    H27     1.085   .     S
Cu23   Cu24    2.686   .     S
Cu23   O46     1.958   .     S
Cu23   O42     1.950   .     S
Cu23   O39     1.956   .     S
Cu23   N38     2.018   .     S
Cu23   O43     1.968   .     S
Cu24   O41     1.950   .     S
Cu24   O45     1.958   .     S
Cu24   O40     1.956   .     S
Cu24   N37     2.018   .     S
Cu24   O44     1.968   .     S
H28    N590    1.029   1_554 S
H34    C110    1.088   .     S
H35    C203    1.088   1_545 S
H36    N313    1.029   .     S
N37    H588    1.029   1_554 S
N37    N590    1.298   1_554 S
N38    N313    1.298   .     S
N38    H304    1.029   .     S
C47    C64     1.426   .     S
C47    O87     1.283   .     A
C47    O85     1.292   .     A
C48    C50     1.402   .     A
C48    H75     1.085   .     S
C48    C59     1.390   .     A
C49    C68     1.402   .     A
C49    C67     1.456   .     S
C49    C51     1.400   .     A
C50    C52     1.400   .     A
C50    C66     1.456   .     S
C51    H76     1.084   .     S
C51    C53     1.395   .     A
C52    H77     1.084   .     S
C52    C54     1.395   .     A
C53    C55     1.415   .     A
C53    C60     1.404   .     A
C54    C56     1.415   .     A
C54    C61     1.404   .     A
C55    C57     1.410   .     A
C55    C10     1.401   1_655 S
C56    C59     1.410   .     A
C57    C68     1.390   .     A
C57    C63     1.401   .     A
C58    O86     1.292   .     A
C58    C65     1.426   .     S
C58    O88     1.283   .     A
C59    C62     1.401   .     A
C60    F71     1.358   .     S
C60    C16     1.393   1_655 S
C61    F72     1.358   .     S
C62    H78     1.084   .     S
C63    H79     1.084   .     S
C63    C15     1.393   1_655 S
C64    C249    1.326   1_545 S
C64    H264    1.088   1_545 S
C65    C156    1.326   .     S
C65    H173    1.088   .     S
C66    O91     1.292   .     A
C66    O89     1.298   .     A
C67    O90     1.298   .     A
C67    O92     1.292   .     A
C68    H73     1.085   .     S
Cu69   Cu70    2.686   .     S
Cu69   O92     1.958   .     S
Cu69   O88     1.950   .     S
Cu69   O85     1.956   .     S
Cu69   N84     2.018   .     S
Cu69   O89     1.968   .     S
Cu70   O87     1.950   .     S
Cu70   O91     1.958   .     S
Cu70   O86     1.956   .     S
Cu70   N83     2.018   .     S
Cu70   O90     1.968   .     S
H74    N636    1.029   1_554 S
H80    C156    1.088   .     S
H81    C249    1.088   1_545 S
H82    N359    1.029   .     S
N83    H634    1.029   1_554 S
N83    N636    1.298   1_554 S
N84    N359    1.298   .     S
N84    H350    1.029   .     S
C93    C110    1.426   .     S
C93    O133    1.283   .     A
C93    O131    1.292   .     A
C94    C96     1.402   .     A
C94    H121    1.085   .     S
C94    C105    1.390   .     A
C95    C114    1.402   .     A
C95    C113    1.456   .     S
C95    C97     1.400   .     A
C96    C98     1.400   .     A
C96    C112    1.456   .     S
C97    H122    1.084   .     S
C97    C99     1.395   .     A
C98    H123    1.084   .     S
C98    C100    1.395   .     A
C99    C101    1.415   .     A
C99    C106    1.404   .     A
C100   C102    1.415   .     A
C100   C107    1.404   .     A
C101   C103    1.410   .     A
C101   C148    1.401   .     S
C102   C105    1.410   .     A
C102   C147    1.401   1_455 S
C103   C114    1.390   .     A
C103   C109    1.401   .     A
C104   O132    1.292   .     A
C104   C111    1.426   .     S
C104   O134    1.283   .     A
C105   C108    1.401   .     A
C106   F117    1.358   .     S
C106   C154    1.393   .     S
C107   F118    1.358   .     S
C107   C155    1.393   1_455 S
C108   H124    1.084   .     S
C108   C152    1.393   1_455 S
C109   H125    1.084   .     S
C109   C153    1.393   .     S
C111   C202    1.326   .     S
C111   H219    1.088   .     S
C112   O137    1.292   .     A
C112   O135    1.298   .     A
C113   O136    1.298   .     A
C113   O138    1.292   .     A
C114   H119    1.085   .     S
Cu115  Cu116   2.686   .     S
Cu115  O138    1.958   .     S
Cu115  O134    1.950   .     S
Cu115  O131    1.956   .     S
Cu115  N130    2.018   .     S
Cu115  O135    1.968   .     S
Cu116  O133    1.950   .     S
Cu116  O137    1.958   .     S
Cu116  O132    1.956   .     S
Cu116  N129    2.018   .     S
Cu116  O136    1.968   .     S
H120   N682    1.029   1_554 S
H126   C202    1.088   .     S
H128   N405    1.029   .     S
N129   H680    1.029   1_554 S
N129   N682    1.298   1_554 S
N130   N405    1.298   .     S
N130   H396    1.029   .     S
C139   C156    1.426   .     S
C139   O179    1.283   .     A
C139   O177    1.292   .     A
C140   C142    1.402   .     A
C140   H167    1.085   .     S
C140   C151    1.390   .     A
C141   C160    1.402   .     A
C141   C159    1.456   .     S
C141   C143    1.400   .     A
C142   C144    1.400   .     A
C142   C158    1.456   .     S
C143   H168    1.084   .     S
C143   C145    1.395   .     A
C144   H169    1.084   .     S
C144   C146    1.395   .     A
C145   C147    1.415   .     A
C145   C152    1.404   .     A
C146   C148    1.415   .     A
C146   C153    1.404   .     A
C147   C149    1.410   .     A
C147   C102    1.401   1_655 S
C148   C151    1.410   .     A
C149   C160    1.390   .     A
C149   C155    1.401   .     A
C150   O178    1.292   .     A
C150   C157    1.426   .     S
C150   O180    1.283   .     A
C151   C154    1.401   .     A
C152   F163    1.358   .     S
C152   C108    1.393   1_655 S
C153   F164    1.358   .     S
C154   H170    1.084   .     S
C155   H171    1.084   .     S
C155   C107    1.393   1_655 S
C157   C248    1.326   .     S
C157   H265    1.088   .     S
C158   O183    1.292   .     A
C158   O181    1.298   .     A
C159   O182    1.298   .     A
C159   O184    1.292   .     A
C160   H165    1.085   .     S
Cu161  Cu162   2.686   .     S
Cu161  O184    1.958   .     S
Cu161  O180    1.950   .     S
Cu161  O177    1.956   .     S
Cu161  N176    2.018   .     S
Cu161  O181    1.968   .     S
Cu162  O179    1.950   .     S
Cu162  O183    1.958   .     S
Cu162  O178    1.956   .     S
Cu162  N175    2.018   .     S
Cu162  O182    1.968   .     S
H166   N728    1.029   1_554 S
H172   C248    1.088   .     S
H174   N451    1.029   .     S
N175   H726    1.029   1_554 S
N175   N728    1.298   1_554 S
N176   N451    1.298   .     S
N176   H442    1.029   .     S
C185   C202    1.426   .     S
C185   O225    1.283   .     A
C185   O223    1.292   .     A
C186   C188    1.402   .     A
C186   H213    1.085   .     S
C186   C197    1.390   .     A
C187   C206    1.402   .     A
C187   C205    1.456   .     S
C187   C189    1.400   .     A
C188   C190    1.400   .     A
C188   C204    1.456   .     S
C189   H214    1.084   .     S
C189   C191    1.395   .     A
C190   H215    1.084   .     S
C190   C192    1.395   .     A
C191   C193    1.415   .     A
C191   C198    1.404   .     A
C192   C194    1.415   .     A
C192   C199    1.404   .     A
C193   C195    1.410   .     A
C193   C240    1.401   .     S
C194   C197    1.410   .     A
C194   C239    1.401   1_455 S
C195   C206    1.390   .     A
C195   C201    1.401   .     A
C196   O224    1.292   .     A
C196   C203    1.426   .     S
C196   O226    1.283   .     A
C197   C200    1.401   .     A
C198   F209    1.358   .     S
C198   C246    1.393   .     S
C199   F210    1.358   .     S
C199   C247    1.393   1_455 S
C200   H216    1.084   .     S
C200   C244    1.393   1_455 S
C201   H217    1.084   .     S
C201   C245    1.393   .     S
C203   C18     1.326   1_565 S
C203   H35     1.088   1_565 S
C204   O229    1.292   .     A
C204   O227    1.298   .     A
C205   O228    1.298   .     A
C205   O230    1.292   .     A
C206   H211    1.085   .     S
Cu207  Cu208   2.686   .     S
Cu207  O230    1.958   .     S
Cu207  O226    1.950   .     S
Cu207  O223    1.956   .     S
Cu207  N222    2.018   .     S
Cu207  O227    1.968   .     S
Cu208  O225    1.950   .     S
Cu208  O229    1.958   .     S
Cu208  O224    1.956   .     S
Cu208  N221    2.018   .     S
Cu208  O228    1.968   .     S
H212   N774    1.029   1_554 S
H218   C18     1.088   1_565 S
H220   N497    1.029   .     S
N221   H772    1.029   1_554 S
N221   N774    1.298   1_554 S
N222   N497    1.298   .     S
N222   H488    1.029   .     S
C231   C248    1.426   .     S
C231   O271    1.283   .     A
C231   O269    1.292   .     A
C232   C234    1.402   .     A
C232   H259    1.085   .     S
C232   C243    1.390   .     A
C233   C252    1.402   .     A
C233   C251    1.456   .     S
C233   C235    1.400   .     A
C234   C236    1.400   .     A
C234   C250    1.456   .     S
C235   H260    1.084   .     S
C235   C237    1.395   .     A
C236   H261    1.084   .     S
C236   C238    1.395   .     A
C237   C239    1.415   .     A
C237   C244    1.404   .     A
C238   C240    1.415   .     A
C238   C245    1.404   .     A
C239   C241    1.410   .     A
C239   C194    1.401   1_655 S
C240   C243    1.410   .     A
C241   C252    1.390   .     A
C241   C247    1.401   .     A
C242   O270    1.292   .     A
C242   C249    1.426   .     S
C242   O272    1.283   .     A
C243   C246    1.401   .     A
C244   F255    1.358   .     S
C244   C200    1.393   1_655 S
C245   F256    1.358   .     S
C246   H262    1.084   .     S
C247   H263    1.084   .     S
C247   C199    1.393   1_655 S
C249   C64     1.326   1_565 S
C249   H81     1.088   1_565 S
C250   O275    1.292   .     A
C250   O273    1.298   .     A
C251   O274    1.298   .     A
C251   O276    1.292   .     A
C252   H257    1.085   .     S
Cu253  Cu254   2.686   .     S
Cu253  O276    1.958   .     S
Cu253  O272    1.950   .     S
Cu253  O269    1.956   .     S
Cu253  N268    2.018   .     S
Cu253  O273    1.968   .     S
Cu254  O271    1.950   .     S
Cu254  O275    1.958   .     S
Cu254  O270    1.956   .     S
Cu254  N267    2.018   .     S
Cu254  O274    1.968   .     S
H258   N820    1.029   1_554 S
H264   C64     1.088   1_565 S
H266   N543    1.029   .     S
N267   H818    1.029   1_554 S
N267   N820    1.298   1_554 S
N268   N543    1.298   .     S
N268   H534    1.029   .     S
C277   C294    1.426   .     S
C277   O317    1.283   .     A
C277   O315    1.292   .     A
C278   C280    1.402   .     A
C278   H305    1.085   .     S
C278   C289    1.390   .     A
C279   C298    1.402   .     A
C279   C297    1.456   .     S
C279   C281    1.400   .     A
C280   C282    1.400   .     A
C280   C296    1.456   .     S
C281   H306    1.084   .     S
C281   C283    1.395   .     A
C282   H307    1.084   .     S
C282   C284    1.395   .     A
C283   C285    1.415   .     A
C283   C290    1.404   .     A
C284   C286    1.415   .     A
C284   C291    1.404   .     A
C285   C287    1.410   .     A
C285   C332    1.401   .     S
C286   C289    1.410   .     A
C286   C331    1.401   1_455 S
C287   C298    1.390   .     A
C287   C293    1.401   .     A
C288   O316    1.292   .     A
C288   C295    1.426   .     S
C288   O318    1.283   .     A
C289   C292    1.401   .     A
C290   F301    1.358   .     S
C290   C338    1.393   .     S
C291   F302    1.358   .     S
C291   C339    1.393   1_455 S
C292   H308    1.084   .     S
C292   C336    1.393   1_455 S
C293   H309    1.084   .     S
C293   C337    1.393   .     S
C294   C479    1.326   1_545 S
C294   H494    1.088   1_545 S
C295   C386    1.326   .     S
C295   H403    1.088   .     S
C296   O321    1.292   .     A
C296   O319    1.298   .     A
C297   O320    1.298   .     A
C297   O322    1.292   .     A
C298   H303    1.085   .     S
Cu299  Cu300   2.686   .     S
Cu299  O322    1.958   .     S
Cu299  O318    1.950   .     S
Cu299  O315    1.956   .     S
Cu299  N314    2.018   .     S
Cu299  O319    1.968   .     S
Cu300  O317    1.950   .     S
Cu300  O321    1.958   .     S
Cu300  O316    1.956   .     S
Cu300  N313    2.018   .     S
Cu300  O320    1.968   .     S
H310   C386    1.088   .     S
H311   C479    1.088   1_545 S
H312   N589    1.029   .     S
N314   N589    1.298   .     S
N314   H580    1.029   .     S
C323   C340    1.426   .     S
C323   O363    1.283   .     A
C323   O361    1.292   .     A
C324   C326    1.402   .     A
C324   H351    1.085   .     S
C324   C335    1.390   .     A
C325   C344    1.402   .     A
C325   C343    1.456   .     S
C325   C327    1.400   .     A
C326   C328    1.400   .     A
C326   C342    1.456   .     S
C327   H352    1.084   .     S
C327   C329    1.395   .     A
C328   H353    1.084   .     S
C328   C330    1.395   .     A
C329   C331    1.415   .     A
C329   C336    1.404   .     A
C330   C332    1.415   .     A
C330   C337    1.404   .     A
C331   C333    1.410   .     A
C331   C286    1.401   1_655 S
C332   C335    1.410   .     A
C333   C344    1.390   .     A
C333   C339    1.401   .     A
C334   O362    1.292   .     A
C334   C341    1.426   .     S
C334   O364    1.283   .     A
C335   C338    1.401   .     A
C336   F347    1.358   .     S
C336   C292    1.393   1_655 S
C337   F348    1.358   .     S
C338   H354    1.084   .     S
C339   H355    1.084   .     S
C339   C291    1.393   1_655 S
C340   C525    1.326   1_545 S
C340   H540    1.088   1_545 S
C341   C432    1.326   .     S
C341   H449    1.088   .     S
C342   O367    1.292   .     A
C342   O365    1.298   .     A
C343   O366    1.298   .     A
C343   O368    1.292   .     A
C344   H349    1.085   .     S
Cu345  Cu346   2.686   .     S
Cu345  O368    1.958   .     S
Cu345  O364    1.950   .     S
Cu345  O361    1.956   .     S
Cu345  N360    2.018   .     S
Cu345  O365    1.968   .     S
Cu346  O363    1.950   .     S
Cu346  O367    1.958   .     S
Cu346  O362    1.956   .     S
Cu346  N359    2.018   .     S
Cu346  O366    1.968   .     S
H356   C432    1.088   .     S
H357   C525    1.088   1_545 S
H358   N635    1.029   .     S
N360   N635    1.298   .     S
N360   H626    1.029   .     S
C369   C386    1.426   .     S
C369   O409    1.283   .     A
C369   O407    1.292   .     A
C370   C372    1.402   .     A
C370   H397    1.085   .     S
C370   C381    1.390   .     A
C371   C390    1.402   .     A
C371   C389    1.456   .     S
C371   C373    1.400   .     A
C372   C374    1.400   .     A
C372   C388    1.456   .     S
C373   H398    1.084   .     S
C373   C375    1.395   .     A
C374   H399    1.084   .     S
C374   C376    1.395   .     A
C375   C377    1.415   .     A
C375   C382    1.404   .     A
C376   C378    1.415   .     A
C376   C383    1.404   .     A
C377   C379    1.410   .     A
C377   C424    1.401   .     S
C378   C381    1.410   .     A
C378   C423    1.401   1_455 S
C379   C390    1.390   .     A
C379   C385    1.401   .     A
C380   O408    1.292   .     A
C380   C387    1.426   .     S
C380   O410    1.283   .     A
C381   C384    1.401   .     A
C382   F393    1.358   .     S
C382   C430    1.393   .     S
C383   F394    1.358   .     S
C383   C431    1.393   1_455 S
C384   H400    1.084   .     S
C384   C428    1.393   1_455 S
C385   H401    1.084   .     S
C385   C429    1.393   .     S
C387   C478    1.326   .     S
C387   H495    1.088   .     S
C388   O413    1.292   .     A
C388   O411    1.298   .     A
C389   O412    1.298   .     A
C389   O414    1.292   .     A
C390   H395    1.085   .     S
Cu391  Cu392   2.686   .     S
Cu391  O414    1.958   .     S
Cu391  O410    1.950   .     S
Cu391  O407    1.956   .     S
Cu391  N406    2.018   .     S
Cu391  O411    1.968   .     S
Cu392  O409    1.950   .     S
Cu392  O413    1.958   .     S
Cu392  O408    1.956   .     S
Cu392  N405    2.018   .     S
Cu392  O412    1.968   .     S
H402   C478    1.088   .     S
H404   N681    1.029   .     S
N406   N681    1.298   .     S
N406   H672    1.029   .     S
C415   C432    1.426   .     S
C415   O455    1.283   .     A
C415   O453    1.292   .     A
C416   C418    1.402   .     A
C416   H443    1.085   .     S
C416   C427    1.390   .     A
C417   C436    1.402   .     A
C417   C435    1.456   .     S
C417   C419    1.400   .     A
C418   C420    1.400   .     A
C418   C434    1.456   .     S
C419   H444    1.084   .     S
C419   C421    1.395   .     A
C420   H445    1.084   .     S
C420   C422    1.395   .     A
C421   C423    1.415   .     A
C421   C428    1.404   .     A
C422   C424    1.415   .     A
C422   C429    1.404   .     A
C423   C425    1.410   .     A
C423   C378    1.401   1_655 S
C424   C427    1.410   .     A
C425   C436    1.390   .     A
C425   C431    1.401   .     A
C426   O454    1.292   .     A
C426   C433    1.426   .     S
C426   O456    1.283   .     A
C427   C430    1.401   .     A
C428   F439    1.358   .     S
C428   C384    1.393   1_655 S
C429   F440    1.358   .     S
C430   H446    1.084   .     S
C431   H447    1.084   .     S
C431   C383    1.393   1_655 S
C433   C524    1.326   .     S
C433   H541    1.088   .     S
C434   O459    1.292   .     A
C434   O457    1.298   .     A
C435   O458    1.298   .     A
C435   O460    1.292   .     A
C436   H441    1.085   .     S
Cu437  Cu438   2.686   .     S
Cu437  O460    1.958   .     S
Cu437  O456    1.950   .     S
Cu437  O453    1.956   .     S
Cu437  N452    2.018   .     S
Cu437  O457    1.968   .     S
Cu438  O455    1.950   .     S
Cu438  O459    1.958   .     S
Cu438  O454    1.956   .     S
Cu438  N451    2.018   .     S
Cu438  O458    1.968   .     S
H448   C524    1.088   .     S
H450   N727    1.029   .     S
N452   N727    1.298   .     S
N452   H718    1.029   .     S
C461   C478    1.426   .     S
C461   O501    1.283   .     A
C461   O499    1.292   .     A
C462   C464    1.402   .     A
C462   H489    1.085   .     S
C462   C473    1.390   .     A
C463   C482    1.402   .     A
C463   C481    1.456   .     S
C463   C465    1.400   .     A
C464   C466    1.400   .     A
C464   C480    1.456   .     S
C465   H490    1.084   .     S
C465   C467    1.395   .     A
C466   H491    1.084   .     S
C466   C468    1.395   .     A
C467   C469    1.415   .     A
C467   C474    1.404   .     A
C468   C470    1.415   .     A
C468   C475    1.404   .     A
C469   C471    1.410   .     A
C469   C516    1.401   .     S
C470   C473    1.410   .     A
C470   C515    1.401   1_455 S
C471   C482    1.390   .     A
C471   C477    1.401   .     A
C472   O500    1.292   .     A
C472   C479    1.426   .     S
C472   O502    1.283   .     A
C473   C476    1.401   .     A
C474   F485    1.358   .     S
C474   C522    1.393   .     S
C475   F486    1.358   .     S
C475   C523    1.393   1_455 S
C476   H492    1.084   .     S
C476   C520    1.393   1_455 S
C477   H493    1.084   .     S
C477   C521    1.393   .     S
C479   C294    1.326   1_565 S
C479   H311    1.088   1_565 S
C480   O505    1.292   .     A
C480   O503    1.298   .     A
C481   O504    1.298   .     A
C481   O506    1.292   .     A
C482   H487    1.085   .     S
Cu483  Cu484   2.686   .     S
Cu483  O506    1.958   .     S
Cu483  O502    1.950   .     S
Cu483  O499    1.956   .     S
Cu483  N498    2.018   .     S
Cu483  O503    1.968   .     S
Cu484  O501    1.950   .     S
Cu484  O505    1.958   .     S
Cu484  O500    1.956   .     S
Cu484  N497    2.018   .     S
Cu484  O504    1.968   .     S
H494   C294    1.088   1_565 S
H496   N773    1.029   .     S
N498   N773    1.298   .     S
N498   H764    1.029   .     S
C507   C524    1.426   .     S
C507   O547    1.283   .     A
C507   O545    1.292   .     A
C508   C510    1.402   .     A
C508   H535    1.085   .     S
C508   C519    1.390   .     A
C509   C528    1.402   .     A
C509   C527    1.456   .     S
C509   C511    1.400   .     A
C510   C512    1.400   .     A
C510   C526    1.456   .     S
C511   H536    1.084   .     S
C511   C513    1.395   .     A
C512   H537    1.084   .     S
C512   C514    1.395   .     A
C513   C515    1.415   .     A
C513   C520    1.404   .     A
C514   C516    1.415   .     A
C514   C521    1.404   .     A
C515   C517    1.410   .     A
C515   C470    1.401   1_655 S
C516   C519    1.410   .     A
C517   C528    1.390   .     A
C517   C523    1.401   .     A
C518   O546    1.292   .     A
C518   C525    1.426   .     S
C518   O548    1.283   .     A
C519   C522    1.401   .     A
C520   F531    1.358   .     S
C520   C476    1.393   1_655 S
C521   F532    1.358   .     S
C522   H538    1.084   .     S
C523   H539    1.084   .     S
C523   C475    1.393   1_655 S
C525   C340    1.326   1_565 S
C525   H357    1.088   1_565 S
C526   O551    1.292   .     A
C526   O549    1.298   .     A
C527   O550    1.298   .     A
C527   O552    1.292   .     A
C528   H533    1.085   .     S
Cu529  Cu530   2.686   .     S
Cu529  O552    1.958   .     S
Cu529  O548    1.950   .     S
Cu529  O545    1.956   .     S
Cu529  N544    2.018   .     S
Cu529  O549    1.968   .     S
Cu530  O547    1.950   .     S
Cu530  O551    1.958   .     S
Cu530  O546    1.956   .     S
Cu530  N543    2.018   .     S
Cu530  O550    1.968   .     S
H540   C340    1.088   1_565 S
H542   N819    1.029   .     S
N544   N819    1.298   .     S
N544   H810    1.029   .     S
C553   C570    1.426   .     S
C553   O593    1.283   .     A
C553   O591    1.292   .     A
C554   C556    1.402   .     A
C554   H581    1.085   .     S
C554   C565    1.390   .     A
C555   C574    1.402   .     A
C555   C573    1.456   .     S
C555   C557    1.400   .     A
C556   C558    1.400   .     A
C556   C572    1.456   .     S
C557   H582    1.084   .     S
C557   C559    1.395   .     A
C558   H583    1.084   .     S
C558   C560    1.395   .     A
C559   C561    1.415   .     A
C559   C566    1.404   .     A
C560   C562    1.415   .     A
C560   C567    1.404   .     A
C561   C563    1.410   .     A
C561   C608    1.401   .     S
C562   C565    1.410   .     A
C562   C607    1.401   1_455 S
C563   C574    1.390   .     A
C563   C569    1.401   .     A
C564   O592    1.292   .     A
C564   C571    1.426   .     S
C564   O594    1.283   .     A
C565   C568    1.401   .     A
C566   F577    1.358   .     S
C566   C614    1.393   .     S
C567   F578    1.358   .     S
C567   C615    1.393   1_455 S
C568   H584    1.084   .     S
C568   C612    1.393   1_455 S
C569   H585    1.084   .     S
C569   C613    1.393   .     S
C570   C755    1.326   1_545 S
C570   H770    1.088   1_545 S
C571   C662    1.326   .     S
C571   H679    1.088   .     S
C572   O597    1.292   .     A
C572   O595    1.298   .     A
C573   O596    1.298   .     A
C573   O598    1.292   .     A
C574   H579    1.085   .     S
Cu575  Cu576   2.686   .     S
Cu575  O598    1.958   .     S
Cu575  O594    1.950   .     S
Cu575  O591    1.956   .     S
Cu575  N590    2.018   .     S
Cu575  O595    1.968   .     S
Cu576  O593    1.950   .     S
Cu576  O597    1.958   .     S
Cu576  O592    1.956   .     S
Cu576  N589    2.018   .     S
Cu576  O596    1.968   .     S
H586   C662    1.088   .     S
H587   C755    1.088   1_545 S
H588   N37     1.029   1_556 S
N590   N37     1.298   1_556 S
N590   H28     1.029   1_556 S
C599   C616    1.426   .     S
C599   O639    1.283   .     A
C599   O637    1.292   .     A
C600   C602    1.402   .     A
C600   H627    1.085   .     S
C600   C611    1.390   .     A
C601   C620    1.402   .     A
C601   C619    1.456   .     S
C601   C603    1.400   .     A
C602   C604    1.400   .     A
C602   C618    1.456   .     S
C603   H628    1.084   .     S
C603   C605    1.395   .     A
C604   H629    1.084   .     S
C604   C606    1.395   .     A
C605   C607    1.415   .     A
C605   C612    1.404   .     A
C606   C608    1.415   .     A
C606   C613    1.404   .     A
C607   C609    1.410   .     A
C607   C562    1.401   1_655 S
C608   C611    1.410   .     A
C609   C620    1.390   .     A
C609   C615    1.401   .     A
C610   O638    1.292   .     A
C610   C617    1.426   .     S
C610   O640    1.283   .     A
C611   C614    1.401   .     A
C612   F623    1.358   .     S
C612   C568    1.393   1_655 S
C613   F624    1.358   .     S
C614   H630    1.084   .     S
C615   H631    1.084   .     S
C615   C567    1.393   1_655 S
C616   C801    1.326   1_545 S
C616   H816    1.088   1_545 S
C617   C708    1.326   .     S
C617   H725    1.088   .     S
C618   O643    1.292   .     A
C618   O641    1.298   .     A
C619   O642    1.298   .     A
C619   O644    1.292   .     A
C620   H625    1.085   .     S
Cu621  Cu622   2.686   .     S
Cu621  O644    1.958   .     S
Cu621  O640    1.950   .     S
Cu621  O637    1.956   .     S
Cu621  N636    2.018   .     S
Cu621  O641    1.968   .     S
Cu622  O639    1.950   .     S
Cu622  O643    1.958   .     S
Cu622  O638    1.956   .     S
Cu622  N635    2.018   .     S
Cu622  O642    1.968   .     S
H632   C708    1.088   .     S
H633   C801    1.088   1_545 S
H634   N83     1.029   1_556 S
N636   N83     1.298   1_556 S
N636   H74     1.029   1_556 S
C645   C662    1.426   .     S
C645   O685    1.283   .     A
C645   O683    1.292   .     A
C646   C648    1.402   .     A
C646   H673    1.085   .     S
C646   C657    1.390   .     A
C647   C666    1.402   .     A
C647   C665    1.456   .     S
C647   C649    1.400   .     A
C648   C650    1.400   .     A
C648   C664    1.456   .     S
C649   H674    1.084   .     S
C649   C651    1.395   .     A
C650   H675    1.084   .     S
C650   C652    1.395   .     A
C651   C653    1.415   .     A
C651   C658    1.404   .     A
C652   C654    1.415   .     A
C652   C659    1.404   .     A
C653   C655    1.410   .     A
C653   C700    1.401   .     S
C654   C657    1.410   .     A
C654   C699    1.401   1_455 S
C655   C666    1.390   .     A
C655   C661    1.401   .     A
C656   O684    1.292   .     A
C656   C663    1.426   .     S
C656   O686    1.283   .     A
C657   C660    1.401   .     A
C658   F669    1.358   .     S
C658   C706    1.393   .     S
C659   F670    1.358   .     S
C659   C707    1.393   1_455 S
C660   H676    1.084   .     S
C660   C704    1.393   1_455 S
C661   H677    1.084   .     S
C661   C705    1.393   .     S
C663   C754    1.326   .     S
C663   H771    1.088   .     S
C664   O689    1.292   .     A
C664   O687    1.298   .     A
C665   O688    1.298   .     A
C665   O690    1.292   .     A
C666   H671    1.085   .     S
Cu667  Cu668   2.686   .     S
Cu667  O690    1.958   .     S
Cu667  O686    1.950   .     S
Cu667  O683    1.956   .     S
Cu667  N682    2.018   .     S
Cu667  O687    1.968   .     S
Cu668  O685    1.950   .     S
Cu668  O689    1.958   .     S
Cu668  O684    1.956   .     S
Cu668  N681    2.018   .     S
Cu668  O688    1.968   .     S
H678   C754    1.088   .     S
H680   N129    1.029   1_556 S
N682   N129    1.298   1_556 S
N682   H120    1.029   1_556 S
C691   C708    1.426   .     S
C691   O731    1.283   .     A
C691   O729    1.292   .     A
C692   C694    1.402   .     A
C692   H719    1.085   .     S
C692   C703    1.390   .     A
C693   C712    1.402   .     A
C693   C711    1.456   .     S
C693   C695    1.400   .     A
C694   C696    1.400   .     A
C694   C710    1.456   .     S
C695   H720    1.084   .     S
C695   C697    1.395   .     A
C696   H721    1.084   .     S
C696   C698    1.395   .     A
C697   C699    1.415   .     A
C697   C704    1.404   .     A
C698   C700    1.415   .     A
C698   C705    1.404   .     A
C699   C701    1.410   .     A
C699   C654    1.401   1_655 S
C700   C703    1.410   .     A
C701   C712    1.390   .     A
C701   C707    1.401   .     A
C702   O730    1.292   .     A
C702   C709    1.426   .     S
C702   O732    1.283   .     A
C703   C706    1.401   .     A
C704   F715    1.358   .     S
C704   C660    1.393   1_655 S
C705   F716    1.358   .     S
C706   H722    1.084   .     S
C707   H723    1.084   .     S
C707   C659    1.393   1_655 S
C709   C800    1.326   .     S
C709   H817    1.088   .     S
C710   O735    1.292   .     A
C710   O733    1.298   .     A
C711   O734    1.298   .     A
C711   O736    1.292   .     A
C712   H717    1.085   .     S
Cu713  Cu714   2.686   .     S
Cu713  O736    1.958   .     S
Cu713  O732    1.950   .     S
Cu713  O729    1.956   .     S
Cu713  N728    2.018   .     S
Cu713  O733    1.968   .     S
Cu714  O731    1.950   .     S
Cu714  O735    1.958   .     S
Cu714  O730    1.956   .     S
Cu714  N727    2.018   .     S
Cu714  O734    1.968   .     S
H724   C800    1.088   .     S
H726   N175    1.029   1_556 S
N728   N175    1.298   1_556 S
N728   H166    1.029   1_556 S
C737   C754    1.426   .     S
C737   O777    1.283   .     A
C737   O775    1.292   .     A
C738   C740    1.402   .     A
C738   H765    1.085   .     S
C738   C749    1.390   .     A
C739   C758    1.402   .     A
C739   C757    1.456   .     S
C739   C741    1.400   .     A
C740   C742    1.400   .     A
C740   C756    1.456   .     S
C741   H766    1.084   .     S
C741   C743    1.395   .     A
C742   H767    1.084   .     S
C742   C744    1.395   .     A
C743   C745    1.415   .     A
C743   C750    1.404   .     A
C744   C746    1.415   .     A
C744   C751    1.404   .     A
C745   C747    1.410   .     A
C745   C792    1.401   .     S
C746   C749    1.410   .     A
C746   C791    1.401   1_455 S
C747   C758    1.390   .     A
C747   C753    1.401   .     A
C748   O776    1.292   .     A
C748   C755    1.426   .     S
C748   O778    1.283   .     A
C749   C752    1.401   .     A
C750   F761    1.358   .     S
C750   C798    1.393   .     S
C751   F762    1.358   .     S
C751   C799    1.393   1_455 S
C752   H768    1.084   .     S
C752   C796    1.393   1_455 S
C753   H769    1.084   .     S
C753   C797    1.393   .     S
C755   C570    1.326   1_565 S
C755   H587    1.088   1_565 S
C756   O781    1.292   .     A
C756   O779    1.298   .     A
C757   O780    1.298   .     A
C757   O782    1.292   .     A
C758   H763    1.085   .     S
Cu759  Cu760   2.686   .     S
Cu759  O782    1.958   .     S
Cu759  O778    1.950   .     S
Cu759  O775    1.956   .     S
Cu759  N774    2.018   .     S
Cu759  O779    1.968   .     S
Cu760  O777    1.950   .     S
Cu760  O781    1.958   .     S
Cu760  O776    1.956   .     S
Cu760  N773    2.018   .     S
Cu760  O780    1.968   .     S
H770   C570    1.088   1_565 S
H772   N221    1.029   1_556 S
N774   N221    1.298   1_556 S
N774   H212    1.029   1_556 S
C783   C800    1.426   .     S
C783   O823    1.283   .     A
C783   O821    1.292   .     A
C784   C786    1.402   .     A
C784   H811    1.085   .     S
C784   C795    1.390   .     A
C785   C804    1.402   .     A
C785   C803    1.456   .     S
C785   C787    1.400   .     A
C786   C788    1.400   .     A
C786   C802    1.456   .     S
C787   H812    1.084   .     S
C787   C789    1.395   .     A
C788   H813    1.084   .     S
C788   C790    1.395   .     A
C789   C791    1.415   .     A
C789   C796    1.404   .     A
C790   C792    1.415   .     A
C790   C797    1.404   .     A
C791   C793    1.410   .     A
C791   C746    1.401   1_655 S
C792   C795    1.410   .     A
C793   C804    1.390   .     A
C793   C799    1.401   .     A
C794   O822    1.292   .     A
C794   C801    1.426   .     S
C794   O824    1.283   .     A
C795   C798    1.401   .     A
C796   F807    1.358   .     S
C796   C752    1.393   1_655 S
C797   F808    1.358   .     S
C798   H814    1.084   .     S
C799   H815    1.084   .     S
C799   C751    1.393   1_655 S
C801   C616    1.326   1_565 S
C801   H633    1.088   1_565 S
C802   O827    1.292   .     A
C802   O825    1.298   .     A
C803   O826    1.298   .     A
C803   O828    1.292   .     A
C804   H809    1.085   .     S
Cu805  Cu806   2.686   .     S
Cu805  O828    1.958   .     S
Cu805  O824    1.950   .     S
Cu805  O821    1.956   .     S
Cu805  N820    2.018   .     S
Cu805  O825    1.968   .     S
Cu806  O823    1.950   .     S
Cu806  O827    1.958   .     S
Cu806  O822    1.956   .     S
Cu806  N819    2.018   .     S
Cu806  O826    1.968   .     S
H816   C616    1.088   1_565 S
H818   N267    1.029   1_556 S
N820   N267    1.298   1_556 S
N820   H258    1.029   1_556 S
