data_str_m2_o1_o17_pcu_sym.76
_audit_creation_date              2020-01-03
_audit_creation_method            'Materials Studio'
_symmetry_space_group_name_H-M    'P1'
_symmetry_Int_Tables_number       1
_symmetry_cell_setting            triclinic
loop_
_symmetry_equiv_pos_as_xyz
  x,y,z
_cell_length_a                    32.4952
_cell_length_b                    28.5544
_cell_length_c                    30.1441
_cell_angle_alpha                 90.3597
_cell_angle_beta                  90.1097
_cell_angle_gamma                 89.9611
loop_
_atom_site_label
_atom_site_type_symbol
_atom_site_fract_x
_atom_site_fract_y
_atom_site_fract_z
_atom_site_U_iso_or_equiv
_atom_site_adp_type
_atom_site_occupancy
C1     C     0.08735   0.16668   0.24994   0.00000  Uiso   1.00
C2     C     0.04274   0.16668   0.24992   0.00000  Uiso   1.00
C3     C     0.13934   0.02465   0.22446   0.00000  Uiso   1.00
C4     C     0.19399   0.30869   0.27554   0.00000  Uiso   1.00
C5     C     0.19398   0.02496   0.27557   0.00000  Uiso   1.00
C6     C     0.13936   0.30838   0.22443   0.00000  Uiso   1.00
C7     C     0.16544   0.16650   0.16444   0.00000  Uiso   1.00
C8     C     0.16789   0.16683   0.33556   0.00000  Uiso   1.00
C9     C     0.19600   0.19744   0.40731   0.00000  Uiso   1.00
C10    C     0.13733   0.13590   0.09269   0.00000  Uiso   1.00
C11    C     0.16933   0.16723   0.38384   0.00000  Uiso   1.00
C12    C     0.24598   0.16666   0.25006   0.00000  Uiso   1.00
C13    C     0.16400   0.16610   0.11616   0.00000  Uiso   1.00
C14    C     0.14344   0.13666   0.40614   0.00000  Uiso   1.00
C15    C     0.18989   0.19667   0.09386   0.00000  Uiso   1.00
C16    C     0.14257   0.13614   0.45211   0.00000  Uiso   1.00
C17    C     0.19076   0.19720   0.04789   0.00000  Uiso   1.00
C18    C     0.16763   0.16711   0.47663   0.00000  Uiso   1.00
C19    C     0.16570   0.16623   0.02337   0.00000  Uiso   1.00
C20    C     0.19459   0.19870   0.45443   0.00000  Uiso   1.00
C21    C     0.13874   0.13464   0.04557   0.00000  Uiso   1.00
C22    C     0.11661   0.10474   0.47350   0.00000  Uiso   1.00
C23    C     0.11449   0.10315   0.01986   0.00000  Uiso   1.00
C24    C     0.21673   0.22860   0.02650   0.00000  Uiso   1.00
C25    C     0.21884   0.23019   0.48014   0.00000  Uiso   1.00
C26    C     0.02131   0.12413   0.24854   0.00000  Uiso   1.00
C27    C     0.31202   0.20921   0.25146   0.00000  Uiso   1.00
C28    C     0.31207   0.12412   0.24865   0.00000  Uiso   1.00
C29    C     0.02126   0.20922   0.25135   0.00000  Uiso   1.00
C30    C     0.29059   0.16666   0.25008   0.00000  Uiso   1.00
Cl31   Cl    0.23302   0.22929   0.37645   0.00000  Uiso   1.00
Cl32   Cl    0.10031   0.10404   0.12355   0.00000  Uiso   1.00
Cu33   Cu    0.16667   0.21355   0.25000   0.00000  Uiso   1.00
Cu34   Cu    0.16667   0.11978   0.25000   0.00000  Uiso   1.00
H35    H     0.12347   0.11336   0.38735   0.00000  Uiso   1.00
H36    H     0.21592   0.29014   0.29595   0.00000  Uiso   1.00
H37    H     0.21584   0.04377   0.29608   0.00000  Uiso   1.00
H38    H     0.11749   0.28957   0.20392   0.00000  Uiso   1.00
H39    H     0.07523   0.05127   0.01704   0.00000  Uiso   1.00
H40    H     0.25810   0.28207   0.48295   0.00000  Uiso   1.00
H41    H     0.20987   0.21997   0.11265   0.00000  Uiso   1.00
H42    H     0.09793   0.08088   0.45385   0.00000  Uiso   1.00
H43    H     0.23540   0.25245   0.04615   0.00000  Uiso   1.00
H44    H     0.03735   0.09087   0.24734   0.00000  Uiso   1.00
H45    H     0.29598   0.24246   0.25265   0.00000  Uiso   1.00
H46    H     0.29608   0.09085   0.24754   0.00000  Uiso   1.00
H47    H     0.03725   0.24248   0.25246   0.00000  Uiso   1.00
H48    H     0.11741   0.04319   0.20405   0.00000  Uiso   1.00
N49    N     0.16667   0.28402   0.25000   0.00000  Uiso   1.00
N50    N     0.16667   0.04931   0.25000   0.00000  Uiso   1.00
O51    O     0.10655   0.20625   0.24999   0.00000  Uiso   1.00
O52    O     0.24367   0.26308   0.46008   0.00000  Uiso   1.00
O53    O     0.22679   0.12709   0.25000   0.00000  Uiso   1.00
O54    O     0.22679   0.20625   0.25000   0.00000  Uiso   1.00
O55    O     0.10655   0.12709   0.24999   0.00000  Uiso   1.00
O56    O     0.16666   0.20627   0.18513   0.00000  Uiso   1.00
O57    O     0.16668   0.12707   0.31487   0.00000  Uiso   1.00
O58    O     0.16668   0.20627   0.31487   0.00000  Uiso   1.00
O59    O     0.16666   0.12707   0.18513   0.00000  Uiso   1.00
O60    O     0.08966   0.07025   0.03992   0.00000  Uiso   1.00
C61    C     0.42069   0.16668   0.24994   0.00000  Uiso   1.00
C62    C     0.37607   0.16668   0.24992   0.00000  Uiso   1.00
C63    C     0.47268   0.02465   0.22446   0.00000  Uiso   1.00
C64    C     0.52732   0.30869   0.27554   0.00000  Uiso   1.00
C65    C     0.52731   0.02496   0.27557   0.00000  Uiso   1.00
C66    C     0.47269   0.30838   0.22443   0.00000  Uiso   1.00
C67    C     0.49877   0.16650   0.16444   0.00000  Uiso   1.00
C68    C     0.50123   0.16683   0.33556   0.00000  Uiso   1.00
C69    C     0.52933   0.19744   0.40731   0.00000  Uiso   1.00
C70    C     0.47067   0.13590   0.09269   0.00000  Uiso   1.00
C71    C     0.50267   0.16723   0.38384   0.00000  Uiso   1.00
C72    C     0.57931   0.16666   0.25006   0.00000  Uiso   1.00
C73    C     0.49733   0.16610   0.11616   0.00000  Uiso   1.00
C74    C     0.47677   0.13666   0.40614   0.00000  Uiso   1.00
C75    C     0.52323   0.19667   0.09386   0.00000  Uiso   1.00
C76    C     0.47590   0.13614   0.45211   0.00000  Uiso   1.00
C77    C     0.52410   0.19720   0.04789   0.00000  Uiso   1.00
C78    C     0.50097   0.16711   0.47663   0.00000  Uiso   1.00
C79    C     0.49903   0.16623   0.02337   0.00000  Uiso   1.00
C80    C     0.52793   0.19870   0.45443   0.00000  Uiso   1.00
C81    C     0.47207   0.13464   0.04557   0.00000  Uiso   1.00
C82    C     0.44994   0.10474   0.47350   0.00000  Uiso   1.00
C83    C     0.44782   0.10315   0.01986   0.00000  Uiso   1.00
C84    C     0.55006   0.22860   0.02650   0.00000  Uiso   1.00
C85    C     0.55218   0.23019   0.48014   0.00000  Uiso   1.00
C86    C     0.35465   0.12413   0.24854   0.00000  Uiso   1.00
C87    C     0.64535   0.20921   0.25146   0.00000  Uiso   1.00
C88    C     0.64541   0.12412   0.24865   0.00000  Uiso   1.00
C89    C     0.35459   0.20922   0.25135   0.00000  Uiso   1.00
C90    C     0.62393   0.16666   0.25008   0.00000  Uiso   1.00
Cl91   Cl    0.56636   0.22929   0.37645   0.00000  Uiso   1.00
Cl92   Cl    0.43364   0.10404   0.12355   0.00000  Uiso   1.00
Cu93   Cu    0.50000   0.21355   0.25000   0.00000  Uiso   1.00
Cu94   Cu    0.50000   0.11978   0.25000   0.00000  Uiso   1.00
H95    H     0.45680   0.11336   0.38735   0.00000  Uiso   1.00
H96    H     0.54925   0.29014   0.29595   0.00000  Uiso   1.00
H97    H     0.54917   0.04377   0.29608   0.00000  Uiso   1.00
H98    H     0.45083   0.28957   0.20392   0.00000  Uiso   1.00
H99    H     0.40856   0.05127   0.01704   0.00000  Uiso   1.00
H100   H     0.59143   0.28207   0.48295   0.00000  Uiso   1.00
H101   H     0.54320   0.21997   0.11265   0.00000  Uiso   1.00
H102   H     0.43126   0.08088   0.45385   0.00000  Uiso   1.00
H103   H     0.56874   0.25245   0.04615   0.00000  Uiso   1.00
H104   H     0.37068   0.09087   0.24734   0.00000  Uiso   1.00
H105   H     0.62932   0.24246   0.25265   0.00000  Uiso   1.00
H106   H     0.62941   0.09085   0.24754   0.00000  Uiso   1.00
H107   H     0.37059   0.24248   0.25246   0.00000  Uiso   1.00
H108   H     0.45075   0.04319   0.20405   0.00000  Uiso   1.00
N109   N     0.50000   0.28402   0.25000   0.00000  Uiso   1.00
N110   N     0.50000   0.04931   0.25000   0.00000  Uiso   1.00
O111   O     0.43988   0.20625   0.24999   0.00000  Uiso   1.00
O112   O     0.57700   0.26308   0.46008   0.00000  Uiso   1.00
O113   O     0.56012   0.12709   0.25000   0.00000  Uiso   1.00
O114   O     0.56012   0.20625   0.25000   0.00000  Uiso   1.00
O115   O     0.43988   0.12709   0.24999   0.00000  Uiso   1.00
O116   O     0.49999   0.20627   0.18513   0.00000  Uiso   1.00
O117   O     0.50001   0.12707   0.31487   0.00000  Uiso   1.00
O118   O     0.50001   0.20627   0.31487   0.00000  Uiso   1.00
O119   O     0.49999   0.12707   0.18513   0.00000  Uiso   1.00
O120   O     0.42299   0.07025   0.03992   0.00000  Uiso   1.00
C121   C     0.75402   0.16668   0.24994   0.00000  Uiso   1.00
C122   C     0.70941   0.16668   0.24992   0.00000  Uiso   1.00
C123   C     0.80601   0.02465   0.22446   0.00000  Uiso   1.00
C124   C     0.86066   0.30869   0.27554   0.00000  Uiso   1.00
C125   C     0.86064   0.02496   0.27557   0.00000  Uiso   1.00
C126   C     0.80603   0.30838   0.22443   0.00000  Uiso   1.00
C127   C     0.83211   0.16650   0.16444   0.00000  Uiso   1.00
C128   C     0.83456   0.16683   0.33556   0.00000  Uiso   1.00
C129   C     0.86267   0.19744   0.40731   0.00000  Uiso   1.00
C130   C     0.80400   0.13590   0.09269   0.00000  Uiso   1.00
C131   C     0.83600   0.16723   0.38384   0.00000  Uiso   1.00
C132   C     0.91265   0.16666   0.25006   0.00000  Uiso   1.00
C133   C     0.83067   0.16610   0.11616   0.00000  Uiso   1.00
C134   C     0.81011   0.13666   0.40614   0.00000  Uiso   1.00
C135   C     0.85656   0.19667   0.09386   0.00000  Uiso   1.00
C136   C     0.80924   0.13614   0.45211   0.00000  Uiso   1.00
C137   C     0.85743   0.19720   0.04789   0.00000  Uiso   1.00
C138   C     0.83430   0.16711   0.47663   0.00000  Uiso   1.00
C139   C     0.83237   0.16623   0.02337   0.00000  Uiso   1.00
C140   C     0.86126   0.19870   0.45443   0.00000  Uiso   1.00
C141   C     0.80541   0.13464   0.04557   0.00000  Uiso   1.00
C142   C     0.78327   0.10474   0.47350   0.00000  Uiso   1.00
C143   C     0.78115   0.10315   0.01986   0.00000  Uiso   1.00
C144   C     0.88339   0.22860   0.02650   0.00000  Uiso   1.00
C145   C     0.88551   0.23019   0.48014   0.00000  Uiso   1.00
C146   C     0.68798   0.12413   0.24854   0.00000  Uiso   1.00
C147   C     0.97869   0.20921   0.25146   0.00000  Uiso   1.00
C148   C     0.97874   0.12412   0.24865   0.00000  Uiso   1.00
C149   C     0.68793   0.20922   0.25135   0.00000  Uiso   1.00
C150   C     0.95726   0.16666   0.25008   0.00000  Uiso   1.00
Cl151  Cl    0.89969   0.22929   0.37645   0.00000  Uiso   1.00
Cl152  Cl    0.76698   0.10404   0.12355   0.00000  Uiso   1.00
Cu153  Cu    0.83333   0.21355   0.25000   0.00000  Uiso   1.00
Cu154  Cu    0.83333   0.11978   0.25000   0.00000  Uiso   1.00
H155   H     0.79013   0.11336   0.38735   0.00000  Uiso   1.00
H156   H     0.88259   0.29014   0.29595   0.00000  Uiso   1.00
H157   H     0.88251   0.04377   0.29608   0.00000  Uiso   1.00
H158   H     0.78416   0.28957   0.20392   0.00000  Uiso   1.00
H159   H     0.74190   0.05127   0.01704   0.00000  Uiso   1.00
H160   H     0.92476   0.28207   0.48295   0.00000  Uiso   1.00
H161   H     0.87653   0.21997   0.11265   0.00000  Uiso   1.00
H162   H     0.76459   0.08088   0.45385   0.00000  Uiso   1.00
H163   H     0.90207   0.25245   0.04615   0.00000  Uiso   1.00
H164   H     0.70402   0.09087   0.24734   0.00000  Uiso   1.00
H165   H     0.96265   0.24246   0.25265   0.00000  Uiso   1.00
H166   H     0.96275   0.09085   0.24754   0.00000  Uiso   1.00
H167   H     0.70392   0.24248   0.25246   0.00000  Uiso   1.00
H168   H     0.78408   0.04319   0.20405   0.00000  Uiso   1.00
N169   N     0.83333   0.28402   0.25000   0.00000  Uiso   1.00
N170   N     0.83333   0.04931   0.25000   0.00000  Uiso   1.00
O171   O     0.77321   0.20625   0.24999   0.00000  Uiso   1.00
O172   O     0.91034   0.26308   0.46008   0.00000  Uiso   1.00
O173   O     0.89345   0.12709   0.25000   0.00000  Uiso   1.00
O174   O     0.89345   0.20625   0.25000   0.00000  Uiso   1.00
O175   O     0.77321   0.12709   0.24999   0.00000  Uiso   1.00
O176   O     0.83332   0.20627   0.18513   0.00000  Uiso   1.00
O177   O     0.83334   0.12707   0.31487   0.00000  Uiso   1.00
O178   O     0.83334   0.20627   0.31487   0.00000  Uiso   1.00
O179   O     0.83332   0.12707   0.18513   0.00000  Uiso   1.00
O180   O     0.75633   0.07025   0.03992   0.00000  Uiso   1.00
C181   C     0.08735   0.50001   0.24994   0.00000  Uiso   1.00
C182   C     0.04274   0.50001   0.24992   0.00000  Uiso   1.00
C183   C     0.13934   0.35798   0.22446   0.00000  Uiso   1.00
C184   C     0.19399   0.64202   0.27554   0.00000  Uiso   1.00
C185   C     0.19398   0.35829   0.27557   0.00000  Uiso   1.00
C186   C     0.13936   0.64171   0.22443   0.00000  Uiso   1.00
C187   C     0.16544   0.49984   0.16444   0.00000  Uiso   1.00
C188   C     0.16789   0.50016   0.33556   0.00000  Uiso   1.00
C189   C     0.19600   0.53077   0.40731   0.00000  Uiso   1.00
C190   C     0.13733   0.46923   0.09269   0.00000  Uiso   1.00
C191   C     0.16933   0.50056   0.38384   0.00000  Uiso   1.00
C192   C     0.24598   0.49999   0.25006   0.00000  Uiso   1.00
C193   C     0.16400   0.49944   0.11616   0.00000  Uiso   1.00
C194   C     0.14344   0.47000   0.40614   0.00000  Uiso   1.00
C195   C     0.18989   0.53000   0.09386   0.00000  Uiso   1.00
C196   C     0.14257   0.46947   0.45211   0.00000  Uiso   1.00
C197   C     0.19076   0.53053   0.04789   0.00000  Uiso   1.00
C198   C     0.16763   0.50044   0.47663   0.00000  Uiso   1.00
C199   C     0.16570   0.49956   0.02337   0.00000  Uiso   1.00
C200   C     0.19459   0.53203   0.45443   0.00000  Uiso   1.00
C201   C     0.13874   0.46797   0.04557   0.00000  Uiso   1.00
C202   C     0.11661   0.43807   0.47350   0.00000  Uiso   1.00
C203   C     0.11449   0.43648   0.01986   0.00000  Uiso   1.00
C204   C     0.21673   0.56193   0.02650   0.00000  Uiso   1.00
C205   C     0.21884   0.56352   0.48014   0.00000  Uiso   1.00
C206   C     0.02131   0.45746   0.24854   0.00000  Uiso   1.00
C207   C     0.31202   0.54254   0.25146   0.00000  Uiso   1.00
C208   C     0.31207   0.45745   0.24865   0.00000  Uiso   1.00
C209   C     0.02126   0.54255   0.25135   0.00000  Uiso   1.00
C210   C     0.29059   0.49999   0.25008   0.00000  Uiso   1.00
Cl211  Cl    0.23302   0.56262   0.37645   0.00000  Uiso   1.00
Cl212  Cl    0.10031   0.43738   0.12355   0.00000  Uiso   1.00
Cu213  Cu    0.16667   0.54689   0.25000   0.00000  Uiso   1.00
Cu214  Cu    0.16667   0.45311   0.25000   0.00000  Uiso   1.00
H215   H     0.12347   0.44670   0.38735   0.00000  Uiso   1.00
H216   H     0.21592   0.62347   0.29595   0.00000  Uiso   1.00
H217   H     0.21584   0.37710   0.29608   0.00000  Uiso   1.00
H218   H     0.11749   0.62290   0.20392   0.00000  Uiso   1.00
H219   H     0.07523   0.38460   0.01704   0.00000  Uiso   1.00
H220   H     0.25810   0.61541   0.48295   0.00000  Uiso   1.00
H221   H     0.20987   0.55330   0.11265   0.00000  Uiso   1.00
H222   H     0.09793   0.41422   0.45385   0.00000  Uiso   1.00
H223   H     0.23540   0.58579   0.04615   0.00000  Uiso   1.00
H224   H     0.03735   0.42421   0.24734   0.00000  Uiso   1.00
H225   H     0.29598   0.57579   0.25265   0.00000  Uiso   1.00
H226   H     0.29608   0.42419   0.24754   0.00000  Uiso   1.00
H227   H     0.03725   0.57581   0.25246   0.00000  Uiso   1.00
H228   H     0.11741   0.37653   0.20405   0.00000  Uiso   1.00
N229   N     0.16667   0.61736   0.25000   0.00000  Uiso   1.00
N230   N     0.16667   0.38264   0.25000   0.00000  Uiso   1.00
O231   O     0.10655   0.53958   0.24999   0.00000  Uiso   1.00
O232   O     0.24367   0.59642   0.46008   0.00000  Uiso   1.00
O233   O     0.22679   0.46042   0.25000   0.00000  Uiso   1.00
O234   O     0.22679   0.53958   0.25000   0.00000  Uiso   1.00
O235   O     0.10655   0.46042   0.24999   0.00000  Uiso   1.00
O236   O     0.16666   0.53960   0.18513   0.00000  Uiso   1.00
O237   O     0.16668   0.46040   0.31487   0.00000  Uiso   1.00
O238   O     0.16668   0.53960   0.31487   0.00000  Uiso   1.00
O239   O     0.16666   0.46040   0.18513   0.00000  Uiso   1.00
O240   O     0.08966   0.40359   0.03992   0.00000  Uiso   1.00
C241   C     0.42069   0.50001   0.24994   0.00000  Uiso   1.00
C242   C     0.37607   0.50001   0.24992   0.00000  Uiso   1.00
C243   C     0.47268   0.35798   0.22446   0.00000  Uiso   1.00
C244   C     0.52732   0.64202   0.27554   0.00000  Uiso   1.00
C245   C     0.52731   0.35829   0.27557   0.00000  Uiso   1.00
C246   C     0.47269   0.64171   0.22443   0.00000  Uiso   1.00
C247   C     0.49877   0.49984   0.16444   0.00000  Uiso   1.00
C248   C     0.50123   0.50016   0.33556   0.00000  Uiso   1.00
C249   C     0.52933   0.53077   0.40731   0.00000  Uiso   1.00
C250   C     0.47067   0.46923   0.09269   0.00000  Uiso   1.00
C251   C     0.50267   0.50056   0.38384   0.00000  Uiso   1.00
C252   C     0.57931   0.49999   0.25006   0.00000  Uiso   1.00
C253   C     0.49733   0.49944   0.11616   0.00000  Uiso   1.00
C254   C     0.47677   0.47000   0.40614   0.00000  Uiso   1.00
C255   C     0.52323   0.53000   0.09386   0.00000  Uiso   1.00
C256   C     0.47590   0.46947   0.45211   0.00000  Uiso   1.00
C257   C     0.52410   0.53053   0.04789   0.00000  Uiso   1.00
C258   C     0.50097   0.50044   0.47663   0.00000  Uiso   1.00
C259   C     0.49903   0.49956   0.02337   0.00000  Uiso   1.00
C260   C     0.52793   0.53203   0.45443   0.00000  Uiso   1.00
C261   C     0.47207   0.46797   0.04557   0.00000  Uiso   1.00
C262   C     0.44994   0.43807   0.47350   0.00000  Uiso   1.00
C263   C     0.44782   0.43648   0.01986   0.00000  Uiso   1.00
C264   C     0.55006   0.56193   0.02650   0.00000  Uiso   1.00
C265   C     0.55218   0.56352   0.48014   0.00000  Uiso   1.00
C266   C     0.35465   0.45746   0.24854   0.00000  Uiso   1.00
C267   C     0.64535   0.54254   0.25146   0.00000  Uiso   1.00
C268   C     0.64541   0.45745   0.24865   0.00000  Uiso   1.00
C269   C     0.35459   0.54255   0.25135   0.00000  Uiso   1.00
C270   C     0.62393   0.49999   0.25008   0.00000  Uiso   1.00
Cl271  Cl    0.56636   0.56262   0.37645   0.00000  Uiso   1.00
Cl272  Cl    0.43364   0.43738   0.12355   0.00000  Uiso   1.00
Cu273  Cu    0.50000   0.54689   0.25000   0.00000  Uiso   1.00
Cu274  Cu    0.50000   0.45311   0.25000   0.00000  Uiso   1.00
H275   H     0.45680   0.44670   0.38735   0.00000  Uiso   1.00
H276   H     0.54925   0.62347   0.29595   0.00000  Uiso   1.00
H277   H     0.54917   0.37710   0.29608   0.00000  Uiso   1.00
H278   H     0.45083   0.62290   0.20392   0.00000  Uiso   1.00
H279   H     0.40856   0.38460   0.01704   0.00000  Uiso   1.00
H280   H     0.59143   0.61541   0.48295   0.00000  Uiso   1.00
H281   H     0.54320   0.55330   0.11265   0.00000  Uiso   1.00
H282   H     0.43126   0.41422   0.45385   0.00000  Uiso   1.00
H283   H     0.56874   0.58579   0.04615   0.00000  Uiso   1.00
H284   H     0.37068   0.42421   0.24734   0.00000  Uiso   1.00
H285   H     0.62932   0.57579   0.25265   0.00000  Uiso   1.00
H286   H     0.62941   0.42419   0.24754   0.00000  Uiso   1.00
H287   H     0.37059   0.57581   0.25246   0.00000  Uiso   1.00
H288   H     0.45075   0.37653   0.20405   0.00000  Uiso   1.00
N289   N     0.50000   0.61736   0.25000   0.00000  Uiso   1.00
N290   N     0.50000   0.38264   0.25000   0.00000  Uiso   1.00
O291   O     0.43988   0.53958   0.24999   0.00000  Uiso   1.00
O292   O     0.57700   0.59642   0.46008   0.00000  Uiso   1.00
O293   O     0.56012   0.46042   0.25000   0.00000  Uiso   1.00
O294   O     0.56012   0.53958   0.25000   0.00000  Uiso   1.00
O295   O     0.43988   0.46042   0.24999   0.00000  Uiso   1.00
O296   O     0.49999   0.53960   0.18513   0.00000  Uiso   1.00
O297   O     0.50001   0.46040   0.31487   0.00000  Uiso   1.00
O298   O     0.50001   0.53960   0.31487   0.00000  Uiso   1.00
O299   O     0.49999   0.46040   0.18513   0.00000  Uiso   1.00
O300   O     0.42299   0.40359   0.03992   0.00000  Uiso   1.00
C301   C     0.75402   0.50001   0.24994   0.00000  Uiso   1.00
C302   C     0.70941   0.50001   0.24992   0.00000  Uiso   1.00
C303   C     0.80601   0.35798   0.22446   0.00000  Uiso   1.00
C304   C     0.86066   0.64202   0.27554   0.00000  Uiso   1.00
C305   C     0.86064   0.35829   0.27557   0.00000  Uiso   1.00
C306   C     0.80603   0.64171   0.22443   0.00000  Uiso   1.00
C307   C     0.83211   0.49984   0.16444   0.00000  Uiso   1.00
C308   C     0.83456   0.50016   0.33556   0.00000  Uiso   1.00
C309   C     0.86267   0.53077   0.40731   0.00000  Uiso   1.00
C310   C     0.80400   0.46923   0.09269   0.00000  Uiso   1.00
C311   C     0.83600   0.50056   0.38384   0.00000  Uiso   1.00
C312   C     0.91265   0.49999   0.25006   0.00000  Uiso   1.00
C313   C     0.83067   0.49944   0.11616   0.00000  Uiso   1.00
C314   C     0.81011   0.47000   0.40614   0.00000  Uiso   1.00
C315   C     0.85656   0.53000   0.09386   0.00000  Uiso   1.00
C316   C     0.80924   0.46947   0.45211   0.00000  Uiso   1.00
C317   C     0.85743   0.53053   0.04789   0.00000  Uiso   1.00
C318   C     0.83430   0.50044   0.47663   0.00000  Uiso   1.00
C319   C     0.83237   0.49956   0.02337   0.00000  Uiso   1.00
C320   C     0.86126   0.53203   0.45443   0.00000  Uiso   1.00
C321   C     0.80541   0.46797   0.04557   0.00000  Uiso   1.00
C322   C     0.78327   0.43807   0.47350   0.00000  Uiso   1.00
C323   C     0.78115   0.43648   0.01986   0.00000  Uiso   1.00
C324   C     0.88339   0.56193   0.02650   0.00000  Uiso   1.00
C325   C     0.88551   0.56352   0.48014   0.00000  Uiso   1.00
C326   C     0.68798   0.45746   0.24854   0.00000  Uiso   1.00
C327   C     0.97869   0.54254   0.25146   0.00000  Uiso   1.00
C328   C     0.97874   0.45745   0.24865   0.00000  Uiso   1.00
C329   C     0.68793   0.54255   0.25135   0.00000  Uiso   1.00
C330   C     0.95726   0.49999   0.25008   0.00000  Uiso   1.00
Cl331  Cl    0.89969   0.56262   0.37645   0.00000  Uiso   1.00
Cl332  Cl    0.76698   0.43738   0.12355   0.00000  Uiso   1.00
Cu333  Cu    0.83333   0.54689   0.25000   0.00000  Uiso   1.00
Cu334  Cu    0.83333   0.45311   0.25000   0.00000  Uiso   1.00
H335   H     0.79013   0.44670   0.38735   0.00000  Uiso   1.00
H336   H     0.88259   0.62347   0.29595   0.00000  Uiso   1.00
H337   H     0.88251   0.37710   0.29608   0.00000  Uiso   1.00
H338   H     0.78416   0.62290   0.20392   0.00000  Uiso   1.00
H339   H     0.74190   0.38460   0.01704   0.00000  Uiso   1.00
H340   H     0.92476   0.61541   0.48295   0.00000  Uiso   1.00
H341   H     0.87653   0.55330   0.11265   0.00000  Uiso   1.00
H342   H     0.76459   0.41422   0.45385   0.00000  Uiso   1.00
H343   H     0.90207   0.58579   0.04615   0.00000  Uiso   1.00
H344   H     0.70402   0.42421   0.24734   0.00000  Uiso   1.00
H345   H     0.96265   0.57579   0.25265   0.00000  Uiso   1.00
H346   H     0.96275   0.42419   0.24754   0.00000  Uiso   1.00
H347   H     0.70392   0.57581   0.25246   0.00000  Uiso   1.00
H348   H     0.78408   0.37653   0.20405   0.00000  Uiso   1.00
N349   N     0.83333   0.61736   0.25000   0.00000  Uiso   1.00
N350   N     0.83333   0.38264   0.25000   0.00000  Uiso   1.00
O351   O     0.77321   0.53958   0.24999   0.00000  Uiso   1.00
O352   O     0.91034   0.59642   0.46008   0.00000  Uiso   1.00
O353   O     0.89345   0.46042   0.25000   0.00000  Uiso   1.00
O354   O     0.89345   0.53958   0.25000   0.00000  Uiso   1.00
O355   O     0.77321   0.46042   0.24999   0.00000  Uiso   1.00
O356   O     0.83332   0.53960   0.18513   0.00000  Uiso   1.00
O357   O     0.83334   0.46040   0.31487   0.00000  Uiso   1.00
O358   O     0.83334   0.53960   0.31487   0.00000  Uiso   1.00
O359   O     0.83332   0.46040   0.18513   0.00000  Uiso   1.00
O360   O     0.75633   0.40359   0.03992   0.00000  Uiso   1.00
C361   C     0.08735   0.83334   0.24994   0.00000  Uiso   1.00
C362   C     0.04274   0.83334   0.24992   0.00000  Uiso   1.00
C363   C     0.13934   0.69131   0.22446   0.00000  Uiso   1.00
C364   C     0.19399   0.97535   0.27554   0.00000  Uiso   1.00
C365   C     0.19398   0.69162   0.27557   0.00000  Uiso   1.00
C366   C     0.13936   0.97504   0.22443   0.00000  Uiso   1.00
C367   C     0.16544   0.83317   0.16444   0.00000  Uiso   1.00
C368   C     0.16789   0.83350   0.33556   0.00000  Uiso   1.00
C369   C     0.19600   0.86410   0.40731   0.00000  Uiso   1.00
C370   C     0.13733   0.80256   0.09269   0.00000  Uiso   1.00
C371   C     0.16933   0.83390   0.38384   0.00000  Uiso   1.00
C372   C     0.24598   0.83333   0.25006   0.00000  Uiso   1.00
C373   C     0.16400   0.83277   0.11616   0.00000  Uiso   1.00
C374   C     0.14344   0.80333   0.40614   0.00000  Uiso   1.00
C375   C     0.18989   0.86334   0.09386   0.00000  Uiso   1.00
C376   C     0.14257   0.80280   0.45211   0.00000  Uiso   1.00
C377   C     0.19076   0.86387   0.04789   0.00000  Uiso   1.00
C378   C     0.16763   0.83377   0.47663   0.00000  Uiso   1.00
C379   C     0.16570   0.83289   0.02337   0.00000  Uiso   1.00
C380   C     0.19459   0.86537   0.45443   0.00000  Uiso   1.00
C381   C     0.13874   0.80130   0.04557   0.00000  Uiso   1.00
C382   C     0.11661   0.77140   0.47350   0.00000  Uiso   1.00
C383   C     0.11449   0.76981   0.01986   0.00000  Uiso   1.00
C384   C     0.21673   0.89526   0.02650   0.00000  Uiso   1.00
C385   C     0.21884   0.89686   0.48014   0.00000  Uiso   1.00
C386   C     0.02131   0.79080   0.24854   0.00000  Uiso   1.00
C387   C     0.31202   0.87587   0.25146   0.00000  Uiso   1.00
C388   C     0.31207   0.79078   0.24865   0.00000  Uiso   1.00
C389   C     0.02126   0.87588   0.25135   0.00000  Uiso   1.00
C390   C     0.29059   0.83332   0.25008   0.00000  Uiso   1.00
Cl391  Cl    0.23302   0.89596   0.37645   0.00000  Uiso   1.00
Cl392  Cl    0.10031   0.77071   0.12355   0.00000  Uiso   1.00
Cu393  Cu    0.16667   0.88022   0.25000   0.00000  Uiso   1.00
Cu394  Cu    0.16667   0.78645   0.25000   0.00000  Uiso   1.00
H395   H     0.12347   0.78003   0.38735   0.00000  Uiso   1.00
H396   H     0.21592   0.95681   0.29595   0.00000  Uiso   1.00
H397   H     0.21584   0.71043   0.29608   0.00000  Uiso   1.00
H398   H     0.11749   0.95623   0.20392   0.00000  Uiso   1.00
H399   H     0.07523   0.71793   0.01704   0.00000  Uiso   1.00
H400   H     0.25810   0.94874   0.48295   0.00000  Uiso   1.00
H401   H     0.20987   0.88664   0.11265   0.00000  Uiso   1.00
H402   H     0.09793   0.74755   0.45385   0.00000  Uiso   1.00
H403   H     0.23540   0.91912   0.04615   0.00000  Uiso   1.00
H404   H     0.03735   0.75754   0.24734   0.00000  Uiso   1.00
H405   H     0.29598   0.90913   0.25265   0.00000  Uiso   1.00
H406   H     0.29608   0.75752   0.24754   0.00000  Uiso   1.00
H407   H     0.03725   0.90915   0.25246   0.00000  Uiso   1.00
H408   H     0.11741   0.70986   0.20405   0.00000  Uiso   1.00
N409   N     0.16667   0.95069   0.25000   0.00000  Uiso   1.00
N410   N     0.16667   0.71598   0.25000   0.00000  Uiso   1.00
O411   O     0.10655   0.87291   0.24999   0.00000  Uiso   1.00
O412   O     0.24367   0.92975   0.46008   0.00000  Uiso   1.00
O413   O     0.22679   0.79375   0.25000   0.00000  Uiso   1.00
O414   O     0.22679   0.87291   0.25000   0.00000  Uiso   1.00
O415   O     0.10655   0.79375   0.24999   0.00000  Uiso   1.00
O416   O     0.16666   0.87293   0.18513   0.00000  Uiso   1.00
O417   O     0.16668   0.79373   0.31487   0.00000  Uiso   1.00
O418   O     0.16668   0.87293   0.31487   0.00000  Uiso   1.00
O419   O     0.16666   0.79373   0.18513   0.00000  Uiso   1.00
O420   O     0.08966   0.73692   0.03992   0.00000  Uiso   1.00
C421   C     0.42069   0.83334   0.24994   0.00000  Uiso   1.00
C422   C     0.37607   0.83334   0.24992   0.00000  Uiso   1.00
C423   C     0.47268   0.69131   0.22446   0.00000  Uiso   1.00
C424   C     0.52732   0.97535   0.27554   0.00000  Uiso   1.00
C425   C     0.52731   0.69162   0.27557   0.00000  Uiso   1.00
C426   C     0.47269   0.97504   0.22443   0.00000  Uiso   1.00
C427   C     0.49877   0.83317   0.16444   0.00000  Uiso   1.00
C428   C     0.50123   0.83350   0.33556   0.00000  Uiso   1.00
C429   C     0.52933   0.86410   0.40731   0.00000  Uiso   1.00
C430   C     0.47067   0.80256   0.09269   0.00000  Uiso   1.00
C431   C     0.50267   0.83390   0.38384   0.00000  Uiso   1.00
C432   C     0.57931   0.83333   0.25006   0.00000  Uiso   1.00
C433   C     0.49733   0.83277   0.11616   0.00000  Uiso   1.00
C434   C     0.47677   0.80333   0.40614   0.00000  Uiso   1.00
C435   C     0.52323   0.86334   0.09386   0.00000  Uiso   1.00
C436   C     0.47590   0.80280   0.45211   0.00000  Uiso   1.00
C437   C     0.52410   0.86387   0.04789   0.00000  Uiso   1.00
C438   C     0.50097   0.83377   0.47663   0.00000  Uiso   1.00
C439   C     0.49903   0.83289   0.02337   0.00000  Uiso   1.00
C440   C     0.52793   0.86537   0.45443   0.00000  Uiso   1.00
C441   C     0.47207   0.80130   0.04557   0.00000  Uiso   1.00
C442   C     0.44994   0.77140   0.47350   0.00000  Uiso   1.00
C443   C     0.44782   0.76981   0.01986   0.00000  Uiso   1.00
C444   C     0.55006   0.89526   0.02650   0.00000  Uiso   1.00
C445   C     0.55218   0.89686   0.48014   0.00000  Uiso   1.00
C446   C     0.35465   0.79080   0.24854   0.00000  Uiso   1.00
C447   C     0.64535   0.87587   0.25146   0.00000  Uiso   1.00
C448   C     0.64541   0.79078   0.24865   0.00000  Uiso   1.00
C449   C     0.35459   0.87588   0.25135   0.00000  Uiso   1.00
C450   C     0.62393   0.83332   0.25008   0.00000  Uiso   1.00
Cl451  Cl    0.56636   0.89596   0.37645   0.00000  Uiso   1.00
Cl452  Cl    0.43364   0.77071   0.12355   0.00000  Uiso   1.00
Cu453  Cu    0.50000   0.88022   0.25000   0.00000  Uiso   1.00
Cu454  Cu    0.50000   0.78645   0.25000   0.00000  Uiso   1.00
H455   H     0.45680   0.78003   0.38735   0.00000  Uiso   1.00
H456   H     0.54925   0.95681   0.29595   0.00000  Uiso   1.00
H457   H     0.54917   0.71043   0.29608   0.00000  Uiso   1.00
H458   H     0.45083   0.95623   0.20392   0.00000  Uiso   1.00
H459   H     0.40856   0.71793   0.01704   0.00000  Uiso   1.00
H460   H     0.59143   0.94874   0.48295   0.00000  Uiso   1.00
H461   H     0.54320   0.88664   0.11265   0.00000  Uiso   1.00
H462   H     0.43126   0.74755   0.45385   0.00000  Uiso   1.00
H463   H     0.56874   0.91912   0.04615   0.00000  Uiso   1.00
H464   H     0.37068   0.75754   0.24734   0.00000  Uiso   1.00
H465   H     0.62932   0.90913   0.25265   0.00000  Uiso   1.00
H466   H     0.62941   0.75752   0.24754   0.00000  Uiso   1.00
H467   H     0.37059   0.90915   0.25246   0.00000  Uiso   1.00
H468   H     0.45075   0.70986   0.20405   0.00000  Uiso   1.00
N469   N     0.50000   0.95069   0.25000   0.00000  Uiso   1.00
N470   N     0.50000   0.71598   0.25000   0.00000  Uiso   1.00
O471   O     0.43988   0.87291   0.24999   0.00000  Uiso   1.00
O472   O     0.57700   0.92975   0.46008   0.00000  Uiso   1.00
O473   O     0.56012   0.79375   0.25000   0.00000  Uiso   1.00
O474   O     0.56012   0.87291   0.25000   0.00000  Uiso   1.00
O475   O     0.43988   0.79375   0.24999   0.00000  Uiso   1.00
O476   O     0.49999   0.87293   0.18513   0.00000  Uiso   1.00
O477   O     0.50001   0.79373   0.31487   0.00000  Uiso   1.00
O478   O     0.50001   0.87293   0.31487   0.00000  Uiso   1.00
O479   O     0.49999   0.79373   0.18513   0.00000  Uiso   1.00
O480   O     0.42299   0.73692   0.03992   0.00000  Uiso   1.00
C481   C     0.75402   0.83334   0.24994   0.00000  Uiso   1.00
C482   C     0.70941   0.83334   0.24992   0.00000  Uiso   1.00
C483   C     0.80601   0.69131   0.22446   0.00000  Uiso   1.00
C484   C     0.86066   0.97535   0.27554   0.00000  Uiso   1.00
C485   C     0.86064   0.69162   0.27557   0.00000  Uiso   1.00
C486   C     0.80603   0.97504   0.22443   0.00000  Uiso   1.00
C487   C     0.83211   0.83317   0.16444   0.00000  Uiso   1.00
C488   C     0.83456   0.83350   0.33556   0.00000  Uiso   1.00
C489   C     0.86267   0.86410   0.40731   0.00000  Uiso   1.00
C490   C     0.80400   0.80256   0.09269   0.00000  Uiso   1.00
C491   C     0.83600   0.83390   0.38384   0.00000  Uiso   1.00
C492   C     0.91265   0.83333   0.25006   0.00000  Uiso   1.00
C493   C     0.83067   0.83277   0.11616   0.00000  Uiso   1.00
C494   C     0.81011   0.80333   0.40614   0.00000  Uiso   1.00
C495   C     0.85656   0.86334   0.09386   0.00000  Uiso   1.00
C496   C     0.80924   0.80280   0.45211   0.00000  Uiso   1.00
C497   C     0.85743   0.86387   0.04789   0.00000  Uiso   1.00
C498   C     0.83430   0.83377   0.47663   0.00000  Uiso   1.00
C499   C     0.83237   0.83289   0.02337   0.00000  Uiso   1.00
C500   C     0.86126   0.86537   0.45443   0.00000  Uiso   1.00
C501   C     0.80541   0.80130   0.04557   0.00000  Uiso   1.00
C502   C     0.78327   0.77140   0.47350   0.00000  Uiso   1.00
C503   C     0.78115   0.76981   0.01986   0.00000  Uiso   1.00
C504   C     0.88339   0.89526   0.02650   0.00000  Uiso   1.00
C505   C     0.88551   0.89686   0.48014   0.00000  Uiso   1.00
C506   C     0.68798   0.79080   0.24854   0.00000  Uiso   1.00
C507   C     0.97869   0.87587   0.25146   0.00000  Uiso   1.00
C508   C     0.97874   0.79078   0.24865   0.00000  Uiso   1.00
C509   C     0.68793   0.87588   0.25135   0.00000  Uiso   1.00
C510   C     0.95726   0.83332   0.25008   0.00000  Uiso   1.00
Cl511  Cl    0.89969   0.89596   0.37645   0.00000  Uiso   1.00
Cl512  Cl    0.76698   0.77071   0.12355   0.00000  Uiso   1.00
Cu513  Cu    0.83333   0.88022   0.25000   0.00000  Uiso   1.00
Cu514  Cu    0.83333   0.78645   0.25000   0.00000  Uiso   1.00
H515   H     0.79013   0.78003   0.38735   0.00000  Uiso   1.00
H516   H     0.88259   0.95681   0.29595   0.00000  Uiso   1.00
H517   H     0.88251   0.71043   0.29608   0.00000  Uiso   1.00
H518   H     0.78416   0.95623   0.20392   0.00000  Uiso   1.00
H519   H     0.74190   0.71793   0.01704   0.00000  Uiso   1.00
H520   H     0.92476   0.94874   0.48295   0.00000  Uiso   1.00
H521   H     0.87653   0.88664   0.11265   0.00000  Uiso   1.00
H522   H     0.76459   0.74755   0.45385   0.00000  Uiso   1.00
H523   H     0.90207   0.91912   0.04615   0.00000  Uiso   1.00
H524   H     0.70402   0.75754   0.24734   0.00000  Uiso   1.00
H525   H     0.96265   0.90913   0.25265   0.00000  Uiso   1.00
H526   H     0.96275   0.75752   0.24754   0.00000  Uiso   1.00
H527   H     0.70392   0.90915   0.25246   0.00000  Uiso   1.00
H528   H     0.78408   0.70986   0.20405   0.00000  Uiso   1.00
N529   N     0.83333   0.95069   0.25000   0.00000  Uiso   1.00
N530   N     0.83333   0.71598   0.25000   0.00000  Uiso   1.00
O531   O     0.77321   0.87291   0.24999   0.00000  Uiso   1.00
O532   O     0.91034   0.92975   0.46008   0.00000  Uiso   1.00
O533   O     0.89345   0.79375   0.25000   0.00000  Uiso   1.00
O534   O     0.89345   0.87291   0.25000   0.00000  Uiso   1.00
O535   O     0.77321   0.79375   0.24999   0.00000  Uiso   1.00
O536   O     0.83332   0.87293   0.18513   0.00000  Uiso   1.00
O537   O     0.83334   0.79373   0.31487   0.00000  Uiso   1.00
O538   O     0.83334   0.87293   0.31487   0.00000  Uiso   1.00
O539   O     0.83332   0.79373   0.18513   0.00000  Uiso   1.00
O540   O     0.75633   0.73692   0.03992   0.00000  Uiso   1.00
C541   C     0.08735   0.16668   0.74994   0.00000  Uiso   1.00
C542   C     0.04274   0.16668   0.74992   0.00000  Uiso   1.00
C543   C     0.13934   0.02465   0.72446   0.00000  Uiso   1.00
C544   C     0.19399   0.30869   0.77554   0.00000  Uiso   1.00
C545   C     0.19398   0.02496   0.77557   0.00000  Uiso   1.00
C546   C     0.13936   0.30838   0.72443   0.00000  Uiso   1.00
C547   C     0.16544   0.16650   0.66444   0.00000  Uiso   1.00
C548   C     0.16789   0.16683   0.83556   0.00000  Uiso   1.00
C549   C     0.19600   0.19744   0.90731   0.00000  Uiso   1.00
C550   C     0.13733   0.13590   0.59269   0.00000  Uiso   1.00
C551   C     0.16933   0.16723   0.88384   0.00000  Uiso   1.00
C552   C     0.24598   0.16666   0.75006   0.00000  Uiso   1.00
C553   C     0.16400   0.16610   0.61616   0.00000  Uiso   1.00
C554   C     0.14344   0.13666   0.90614   0.00000  Uiso   1.00
C555   C     0.18989   0.19667   0.59386   0.00000  Uiso   1.00
C556   C     0.14257   0.13614   0.95211   0.00000  Uiso   1.00
C557   C     0.19076   0.19720   0.54789   0.00000  Uiso   1.00
C558   C     0.16763   0.16711   0.97663   0.00000  Uiso   1.00
C559   C     0.16570   0.16623   0.52337   0.00000  Uiso   1.00
C560   C     0.19459   0.19870   0.95443   0.00000  Uiso   1.00
C561   C     0.13874   0.13464   0.54557   0.00000  Uiso   1.00
C562   C     0.11661   0.10474   0.97350   0.00000  Uiso   1.00
C563   C     0.11449   0.10315   0.51986   0.00000  Uiso   1.00
C564   C     0.21673   0.22860   0.52650   0.00000  Uiso   1.00
C565   C     0.21884   0.23019   0.98014   0.00000  Uiso   1.00
C566   C     0.02131   0.12413   0.74854   0.00000  Uiso   1.00
C567   C     0.31202   0.20921   0.75146   0.00000  Uiso   1.00
C568   C     0.31207   0.12412   0.74865   0.00000  Uiso   1.00
C569   C     0.02126   0.20922   0.75135   0.00000  Uiso   1.00
C570   C     0.29059   0.16666   0.75008   0.00000  Uiso   1.00
Cl571  Cl    0.23302   0.22929   0.87645   0.00000  Uiso   1.00
Cl572  Cl    0.10031   0.10404   0.62355   0.00000  Uiso   1.00
Cu573  Cu    0.16667   0.21355   0.75000   0.00000  Uiso   1.00
Cu574  Cu    0.16667   0.11978   0.75000   0.00000  Uiso   1.00
H575   H     0.12347   0.11336   0.88735   0.00000  Uiso   1.00
H576   H     0.21592   0.29014   0.79595   0.00000  Uiso   1.00
H577   H     0.21584   0.04377   0.79608   0.00000  Uiso   1.00
H578   H     0.11749   0.28957   0.70392   0.00000  Uiso   1.00
H579   H     0.07523   0.05127   0.51704   0.00000  Uiso   1.00
H580   H     0.25810   0.28207   0.98295   0.00000  Uiso   1.00
H581   H     0.20987   0.21997   0.61265   0.00000  Uiso   1.00
H582   H     0.09793   0.08088   0.95385   0.00000  Uiso   1.00
H583   H     0.23540   0.25245   0.54615   0.00000  Uiso   1.00
H584   H     0.03735   0.09087   0.74734   0.00000  Uiso   1.00
H585   H     0.29598   0.24246   0.75265   0.00000  Uiso   1.00
H586   H     0.29608   0.09085   0.74754   0.00000  Uiso   1.00
H587   H     0.03725   0.24248   0.75246   0.00000  Uiso   1.00
H588   H     0.11741   0.04319   0.70405   0.00000  Uiso   1.00
N589   N     0.16667   0.28402   0.75000   0.00000  Uiso   1.00
N590   N     0.16667   0.04931   0.75000   0.00000  Uiso   1.00
O591   O     0.10655   0.20625   0.74999   0.00000  Uiso   1.00
O592   O     0.24367   0.26308   0.96008   0.00000  Uiso   1.00
O593   O     0.22679   0.12709   0.75000   0.00000  Uiso   1.00
O594   O     0.22679   0.20625   0.75000   0.00000  Uiso   1.00
O595   O     0.10655   0.12709   0.74999   0.00000  Uiso   1.00
O596   O     0.16666   0.20627   0.68513   0.00000  Uiso   1.00
O597   O     0.16668   0.12707   0.81487   0.00000  Uiso   1.00
O598   O     0.16668   0.20627   0.81487   0.00000  Uiso   1.00
O599   O     0.16666   0.12707   0.68513   0.00000  Uiso   1.00
O600   O     0.08966   0.07025   0.53992   0.00000  Uiso   1.00
C601   C     0.42069   0.16668   0.74994   0.00000  Uiso   1.00
C602   C     0.37607   0.16668   0.74992   0.00000  Uiso   1.00
C603   C     0.47268   0.02465   0.72446   0.00000  Uiso   1.00
C604   C     0.52732   0.30869   0.77554   0.00000  Uiso   1.00
C605   C     0.52731   0.02496   0.77557   0.00000  Uiso   1.00
C606   C     0.47269   0.30838   0.72443   0.00000  Uiso   1.00
C607   C     0.49877   0.16650   0.66444   0.00000  Uiso   1.00
C608   C     0.50123   0.16683   0.83556   0.00000  Uiso   1.00
C609   C     0.52933   0.19744   0.90731   0.00000  Uiso   1.00
C610   C     0.47067   0.13590   0.59269   0.00000  Uiso   1.00
C611   C     0.50267   0.16723   0.88384   0.00000  Uiso   1.00
C612   C     0.57931   0.16666   0.75006   0.00000  Uiso   1.00
C613   C     0.49733   0.16610   0.61616   0.00000  Uiso   1.00
C614   C     0.47677   0.13666   0.90614   0.00000  Uiso   1.00
C615   C     0.52323   0.19667   0.59386   0.00000  Uiso   1.00
C616   C     0.47590   0.13614   0.95211   0.00000  Uiso   1.00
C617   C     0.52410   0.19720   0.54789   0.00000  Uiso   1.00
C618   C     0.50097   0.16711   0.97663   0.00000  Uiso   1.00
C619   C     0.49903   0.16623   0.52337   0.00000  Uiso   1.00
C620   C     0.52793   0.19870   0.95443   0.00000  Uiso   1.00
C621   C     0.47207   0.13464   0.54557   0.00000  Uiso   1.00
C622   C     0.44994   0.10474   0.97350   0.00000  Uiso   1.00
C623   C     0.44782   0.10315   0.51986   0.00000  Uiso   1.00
C624   C     0.55006   0.22860   0.52650   0.00000  Uiso   1.00
C625   C     0.55218   0.23019   0.98014   0.00000  Uiso   1.00
C626   C     0.35465   0.12413   0.74854   0.00000  Uiso   1.00
C627   C     0.64535   0.20921   0.75146   0.00000  Uiso   1.00
C628   C     0.64541   0.12412   0.74865   0.00000  Uiso   1.00
C629   C     0.35459   0.20922   0.75135   0.00000  Uiso   1.00
C630   C     0.62393   0.16666   0.75008   0.00000  Uiso   1.00
Cl631  Cl    0.56636   0.22929   0.87645   0.00000  Uiso   1.00
Cl632  Cl    0.43364   0.10404   0.62355   0.00000  Uiso   1.00
Cu633  Cu    0.50000   0.21355   0.75000   0.00000  Uiso   1.00
Cu634  Cu    0.50000   0.11978   0.75000   0.00000  Uiso   1.00
H635   H     0.45680   0.11336   0.88735   0.00000  Uiso   1.00
H636   H     0.54925   0.29014   0.79595   0.00000  Uiso   1.00
H637   H     0.54917   0.04377   0.79608   0.00000  Uiso   1.00
H638   H     0.45083   0.28957   0.70392   0.00000  Uiso   1.00
H639   H     0.40856   0.05127   0.51704   0.00000  Uiso   1.00
H640   H     0.59143   0.28207   0.98295   0.00000  Uiso   1.00
H641   H     0.54320   0.21997   0.61265   0.00000  Uiso   1.00
H642   H     0.43126   0.08088   0.95385   0.00000  Uiso   1.00
H643   H     0.56874   0.25245   0.54615   0.00000  Uiso   1.00
H644   H     0.37068   0.09087   0.74734   0.00000  Uiso   1.00
H645   H     0.62932   0.24246   0.75265   0.00000  Uiso   1.00
H646   H     0.62941   0.09085   0.74754   0.00000  Uiso   1.00
H647   H     0.37059   0.24248   0.75246   0.00000  Uiso   1.00
H648   H     0.45075   0.04319   0.70405   0.00000  Uiso   1.00
N649   N     0.50000   0.28402   0.75000   0.00000  Uiso   1.00
N650   N     0.50000   0.04931   0.75000   0.00000  Uiso   1.00
O651   O     0.43988   0.20625   0.74999   0.00000  Uiso   1.00
O652   O     0.57700   0.26308   0.96008   0.00000  Uiso   1.00
O653   O     0.56012   0.12709   0.75000   0.00000  Uiso   1.00
O654   O     0.56012   0.20625   0.75000   0.00000  Uiso   1.00
O655   O     0.43988   0.12709   0.74999   0.00000  Uiso   1.00
O656   O     0.49999   0.20627   0.68513   0.00000  Uiso   1.00
O657   O     0.50001   0.12707   0.81487   0.00000  Uiso   1.00
O658   O     0.50001   0.20627   0.81487   0.00000  Uiso   1.00
O659   O     0.49999   0.12707   0.68513   0.00000  Uiso   1.00
O660   O     0.42299   0.07025   0.53992   0.00000  Uiso   1.00
C661   C     0.75402   0.16668   0.74994   0.00000  Uiso   1.00
C662   C     0.70941   0.16668   0.74992   0.00000  Uiso   1.00
C663   C     0.80601   0.02465   0.72446   0.00000  Uiso   1.00
C664   C     0.86066   0.30869   0.77554   0.00000  Uiso   1.00
C665   C     0.86064   0.02496   0.77557   0.00000  Uiso   1.00
C666   C     0.80603   0.30838   0.72443   0.00000  Uiso   1.00
C667   C     0.83211   0.16650   0.66444   0.00000  Uiso   1.00
C668   C     0.83456   0.16683   0.83556   0.00000  Uiso   1.00
C669   C     0.86267   0.19744   0.90731   0.00000  Uiso   1.00
C670   C     0.80400   0.13590   0.59269   0.00000  Uiso   1.00
C671   C     0.83600   0.16723   0.88384   0.00000  Uiso   1.00
C672   C     0.91265   0.16666   0.75006   0.00000  Uiso   1.00
C673   C     0.83067   0.16610   0.61616   0.00000  Uiso   1.00
C674   C     0.81011   0.13666   0.90614   0.00000  Uiso   1.00
C675   C     0.85656   0.19667   0.59386   0.00000  Uiso   1.00
C676   C     0.80924   0.13614   0.95211   0.00000  Uiso   1.00
C677   C     0.85743   0.19720   0.54789   0.00000  Uiso   1.00
C678   C     0.83430   0.16711   0.97663   0.00000  Uiso   1.00
C679   C     0.83237   0.16623   0.52337   0.00000  Uiso   1.00
C680   C     0.86126   0.19870   0.95443   0.00000  Uiso   1.00
C681   C     0.80541   0.13464   0.54557   0.00000  Uiso   1.00
C682   C     0.78327   0.10474   0.97350   0.00000  Uiso   1.00
C683   C     0.78115   0.10315   0.51986   0.00000  Uiso   1.00
C684   C     0.88339   0.22860   0.52650   0.00000  Uiso   1.00
C685   C     0.88551   0.23019   0.98014   0.00000  Uiso   1.00
C686   C     0.68798   0.12413   0.74854   0.00000  Uiso   1.00
C687   C     0.97869   0.20921   0.75146   0.00000  Uiso   1.00
C688   C     0.97874   0.12412   0.74865   0.00000  Uiso   1.00
C689   C     0.68793   0.20922   0.75135   0.00000  Uiso   1.00
C690   C     0.95726   0.16666   0.75008   0.00000  Uiso   1.00
Cl691  Cl    0.89969   0.22929   0.87645   0.00000  Uiso   1.00
Cl692  Cl    0.76698   0.10404   0.62355   0.00000  Uiso   1.00
Cu693  Cu    0.83333   0.21355   0.75000   0.00000  Uiso   1.00
Cu694  Cu    0.83333   0.11978   0.75000   0.00000  Uiso   1.00
H695   H     0.79013   0.11336   0.88735   0.00000  Uiso   1.00
H696   H     0.88259   0.29014   0.79595   0.00000  Uiso   1.00
H697   H     0.88251   0.04377   0.79608   0.00000  Uiso   1.00
H698   H     0.78416   0.28957   0.70392   0.00000  Uiso   1.00
H699   H     0.74190   0.05127   0.51704   0.00000  Uiso   1.00
H700   H     0.92476   0.28207   0.98295   0.00000  Uiso   1.00
H701   H     0.87653   0.21997   0.61265   0.00000  Uiso   1.00
H702   H     0.76459   0.08088   0.95385   0.00000  Uiso   1.00
H703   H     0.90207   0.25245   0.54615   0.00000  Uiso   1.00
H704   H     0.70402   0.09087   0.74734   0.00000  Uiso   1.00
H705   H     0.96265   0.24246   0.75265   0.00000  Uiso   1.00
H706   H     0.96275   0.09085   0.74754   0.00000  Uiso   1.00
H707   H     0.70392   0.24248   0.75246   0.00000  Uiso   1.00
H708   H     0.78408   0.04319   0.70405   0.00000  Uiso   1.00
N709   N     0.83333   0.28402   0.75000   0.00000  Uiso   1.00
N710   N     0.83333   0.04931   0.75000   0.00000  Uiso   1.00
O711   O     0.77321   0.20625   0.74999   0.00000  Uiso   1.00
O712   O     0.91034   0.26308   0.96008   0.00000  Uiso   1.00
O713   O     0.89345   0.12709   0.75000   0.00000  Uiso   1.00
O714   O     0.89345   0.20625   0.75000   0.00000  Uiso   1.00
O715   O     0.77321   0.12709   0.74999   0.00000  Uiso   1.00
O716   O     0.83332   0.20627   0.68513   0.00000  Uiso   1.00
O717   O     0.83334   0.12707   0.81487   0.00000  Uiso   1.00
O718   O     0.83334   0.20627   0.81487   0.00000  Uiso   1.00
O719   O     0.83332   0.12707   0.68513   0.00000  Uiso   1.00
O720   O     0.75633   0.07025   0.53992   0.00000  Uiso   1.00
C721   C     0.08735   0.50001   0.74994   0.00000  Uiso   1.00
C722   C     0.04274   0.50001   0.74992   0.00000  Uiso   1.00
C723   C     0.13934   0.35798   0.72446   0.00000  Uiso   1.00
C724   C     0.19399   0.64202   0.77554   0.00000  Uiso   1.00
C725   C     0.19398   0.35829   0.77557   0.00000  Uiso   1.00
C726   C     0.13936   0.64171   0.72443   0.00000  Uiso   1.00
C727   C     0.16544   0.49984   0.66444   0.00000  Uiso   1.00
C728   C     0.16789   0.50016   0.83556   0.00000  Uiso   1.00
C729   C     0.19600   0.53077   0.90731   0.00000  Uiso   1.00
C730   C     0.13733   0.46923   0.59269   0.00000  Uiso   1.00
C731   C     0.16933   0.50056   0.88384   0.00000  Uiso   1.00
C732   C     0.24598   0.49999   0.75006   0.00000  Uiso   1.00
C733   C     0.16400   0.49944   0.61616   0.00000  Uiso   1.00
C734   C     0.14344   0.47000   0.90614   0.00000  Uiso   1.00
C735   C     0.18989   0.53000   0.59386   0.00000  Uiso   1.00
C736   C     0.14257   0.46947   0.95211   0.00000  Uiso   1.00
C737   C     0.19076   0.53053   0.54789   0.00000  Uiso   1.00
C738   C     0.16763   0.50044   0.97663   0.00000  Uiso   1.00
C739   C     0.16570   0.49956   0.52337   0.00000  Uiso   1.00
C740   C     0.19459   0.53203   0.95443   0.00000  Uiso   1.00
C741   C     0.13874   0.46797   0.54557   0.00000  Uiso   1.00
C742   C     0.11661   0.43807   0.97350   0.00000  Uiso   1.00
C743   C     0.11449   0.43648   0.51986   0.00000  Uiso   1.00
C744   C     0.21673   0.56193   0.52650   0.00000  Uiso   1.00
C745   C     0.21884   0.56352   0.98014   0.00000  Uiso   1.00
C746   C     0.02131   0.45746   0.74854   0.00000  Uiso   1.00
C747   C     0.31202   0.54254   0.75146   0.00000  Uiso   1.00
C748   C     0.31207   0.45745   0.74865   0.00000  Uiso   1.00
C749   C     0.02126   0.54255   0.75135   0.00000  Uiso   1.00
C750   C     0.29059   0.49999   0.75008   0.00000  Uiso   1.00
Cl751  Cl    0.23302   0.56262   0.87645   0.00000  Uiso   1.00
Cl752  Cl    0.10031   0.43738   0.62355   0.00000  Uiso   1.00
Cu753  Cu    0.16667   0.54689   0.75000   0.00000  Uiso   1.00
Cu754  Cu    0.16667   0.45311   0.75000   0.00000  Uiso   1.00
H755   H     0.12347   0.44670   0.88735   0.00000  Uiso   1.00
H756   H     0.21592   0.62347   0.79595   0.00000  Uiso   1.00
H757   H     0.21584   0.37710   0.79608   0.00000  Uiso   1.00
H758   H     0.11749   0.62290   0.70392   0.00000  Uiso   1.00
H759   H     0.07523   0.38460   0.51704   0.00000  Uiso   1.00
H760   H     0.25810   0.61541   0.98295   0.00000  Uiso   1.00
H761   H     0.20987   0.55330   0.61265   0.00000  Uiso   1.00
H762   H     0.09793   0.41422   0.95385   0.00000  Uiso   1.00
H763   H     0.23540   0.58579   0.54615   0.00000  Uiso   1.00
H764   H     0.03735   0.42421   0.74734   0.00000  Uiso   1.00
H765   H     0.29598   0.57579   0.75265   0.00000  Uiso   1.00
H766   H     0.29608   0.42419   0.74754   0.00000  Uiso   1.00
H767   H     0.03725   0.57581   0.75246   0.00000  Uiso   1.00
H768   H     0.11741   0.37653   0.70405   0.00000  Uiso   1.00
N769   N     0.16667   0.61736   0.75000   0.00000  Uiso   1.00
N770   N     0.16667   0.38264   0.75000   0.00000  Uiso   1.00
O771   O     0.10655   0.53958   0.74999   0.00000  Uiso   1.00
O772   O     0.24367   0.59642   0.96008   0.00000  Uiso   1.00
O773   O     0.22679   0.46042   0.75000   0.00000  Uiso   1.00
O774   O     0.22679   0.53958   0.75000   0.00000  Uiso   1.00
O775   O     0.10655   0.46042   0.74999   0.00000  Uiso   1.00
O776   O     0.16666   0.53960   0.68513   0.00000  Uiso   1.00
O777   O     0.16668   0.46040   0.81487   0.00000  Uiso   1.00
O778   O     0.16668   0.53960   0.81487   0.00000  Uiso   1.00
O779   O     0.16666   0.46040   0.68513   0.00000  Uiso   1.00
O780   O     0.08966   0.40359   0.53992   0.00000  Uiso   1.00
C781   C     0.42069   0.50001   0.74994   0.00000  Uiso   1.00
C782   C     0.37607   0.50001   0.74992   0.00000  Uiso   1.00
C783   C     0.47268   0.35798   0.72446   0.00000  Uiso   1.00
C784   C     0.52732   0.64202   0.77554   0.00000  Uiso   1.00
C785   C     0.52731   0.35829   0.77557   0.00000  Uiso   1.00
C786   C     0.47269   0.64171   0.72443   0.00000  Uiso   1.00
C787   C     0.49877   0.49984   0.66444   0.00000  Uiso   1.00
C788   C     0.50123   0.50016   0.83556   0.00000  Uiso   1.00
C789   C     0.52933   0.53077   0.90731   0.00000  Uiso   1.00
C790   C     0.47067   0.46923   0.59269   0.00000  Uiso   1.00
C791   C     0.50267   0.50056   0.88384   0.00000  Uiso   1.00
C792   C     0.57931   0.49999   0.75006   0.00000  Uiso   1.00
C793   C     0.49733   0.49944   0.61616   0.00000  Uiso   1.00
C794   C     0.47677   0.47000   0.90614   0.00000  Uiso   1.00
C795   C     0.52323   0.53000   0.59386   0.00000  Uiso   1.00
C796   C     0.47590   0.46947   0.95211   0.00000  Uiso   1.00
C797   C     0.52410   0.53053   0.54789   0.00000  Uiso   1.00
C798   C     0.50097   0.50044   0.97663   0.00000  Uiso   1.00
C799   C     0.49903   0.49956   0.52337   0.00000  Uiso   1.00
C800   C     0.52793   0.53203   0.95443   0.00000  Uiso   1.00
C801   C     0.47207   0.46797   0.54557   0.00000  Uiso   1.00
C802   C     0.44994   0.43807   0.97350   0.00000  Uiso   1.00
C803   C     0.44782   0.43648   0.51986   0.00000  Uiso   1.00
C804   C     0.55006   0.56193   0.52650   0.00000  Uiso   1.00
C805   C     0.55218   0.56352   0.98014   0.00000  Uiso   1.00
C806   C     0.35465   0.45746   0.74854   0.00000  Uiso   1.00
C807   C     0.64535   0.54254   0.75146   0.00000  Uiso   1.00
C808   C     0.64541   0.45745   0.74865   0.00000  Uiso   1.00
C809   C     0.35459   0.54255   0.75135   0.00000  Uiso   1.00
C810   C     0.62393   0.49999   0.75008   0.00000  Uiso   1.00
Cl811  Cl    0.56636   0.56262   0.87645   0.00000  Uiso   1.00
Cl812  Cl    0.43364   0.43738   0.62355   0.00000  Uiso   1.00
Cu813  Cu    0.50000   0.54689   0.75000   0.00000  Uiso   1.00
Cu814  Cu    0.50000   0.45311   0.75000   0.00000  Uiso   1.00
H815   H     0.45680   0.44670   0.88735   0.00000  Uiso   1.00
H816   H     0.54925   0.62347   0.79595   0.00000  Uiso   1.00
H817   H     0.54917   0.37710   0.79608   0.00000  Uiso   1.00
H818   H     0.45083   0.62290   0.70392   0.00000  Uiso   1.00
H819   H     0.40856   0.38460   0.51704   0.00000  Uiso   1.00
H820   H     0.59143   0.61541   0.98295   0.00000  Uiso   1.00
H821   H     0.54320   0.55330   0.61265   0.00000  Uiso   1.00
H822   H     0.43126   0.41422   0.95385   0.00000  Uiso   1.00
H823   H     0.56874   0.58579   0.54615   0.00000  Uiso   1.00
H824   H     0.37068   0.42421   0.74734   0.00000  Uiso   1.00
H825   H     0.62932   0.57579   0.75265   0.00000  Uiso   1.00
H826   H     0.62941   0.42419   0.74754   0.00000  Uiso   1.00
H827   H     0.37059   0.57581   0.75246   0.00000  Uiso   1.00
H828   H     0.45075   0.37653   0.70405   0.00000  Uiso   1.00
N829   N     0.50000   0.61736   0.75000   0.00000  Uiso   1.00
N830   N     0.50000   0.38264   0.75000   0.00000  Uiso   1.00
O831   O     0.43988   0.53958   0.74999   0.00000  Uiso   1.00
O832   O     0.57700   0.59642   0.96008   0.00000  Uiso   1.00
O833   O     0.56012   0.46042   0.75000   0.00000  Uiso   1.00
O834   O     0.56012   0.53958   0.75000   0.00000  Uiso   1.00
O835   O     0.43988   0.46042   0.74999   0.00000  Uiso   1.00
O836   O     0.49999   0.53960   0.68513   0.00000  Uiso   1.00
O837   O     0.50001   0.46040   0.81487   0.00000  Uiso   1.00
O838   O     0.50001   0.53960   0.81487   0.00000  Uiso   1.00
O839   O     0.49999   0.46040   0.68513   0.00000  Uiso   1.00
O840   O     0.42299   0.40359   0.53992   0.00000  Uiso   1.00
C841   C     0.75402   0.50001   0.74994   0.00000  Uiso   1.00
C842   C     0.70941   0.50001   0.74992   0.00000  Uiso   1.00
C843   C     0.80601   0.35798   0.72446   0.00000  Uiso   1.00
C844   C     0.86066   0.64202   0.77554   0.00000  Uiso   1.00
C845   C     0.86064   0.35829   0.77557   0.00000  Uiso   1.00
C846   C     0.80603   0.64171   0.72443   0.00000  Uiso   1.00
C847   C     0.83211   0.49984   0.66444   0.00000  Uiso   1.00
C848   C     0.83456   0.50016   0.83556   0.00000  Uiso   1.00
C849   C     0.86267   0.53077   0.90731   0.00000  Uiso   1.00
C850   C     0.80400   0.46923   0.59269   0.00000  Uiso   1.00
C851   C     0.83600   0.50056   0.88384   0.00000  Uiso   1.00
C852   C     0.91265   0.49999   0.75006   0.00000  Uiso   1.00
C853   C     0.83067   0.49944   0.61616   0.00000  Uiso   1.00
C854   C     0.81011   0.47000   0.90614   0.00000  Uiso   1.00
C855   C     0.85656   0.53000   0.59386   0.00000  Uiso   1.00
C856   C     0.80924   0.46947   0.95211   0.00000  Uiso   1.00
C857   C     0.85743   0.53053   0.54789   0.00000  Uiso   1.00
C858   C     0.83430   0.50044   0.97663   0.00000  Uiso   1.00
C859   C     0.83237   0.49956   0.52337   0.00000  Uiso   1.00
C860   C     0.86126   0.53203   0.95443   0.00000  Uiso   1.00
C861   C     0.80541   0.46797   0.54557   0.00000  Uiso   1.00
C862   C     0.78327   0.43807   0.97350   0.00000  Uiso   1.00
C863   C     0.78115   0.43648   0.51986   0.00000  Uiso   1.00
C864   C     0.88339   0.56193   0.52650   0.00000  Uiso   1.00
C865   C     0.88551   0.56352   0.98014   0.00000  Uiso   1.00
C866   C     0.68798   0.45746   0.74854   0.00000  Uiso   1.00
C867   C     0.97869   0.54254   0.75146   0.00000  Uiso   1.00
C868   C     0.97874   0.45745   0.74865   0.00000  Uiso   1.00
C869   C     0.68793   0.54255   0.75135   0.00000  Uiso   1.00
C870   C     0.95726   0.49999   0.75008   0.00000  Uiso   1.00
Cl871  Cl    0.89969   0.56262   0.87645   0.00000  Uiso   1.00
Cl872  Cl    0.76698   0.43738   0.62355   0.00000  Uiso   1.00
Cu873  Cu    0.83333   0.54689   0.75000   0.00000  Uiso   1.00
Cu874  Cu    0.83333   0.45311   0.75000   0.00000  Uiso   1.00
H875   H     0.79013   0.44670   0.88735   0.00000  Uiso   1.00
H876   H     0.88259   0.62347   0.79595   0.00000  Uiso   1.00
H877   H     0.88251   0.37710   0.79608   0.00000  Uiso   1.00
H878   H     0.78416   0.62290   0.70392   0.00000  Uiso   1.00
H879   H     0.74190   0.38460   0.51704   0.00000  Uiso   1.00
H880   H     0.92476   0.61541   0.98295   0.00000  Uiso   1.00
H881   H     0.87653   0.55330   0.61265   0.00000  Uiso   1.00
H882   H     0.76459   0.41422   0.95385   0.00000  Uiso   1.00
H883   H     0.90207   0.58579   0.54615   0.00000  Uiso   1.00
H884   H     0.70402   0.42421   0.74734   0.00000  Uiso   1.00
H885   H     0.96265   0.57579   0.75265   0.00000  Uiso   1.00
H886   H     0.96275   0.42419   0.74754   0.00000  Uiso   1.00
H887   H     0.70392   0.57581   0.75246   0.00000  Uiso   1.00
H888   H     0.78408   0.37653   0.70405   0.00000  Uiso   1.00
N889   N     0.83333   0.61736   0.75000   0.00000  Uiso   1.00
N890   N     0.83333   0.38264   0.75000   0.00000  Uiso   1.00
O891   O     0.77321   0.53958   0.74999   0.00000  Uiso   1.00
O892   O     0.91034   0.59642   0.96008   0.00000  Uiso   1.00
O893   O     0.89345   0.46042   0.75000   0.00000  Uiso   1.00
O894   O     0.89345   0.53958   0.75000   0.00000  Uiso   1.00
O895   O     0.77321   0.46042   0.74999   0.00000  Uiso   1.00
O896   O     0.83332   0.53960   0.68513   0.00000  Uiso   1.00
O897   O     0.83334   0.46040   0.81487   0.00000  Uiso   1.00
O898   O     0.83334   0.53960   0.81487   0.00000  Uiso   1.00
O899   O     0.83332   0.46040   0.68513   0.00000  Uiso   1.00
O900   O     0.75633   0.40359   0.53992   0.00000  Uiso   1.00
C901   C     0.08735   0.83334   0.74994   0.00000  Uiso   1.00
C902   C     0.04274   0.83334   0.74992   0.00000  Uiso   1.00
C903   C     0.13934   0.69131   0.72446   0.00000  Uiso   1.00
C904   C     0.19399   0.97535   0.77554   0.00000  Uiso   1.00
C905   C     0.19398   0.69162   0.77557   0.00000  Uiso   1.00
C906   C     0.13936   0.97504   0.72443   0.00000  Uiso   1.00
C907   C     0.16544   0.83317   0.66444   0.00000  Uiso   1.00
C908   C     0.16789   0.83350   0.83556   0.00000  Uiso   1.00
C909   C     0.19600   0.86410   0.90731   0.00000  Uiso   1.00
C910   C     0.13733   0.80256   0.59269   0.00000  Uiso   1.00
C911   C     0.16933   0.83390   0.88384   0.00000  Uiso   1.00
C912   C     0.24598   0.83333   0.75006   0.00000  Uiso   1.00
C913   C     0.16400   0.83277   0.61616   0.00000  Uiso   1.00
C914   C     0.14344   0.80333   0.90614   0.00000  Uiso   1.00
C915   C     0.18989   0.86334   0.59386   0.00000  Uiso   1.00
C916   C     0.14257   0.80280   0.95211   0.00000  Uiso   1.00
C917   C     0.19076   0.86387   0.54789   0.00000  Uiso   1.00
C918   C     0.16763   0.83377   0.97663   0.00000  Uiso   1.00
C919   C     0.16570   0.83289   0.52337   0.00000  Uiso   1.00
C920   C     0.19459   0.86537   0.95443   0.00000  Uiso   1.00
C921   C     0.13874   0.80130   0.54557   0.00000  Uiso   1.00
C922   C     0.11661   0.77140   0.97350   0.00000  Uiso   1.00
C923   C     0.11449   0.76981   0.51986   0.00000  Uiso   1.00
C924   C     0.21673   0.89526   0.52650   0.00000  Uiso   1.00
C925   C     0.21884   0.89686   0.98014   0.00000  Uiso   1.00
C926   C     0.02131   0.79080   0.74854   0.00000  Uiso   1.00
C927   C     0.31202   0.87587   0.75146   0.00000  Uiso   1.00
C928   C     0.31207   0.79078   0.74865   0.00000  Uiso   1.00
C929   C     0.02126   0.87588   0.75135   0.00000  Uiso   1.00
C930   C     0.29059   0.83332   0.75008   0.00000  Uiso   1.00
Cl931  Cl    0.23302   0.89596   0.87645   0.00000  Uiso   1.00
Cl932  Cl    0.10031   0.77071   0.62355   0.00000  Uiso   1.00
Cu933  Cu    0.16667   0.88022   0.75000   0.00000  Uiso   1.00
Cu934  Cu    0.16667   0.78645   0.75000   0.00000  Uiso   1.00
H935   H     0.12347   0.78003   0.88735   0.00000  Uiso   1.00
H936   H     0.21592   0.95681   0.79595   0.00000  Uiso   1.00
H937   H     0.21584   0.71043   0.79608   0.00000  Uiso   1.00
H938   H     0.11749   0.95623   0.70392   0.00000  Uiso   1.00
H939   H     0.07523   0.71793   0.51704   0.00000  Uiso   1.00
H940   H     0.25810   0.94874   0.98295   0.00000  Uiso   1.00
H941   H     0.20987   0.88664   0.61265   0.00000  Uiso   1.00
H942   H     0.09793   0.74755   0.95385   0.00000  Uiso   1.00
H943   H     0.23540   0.91912   0.54615   0.00000  Uiso   1.00
H944   H     0.03735   0.75754   0.74734   0.00000  Uiso   1.00
H945   H     0.29598   0.90913   0.75265   0.00000  Uiso   1.00
H946   H     0.29608   0.75752   0.74754   0.00000  Uiso   1.00
H947   H     0.03725   0.90915   0.75246   0.00000  Uiso   1.00
H948   H     0.11741   0.70986   0.70405   0.00000  Uiso   1.00
N949   N     0.16667   0.95069   0.75000   0.00000  Uiso   1.00
N950   N     0.16667   0.71598   0.75000   0.00000  Uiso   1.00
O951   O     0.10655   0.87291   0.74999   0.00000  Uiso   1.00
O952   O     0.24367   0.92975   0.96008   0.00000  Uiso   1.00
O953   O     0.22679   0.79375   0.75000   0.00000  Uiso   1.00
O954   O     0.22679   0.87291   0.75000   0.00000  Uiso   1.00
O955   O     0.10655   0.79375   0.74999   0.00000  Uiso   1.00
O956   O     0.16666   0.87293   0.68513   0.00000  Uiso   1.00
O957   O     0.16668   0.79373   0.81487   0.00000  Uiso   1.00
O958   O     0.16668   0.87293   0.81487   0.00000  Uiso   1.00
O959   O     0.16666   0.79373   0.68513   0.00000  Uiso   1.00
O960   O     0.08966   0.73692   0.53992   0.00000  Uiso   1.00
C961   C     0.42069   0.83334   0.74994   0.00000  Uiso   1.00
C962   C     0.37607   0.83334   0.74992   0.00000  Uiso   1.00
C963   C     0.47268   0.69131   0.72446   0.00000  Uiso   1.00
C964   C     0.52732   0.97535   0.77554   0.00000  Uiso   1.00
C965   C     0.52731   0.69162   0.77557   0.00000  Uiso   1.00
C966   C     0.47269   0.97504   0.72443   0.00000  Uiso   1.00
C967   C     0.49877   0.83317   0.66444   0.00000  Uiso   1.00
C968   C     0.50123   0.83350   0.83556   0.00000  Uiso   1.00
C969   C     0.52933   0.86410   0.90731   0.00000  Uiso   1.00
C970   C     0.47067   0.80256   0.59269   0.00000  Uiso   1.00
C971   C     0.50267   0.83390   0.88384   0.00000  Uiso   1.00
C972   C     0.57931   0.83333   0.75006   0.00000  Uiso   1.00
C973   C     0.49733   0.83277   0.61616   0.00000  Uiso   1.00
C974   C     0.47677   0.80333   0.90614   0.00000  Uiso   1.00
C975   C     0.52323   0.86334   0.59386   0.00000  Uiso   1.00
C976   C     0.47590   0.80280   0.95211   0.00000  Uiso   1.00
C977   C     0.52410   0.86387   0.54789   0.00000  Uiso   1.00
C978   C     0.50097   0.83377   0.97663   0.00000  Uiso   1.00
C979   C     0.49903   0.83289   0.52337   0.00000  Uiso   1.00
C980   C     0.52793   0.86537   0.95443   0.00000  Uiso   1.00
C981   C     0.47207   0.80130   0.54557   0.00000  Uiso   1.00
C982   C     0.44994   0.77140   0.97350   0.00000  Uiso   1.00
C983   C     0.44782   0.76981   0.51986   0.00000  Uiso   1.00
C984   C     0.55006   0.89526   0.52650   0.00000  Uiso   1.00
C985   C     0.55218   0.89686   0.98014   0.00000  Uiso   1.00
C986   C     0.35465   0.79080   0.74854   0.00000  Uiso   1.00
C987   C     0.64535   0.87587   0.75146   0.00000  Uiso   1.00
C988   C     0.64541   0.79078   0.74865   0.00000  Uiso   1.00
C989   C     0.35459   0.87588   0.75135   0.00000  Uiso   1.00
C990   C     0.62393   0.83332   0.75008   0.00000  Uiso   1.00
Cl991  Cl    0.56636   0.89596   0.87645   0.00000  Uiso   1.00
Cl992  Cl    0.43364   0.77071   0.62355   0.00000  Uiso   1.00
Cu993  Cu    0.50000   0.88022   0.75000   0.00000  Uiso   1.00
Cu994  Cu    0.50000   0.78645   0.75000   0.00000  Uiso   1.00
H995   H     0.45680   0.78003   0.88735   0.00000  Uiso   1.00
H996   H     0.54925   0.95681   0.79595   0.00000  Uiso   1.00
H997   H     0.54917   0.71043   0.79608   0.00000  Uiso   1.00
H998   H     0.45083   0.95623   0.70392   0.00000  Uiso   1.00
H999   H     0.40856   0.71793   0.51704   0.00000  Uiso   1.00
H1000  H     0.59143   0.94874   0.98295   0.00000  Uiso   1.00
H1001  H     0.54320   0.88664   0.61265   0.00000  Uiso   1.00
H1002  H     0.43126   0.74755   0.95385   0.00000  Uiso   1.00
H1003  H     0.56874   0.91912   0.54615   0.00000  Uiso   1.00
H1004  H     0.37068   0.75754   0.74734   0.00000  Uiso   1.00
H1005  H     0.62932   0.90913   0.75265   0.00000  Uiso   1.00
H1006  H     0.62941   0.75752   0.74754   0.00000  Uiso   1.00
H1007  H     0.37059   0.90915   0.75246   0.00000  Uiso   1.00
H1008  H     0.45075   0.70986   0.70405   0.00000  Uiso   1.00
N1009  N     0.50000   0.95069   0.75000   0.00000  Uiso   1.00
N1010  N     0.50000   0.71598   0.75000   0.00000  Uiso   1.00
O1011  O     0.43988   0.87291   0.74999   0.00000  Uiso   1.00
O1012  O     0.57700   0.92975   0.96008   0.00000  Uiso   1.00
O1013  O     0.56012   0.79375   0.75000   0.00000  Uiso   1.00
O1014  O     0.56012   0.87291   0.75000   0.00000  Uiso   1.00
O1015  O     0.43988   0.79375   0.74999   0.00000  Uiso   1.00
O1016  O     0.49999   0.87293   0.68513   0.00000  Uiso   1.00
O1017  O     0.50001   0.79373   0.81487   0.00000  Uiso   1.00
O1018  O     0.50001   0.87293   0.81487   0.00000  Uiso   1.00
O1019  O     0.49999   0.79373   0.68513   0.00000  Uiso   1.00
O1020  O     0.42299   0.73692   0.53992   0.00000  Uiso   1.00
C1021  C     0.75402   0.83334   0.74994   0.00000  Uiso   1.00
C1022  C     0.70941   0.83334   0.74992   0.00000  Uiso   1.00
C1023  C     0.80601   0.69131   0.72446   0.00000  Uiso   1.00
C1024  C     0.86066   0.97535   0.77554   0.00000  Uiso   1.00
C1025  C     0.86064   0.69162   0.77557   0.00000  Uiso   1.00
C1026  C     0.80603   0.97504   0.72443   0.00000  Uiso   1.00
C1027  C     0.83211   0.83317   0.66444   0.00000  Uiso   1.00
C1028  C     0.83456   0.83350   0.83556   0.00000  Uiso   1.00
C1029  C     0.86267   0.86410   0.90731   0.00000  Uiso   1.00
C1030  C     0.80400   0.80256   0.59269   0.00000  Uiso   1.00
C1031  C     0.83600   0.83390   0.88384   0.00000  Uiso   1.00
C1032  C     0.91265   0.83333   0.75006   0.00000  Uiso   1.00
C1033  C     0.83067   0.83277   0.61616   0.00000  Uiso   1.00
C1034  C     0.81011   0.80333   0.90614   0.00000  Uiso   1.00
C1035  C     0.85656   0.86334   0.59386   0.00000  Uiso   1.00
C1036  C     0.80924   0.80280   0.95211   0.00000  Uiso   1.00
C1037  C     0.85743   0.86387   0.54789   0.00000  Uiso   1.00
C1038  C     0.83430   0.83377   0.97663   0.00000  Uiso   1.00
C1039  C     0.83237   0.83289   0.52337   0.00000  Uiso   1.00
C1040  C     0.86126   0.86537   0.95443   0.00000  Uiso   1.00
C1041  C     0.80541   0.80130   0.54557   0.00000  Uiso   1.00
C1042  C     0.78327   0.77140   0.97350   0.00000  Uiso   1.00
C1043  C     0.78115   0.76981   0.51986   0.00000  Uiso   1.00
C1044  C     0.88339   0.89526   0.52650   0.00000  Uiso   1.00
C1045  C     0.88551   0.89686   0.98014   0.00000  Uiso   1.00
C1046  C     0.68798   0.79080   0.74854   0.00000  Uiso   1.00
C1047  C     0.97869   0.87587   0.75146   0.00000  Uiso   1.00
C1048  C     0.97874   0.79078   0.74865   0.00000  Uiso   1.00
C1049  C     0.68793   0.87588   0.75135   0.00000  Uiso   1.00
C1050  C     0.95726   0.83332   0.75008   0.00000  Uiso   1.00
Cl1051 Cl    0.89969   0.89596   0.87645   0.00000  Uiso   1.00
Cl1052 Cl    0.76698   0.77071   0.62355   0.00000  Uiso   1.00
Cu1053 Cu    0.83333   0.88022   0.75000   0.00000  Uiso   1.00
Cu1054 Cu    0.83333   0.78645   0.75000   0.00000  Uiso   1.00
H1055  H     0.79013   0.78003   0.88735   0.00000  Uiso   1.00
H1056  H     0.88259   0.95681   0.79595   0.00000  Uiso   1.00
H1057  H     0.88251   0.71043   0.79608   0.00000  Uiso   1.00
H1058  H     0.78416   0.95623   0.70392   0.00000  Uiso   1.00
H1059  H     0.74190   0.71793   0.51704   0.00000  Uiso   1.00
H1060  H     0.92476   0.94874   0.98295   0.00000  Uiso   1.00
H1061  H     0.87653   0.88664   0.61265   0.00000  Uiso   1.00
H1062  H     0.76459   0.74755   0.95385   0.00000  Uiso   1.00
H1063  H     0.90207   0.91912   0.54615   0.00000  Uiso   1.00
H1064  H     0.70402   0.75754   0.74734   0.00000  Uiso   1.00
H1065  H     0.96265   0.90913   0.75265   0.00000  Uiso   1.00
H1066  H     0.96275   0.75752   0.74754   0.00000  Uiso   1.00
H1067  H     0.70392   0.90915   0.75246   0.00000  Uiso   1.00
H1068  H     0.78408   0.70986   0.70405   0.00000  Uiso   1.00
N1069  N     0.83333   0.95069   0.75000   0.00000  Uiso   1.00
N1070  N     0.83333   0.71598   0.75000   0.00000  Uiso   1.00
O1071  O     0.77321   0.87291   0.74999   0.00000  Uiso   1.00
O1072  O     0.91034   0.92975   0.96008   0.00000  Uiso   1.00
O1073  O     0.89345   0.79375   0.75000   0.00000  Uiso   1.00
O1074  O     0.89345   0.87291   0.75000   0.00000  Uiso   1.00
O1075  O     0.77321   0.79375   0.74999   0.00000  Uiso   1.00
O1076  O     0.83332   0.87293   0.68513   0.00000  Uiso   1.00
O1077  O     0.83334   0.79373   0.81487   0.00000  Uiso   1.00
O1078  O     0.83334   0.87293   0.81487   0.00000  Uiso   1.00
O1079  O     0.83332   0.79373   0.68513   0.00000  Uiso   1.00
O1080  O     0.75633   0.73692   0.53992   0.00000  Uiso   1.00
loop_
_geom_bond_atom_site_label_1
_geom_bond_atom_site_label_2
_geom_bond_distance
_geom_bond_site_symmetry_2
_ccdc_geom_bond_type
C1     O55     1.291   .     A
C1     O51     1.291   .     A
C1     C2      1.450   .     S
C2     C26     1.401   .     A
C2     C29     1.401   .     A
C3     N50     1.367   .     A
C3     H48     1.081   .     S
C3     C366    1.416   1_545 S
C4     N49     1.367   .     A
C4     H36     1.081   .     S
C4     C185    1.416   .     S
C5     H37     1.082   .     S
C5     N50     1.367   .     A
C5     C364    1.416   1_545 S
C6     H38     1.082   .     S
C6     N49     1.367   .     A
C6     C183    1.416   .     S
C7     O56     1.292   .     A
C7     O59     1.291   .     A
C7     C13     1.456   .     S
C8     O57     1.292   .     A
C8     C11     1.456   .     S
C8     O58     1.291   .     A
C9     C11     1.409   .     A
C9     C20     1.421   .     A
C9     Cl31    1.777   .     S
C10    C21     1.421   .     A
C10    Cl32    1.777   .     S
C10    C13     1.409   .     A
C11    C14     1.390   .     A
C12    O53     1.291   .     A
C12    C30     1.450   .     S
C12    O54     1.291   .     A
C13    C15     1.390   .     A
C14    C16     1.386   .     A
C14    H35     1.086   .     S
C15    H41     1.086   .     S
C15    C17     1.386   .     A
C16    C18     1.408   .     A
C16    C22     1.393   .     A
C17    C19     1.408   .     A
C17    C24     1.393   .     A
C18    C20     1.428   .     A
C18    C559    1.411   .     S
C19    C21     1.428   .     A
C19    C558    1.411   1_554 S
C20    C25     1.421   .     A
C21    C23     1.421   .     A
C22    H42     1.085   .     S
C22    C563    1.400   .     S
C23    O60     1.382   .     S
C23    C562    1.400   1_554 S
C24    H43     1.085   .     S
C24    C565    1.400   1_554 S
C25    O52     1.382   .     S
C25    C564    1.400   .     S
C26    H44     1.083   .     S
C26    C148    1.383   1_455 S
C27    H45     1.083   .     S
C27    C30     1.401   .     A
C27    C89     1.383   .     S
C28    C30     1.401   .     A
C28    H46     1.083   .     S
C28    C86     1.383   .     S
C29    H47     1.083   .     S
C29    C147    1.383   1_455 S
Cu33   O58     1.968   .     S
Cu33   O51     1.965   .     S
Cu33   O56     1.965   .     S
Cu33   Cu34    2.678   .     S
Cu33   N49     2.012   .     S
Cu33   O54     1.965   .     S
Cu34   O57     1.965   .     S
Cu34   O55     1.965   .     S
Cu34   O59     1.968   .     S
Cu34   N50     2.012   .     S
Cu34   O53     1.965   .     S
H39    O60     0.992   .     S
H40    O52     0.992   .     S
C61    O115    1.291   .     A
C61    O111    1.291   .     A
C61    C62     1.450   .     S
C62    C86     1.401   .     A
C62    C89     1.401   .     A
C63    N110    1.367   .     A
C63    H108    1.081   .     S
C63    C426    1.416   1_545 S
C64    N109    1.367   .     A
C64    H96     1.081   .     S
C64    C245    1.416   .     S
C65    H97     1.082   .     S
C65    N110    1.367   .     A
C65    C424    1.416   1_545 S
C66    H98     1.082   .     S
C66    N109    1.367   .     A
C66    C243    1.416   .     S
C67    O116    1.292   .     A
C67    O119    1.291   .     A
C67    C73     1.456   .     S
C68    O117    1.292   .     A
C68    C71     1.456   .     S
C68    O118    1.291   .     A
C69    C71     1.409   .     A
C69    C80     1.421   .     A
C69    Cl91    1.777   .     S
C70    C81     1.421   .     A
C70    Cl92    1.777   .     S
C70    C73     1.409   .     A
C71    C74     1.390   .     A
C72    O113    1.291   .     A
C72    C90     1.450   .     S
C72    O114    1.291   .     A
C73    C75     1.390   .     A
C74    C76     1.386   .     A
C74    H95     1.086   .     S
C75    H101    1.086   .     S
C75    C77     1.386   .     A
C76    C78     1.408   .     A
C76    C82     1.393   .     A
C77    C79     1.408   .     A
C77    C84     1.393   .     A
C78    C80     1.428   .     A
C78    C619    1.411   .     S
C79    C81     1.428   .     A
C79    C618    1.411   1_554 S
C80    C85     1.421   .     A
C81    C83     1.421   .     A
C82    H102    1.085   .     S
C82    C623    1.400   .     S
C83    O120    1.382   .     S
C83    C622    1.400   1_554 S
C84    H103    1.085   .     S
C84    C625    1.400   1_554 S
C85    O112    1.382   .     S
C85    C624    1.400   .     S
C86    H104    1.083   .     S
C87    H105    1.083   .     S
C87    C90     1.401   .     A
C87    C149    1.383   .     S
C88    C90     1.401   .     A
C88    H106    1.083   .     S
C88    C146    1.383   .     S
C89    H107    1.083   .     S
Cu93   O118    1.968   .     S
Cu93   O111    1.965   .     S
Cu93   O116    1.965   .     S
Cu93   Cu94    2.678   .     S
Cu93   N109    2.012   .     S
Cu93   O114    1.965   .     S
Cu94   O117    1.965   .     S
Cu94   O115    1.965   .     S
Cu94   O119    1.968   .     S
Cu94   N110    2.012   .     S
Cu94   O113    1.965   .     S
H99    O120    0.992   .     S
H100   O112    0.992   .     S
C121   O175    1.291   .     A
C121   O171    1.291   .     A
C121   C122    1.450   .     S
C122   C146    1.401   .     A
C122   C149    1.401   .     A
C123   N170    1.367   .     A
C123   H168    1.081   .     S
C123   C486    1.416   1_545 S
C124   N169    1.367   .     A
C124   H156    1.081   .     S
C124   C305    1.416   .     S
C125   H157    1.082   .     S
C125   N170    1.367   .     A
C125   C484    1.416   1_545 S
C126   H158    1.082   .     S
C126   N169    1.367   .     A
C126   C303    1.416   .     S
C127   O176    1.292   .     A
C127   O179    1.291   .     A
C127   C133    1.456   .     S
C128   O177    1.292   .     A
C128   C131    1.456   .     S
C128   O178    1.291   .     A
C129   C131    1.409   .     A
C129   C140    1.421   .     A
C129   Cl151   1.777   .     S
C130   C141    1.421   .     A
C130   Cl152   1.777   .     S
C130   C133    1.409   .     A
C131   C134    1.390   .     A
C132   O173    1.291   .     A
C132   C150    1.450   .     S
C132   O174    1.291   .     A
C133   C135    1.390   .     A
C134   C136    1.386   .     A
C134   H155    1.086   .     S
C135   H161    1.086   .     S
C135   C137    1.386   .     A
C136   C138    1.408   .     A
C136   C142    1.393   .     A
C137   C139    1.408   .     A
C137   C144    1.393   .     A
C138   C140    1.428   .     A
C138   C679    1.411   .     S
C139   C141    1.428   .     A
C139   C678    1.411   1_554 S
C140   C145    1.421   .     A
C141   C143    1.421   .     A
C142   H162    1.085   .     S
C142   C683    1.400   .     S
C143   O180    1.382   .     S
C143   C682    1.400   1_554 S
C144   H163    1.085   .     S
C144   C685    1.400   1_554 S
C145   O172    1.382   .     S
C145   C684    1.400   .     S
C146   H164    1.083   .     S
C147   H165    1.083   .     S
C147   C150    1.401   .     A
C147   C29     1.383   1_655 S
C148   C150    1.401   .     A
C148   H166    1.083   .     S
C148   C26     1.383   1_655 S
C149   H167    1.083   .     S
Cu153  O178    1.968   .     S
Cu153  O171    1.965   .     S
Cu153  O176    1.965   .     S
Cu153  Cu154   2.678   .     S
Cu153  N169    2.012   .     S
Cu153  O174    1.965   .     S
Cu154  O177    1.965   .     S
Cu154  O175    1.965   .     S
Cu154  O179    1.968   .     S
Cu154  N170    2.012   .     S
Cu154  O173    1.965   .     S
H159   O180    0.992   .     S
H160   O172    0.992   .     S
C181   O235    1.291   .     A
C181   O231    1.291   .     A
C181   C182    1.450   .     S
C182   C206    1.401   .     A
C182   C209    1.401   .     A
C183   N230    1.367   .     A
C183   H228    1.081   .     S
C184   N229    1.367   .     A
C184   H216    1.081   .     S
C184   C365    1.416   .     S
C185   H217    1.082   .     S
C185   N230    1.367   .     A
C186   H218    1.082   .     S
C186   N229    1.367   .     A
C186   C363    1.416   .     S
C187   O236    1.292   .     A
C187   O239    1.291   .     A
C187   C193    1.456   .     S
C188   O237    1.292   .     A
C188   C191    1.456   .     S
C188   O238    1.291   .     A
C189   C191    1.409   .     A
C189   C200    1.421   .     A
C189   Cl211   1.777   .     S
C190   C201    1.421   .     A
C190   Cl212   1.777   .     S
C190   C193    1.409   .     A
C191   C194    1.390   .     A
C192   O233    1.291   .     A
C192   C210    1.450   .     S
C192   O234    1.291   .     A
C193   C195    1.390   .     A
C194   C196    1.386   .     A
C194   H215    1.086   .     S
C195   H221    1.086   .     S
C195   C197    1.386   .     A
C196   C198    1.408   .     A
C196   C202    1.393   .     A
C197   C199    1.408   .     A
C197   C204    1.393   .     A
C198   C200    1.428   .     A
C198   C739    1.411   .     S
C199   C201    1.428   .     A
C199   C738    1.411   1_554 S
C200   C205    1.421   .     A
C201   C203    1.421   .     A
C202   H222    1.085   .     S
C202   C743    1.400   .     S
C203   O240    1.382   .     S
C203   C742    1.400   1_554 S
C204   H223    1.085   .     S
C204   C745    1.400   1_554 S
C205   O232    1.382   .     S
C205   C744    1.400   .     S
C206   H224    1.083   .     S
C206   C328    1.383   1_455 S
C207   H225    1.083   .     S
C207   C210    1.401   .     A
C207   C269    1.383   .     S
C208   C210    1.401   .     A
C208   H226    1.083   .     S
C208   C266    1.383   .     S
C209   H227    1.083   .     S
C209   C327    1.383   1_455 S
Cu213  O238    1.968   .     S
Cu213  O231    1.965   .     S
Cu213  O236    1.965   .     S
Cu213  Cu214   2.678   .     S
Cu213  N229    2.012   .     S
Cu213  O234    1.965   .     S
Cu214  O237    1.965   .     S
Cu214  O235    1.965   .     S
Cu214  O239    1.968   .     S
Cu214  N230    2.012   .     S
Cu214  O233    1.965   .     S
H219   O240    0.992   .     S
H220   O232    0.992   .     S
C241   O295    1.291   .     A
C241   O291    1.291   .     A
C241   C242    1.450   .     S
C242   C266    1.401   .     A
C242   C269    1.401   .     A
C243   N290    1.367   .     A
C243   H288    1.081   .     S
C244   N289    1.367   .     A
C244   H276    1.081   .     S
C244   C425    1.416   .     S
C245   H277    1.082   .     S
C245   N290    1.367   .     A
C246   H278    1.082   .     S
C246   N289    1.367   .     A
C246   C423    1.416   .     S
C247   O296    1.292   .     A
C247   O299    1.291   .     A
C247   C253    1.456   .     S
C248   O297    1.292   .     A
C248   C251    1.456   .     S
C248   O298    1.291   .     A
C249   C251    1.409   .     A
C249   C260    1.421   .     A
C249   Cl271   1.777   .     S
C250   C261    1.421   .     A
C250   Cl272   1.777   .     S
C250   C253    1.409   .     A
C251   C254    1.390   .     A
C252   O293    1.291   .     A
C252   C270    1.450   .     S
C252   O294    1.291   .     A
C253   C255    1.390   .     A
C254   C256    1.386   .     A
C254   H275    1.086   .     S
C255   H281    1.086   .     S
C255   C257    1.386   .     A
C256   C258    1.408   .     A
C256   C262    1.393   .     A
C257   C259    1.408   .     A
C257   C264    1.393   .     A
C258   C260    1.428   .     A
C258   C799    1.411   .     S
C259   C261    1.428   .     A
C259   C798    1.411   1_554 S
C260   C265    1.421   .     A
C261   C263    1.421   .     A
C262   H282    1.085   .     S
C262   C803    1.400   .     S
C263   O300    1.382   .     S
C263   C802    1.400   1_554 S
C264   H283    1.085   .     S
C264   C805    1.400   1_554 S
C265   O292    1.382   .     S
C265   C804    1.400   .     S
C266   H284    1.083   .     S
C267   H285    1.083   .     S
C267   C270    1.401   .     A
C267   C329    1.383   .     S
C268   C270    1.401   .     A
C268   H286    1.083   .     S
C268   C326    1.383   .     S
C269   H287    1.083   .     S
Cu273  O298    1.968   .     S
Cu273  O291    1.965   .     S
Cu273  O296    1.965   .     S
Cu273  Cu274   2.678   .     S
Cu273  N289    2.012   .     S
Cu273  O294    1.965   .     S
Cu274  O297    1.965   .     S
Cu274  O295    1.965   .     S
Cu274  O299    1.968   .     S
Cu274  N290    2.012   .     S
Cu274  O293    1.965   .     S
H279   O300    0.992   .     S
H280   O292    0.992   .     S
C301   O355    1.291   .     A
C301   O351    1.291   .     A
C301   C302    1.450   .     S
C302   C326    1.401   .     A
C302   C329    1.401   .     A
C303   N350    1.367   .     A
C303   H348    1.081   .     S
C304   N349    1.367   .     A
C304   H336    1.081   .     S
C304   C485    1.416   .     S
C305   H337    1.082   .     S
C305   N350    1.367   .     A
C306   H338    1.082   .     S
C306   N349    1.367   .     A
C306   C483    1.416   .     S
C307   O356    1.292   .     A
C307   O359    1.291   .     A
C307   C313    1.456   .     S
C308   O357    1.292   .     A
C308   C311    1.456   .     S
C308   O358    1.291   .     A
C309   C311    1.409   .     A
C309   C320    1.421   .     A
C309   Cl331   1.777   .     S
C310   C321    1.421   .     A
C310   Cl332   1.777   .     S
C310   C313    1.409   .     A
C311   C314    1.390   .     A
C312   O353    1.291   .     A
C312   C330    1.450   .     S
C312   O354    1.291   .     A
C313   C315    1.390   .     A
C314   C316    1.386   .     A
C314   H335    1.086   .     S
C315   H341    1.086   .     S
C315   C317    1.386   .     A
C316   C318    1.408   .     A
C316   C322    1.393   .     A
C317   C319    1.408   .     A
C317   C324    1.393   .     A
C318   C320    1.428   .     A
C318   C859    1.411   .     S
C319   C321    1.428   .     A
C319   C858    1.411   1_554 S
C320   C325    1.421   .     A
C321   C323    1.421   .     A
C322   H342    1.085   .     S
C322   C863    1.400   .     S
C323   O360    1.382   .     S
C323   C862    1.400   1_554 S
C324   H343    1.085   .     S
C324   C865    1.400   1_554 S
C325   O352    1.382   .     S
C325   C864    1.400   .     S
C326   H344    1.083   .     S
C327   H345    1.083   .     S
C327   C330    1.401   .     A
C327   C209    1.383   1_655 S
C328   C330    1.401   .     A
C328   H346    1.083   .     S
C328   C206    1.383   1_655 S
C329   H347    1.083   .     S
Cu333  O358    1.968   .     S
Cu333  O351    1.965   .     S
Cu333  O356    1.965   .     S
Cu333  Cu334   2.678   .     S
Cu333  N349    2.012   .     S
Cu333  O354    1.965   .     S
Cu334  O357    1.965   .     S
Cu334  O355    1.965   .     S
Cu334  O359    1.968   .     S
Cu334  N350    2.012   .     S
Cu334  O353    1.965   .     S
H339   O360    0.992   .     S
H340   O352    0.992   .     S
C361   O415    1.291   .     A
C361   O411    1.291   .     A
C361   C362    1.450   .     S
C362   C386    1.401   .     A
C362   C389    1.401   .     A
C363   N410    1.367   .     A
C363   H408    1.081   .     S
C364   N409    1.367   .     A
C364   H396    1.081   .     S
C364   C5      1.416   1_565 S
C365   H397    1.082   .     S
C365   N410    1.367   .     A
C366   H398    1.082   .     S
C366   N409    1.367   .     A
C366   C3      1.416   1_565 S
C367   O416    1.292   .     A
C367   O419    1.291   .     A
C367   C373    1.456   .     S
C368   O417    1.292   .     A
C368   C371    1.456   .     S
C368   O418    1.291   .     A
C369   C371    1.409   .     A
C369   C380    1.421   .     A
C369   Cl391   1.777   .     S
C370   C381    1.421   .     A
C370   Cl392   1.777   .     S
C370   C373    1.409   .     A
C371   C374    1.390   .     A
C372   O413    1.291   .     A
C372   C390    1.450   .     S
C372   O414    1.291   .     A
C373   C375    1.390   .     A
C374   C376    1.386   .     A
C374   H395    1.086   .     S
C375   H401    1.086   .     S
C375   C377    1.386   .     A
C376   C378    1.408   .     A
C376   C382    1.393   .     A
C377   C379    1.408   .     A
C377   C384    1.393   .     A
C378   C380    1.428   .     A
C378   C919    1.411   .     S
C379   C381    1.428   .     A
C379   C918    1.411   1_554 S
C380   C385    1.421   .     A
C381   C383    1.421   .     A
C382   H402    1.085   .     S
C382   C923    1.400   .     S
C383   O420    1.382   .     S
C383   C922    1.400   1_554 S
C384   H403    1.085   .     S
C384   C925    1.400   1_554 S
C385   O412    1.382   .     S
C385   C924    1.400   .     S
C386   H404    1.083   .     S
C386   C508    1.383   1_455 S
C387   H405    1.083   .     S
C387   C390    1.401   .     A
C387   C449    1.383   .     S
C388   C390    1.401   .     A
C388   H406    1.083   .     S
C388   C446    1.383   .     S
C389   H407    1.083   .     S
C389   C507    1.383   1_455 S
Cu393  O418    1.968   .     S
Cu393  O411    1.965   .     S
Cu393  O416    1.965   .     S
Cu393  Cu394   2.678   .     S
Cu393  N409    2.012   .     S
Cu393  O414    1.965   .     S
Cu394  O417    1.965   .     S
Cu394  O415    1.965   .     S
Cu394  O419    1.968   .     S
Cu394  N410    2.012   .     S
Cu394  O413    1.965   .     S
H399   O420    0.992   .     S
H400   O412    0.992   .     S
C421   O475    1.291   .     A
C421   O471    1.291   .     A
C421   C422    1.450   .     S
C422   C446    1.401   .     A
C422   C449    1.401   .     A
C423   N470    1.367   .     A
C423   H468    1.081   .     S
C424   N469    1.367   .     A
C424   H456    1.081   .     S
C424   C65     1.416   1_565 S
C425   H457    1.082   .     S
C425   N470    1.367   .     A
C426   H458    1.082   .     S
C426   N469    1.367   .     A
C426   C63     1.416   1_565 S
C427   O476    1.292   .     A
C427   O479    1.291   .     A
C427   C433    1.456   .     S
C428   O477    1.292   .     A
C428   C431    1.456   .     S
C428   O478    1.291   .     A
C429   C431    1.409   .     A
C429   C440    1.421   .     A
C429   Cl451   1.777   .     S
C430   C441    1.421   .     A
C430   Cl452   1.777   .     S
C430   C433    1.409   .     A
C431   C434    1.390   .     A
C432   O473    1.291   .     A
C432   C450    1.450   .     S
C432   O474    1.291   .     A
C433   C435    1.390   .     A
C434   C436    1.386   .     A
C434   H455    1.086   .     S
C435   H461    1.086   .     S
C435   C437    1.386   .     A
C436   C438    1.408   .     A
C436   C442    1.393   .     A
C437   C439    1.408   .     A
C437   C444    1.393   .     A
C438   C440    1.428   .     A
C438   C979    1.411   .     S
C439   C441    1.428   .     A
C439   C978    1.411   1_554 S
C440   C445    1.421   .     A
C441   C443    1.421   .     A
C442   H462    1.085   .     S
C442   C983    1.400   .     S
C443   O480    1.382   .     S
C443   C982    1.400   1_554 S
C444   H463    1.085   .     S
C444   C985    1.400   1_554 S
C445   O472    1.382   .     S
C445   C984    1.400   .     S
C446   H464    1.083   .     S
C447   H465    1.083   .     S
C447   C450    1.401   .     A
C447   C509    1.383   .     S
C448   C450    1.401   .     A
C448   H466    1.083   .     S
C448   C506    1.383   .     S
C449   H467    1.083   .     S
Cu453  O478    1.968   .     S
Cu453  O471    1.965   .     S
Cu453  O476    1.965   .     S
Cu453  Cu454   2.678   .     S
Cu453  N469    2.012   .     S
Cu453  O474    1.965   .     S
Cu454  O477    1.965   .     S
Cu454  O475    1.965   .     S
Cu454  O479    1.968   .     S
Cu454  N470    2.012   .     S
Cu454  O473    1.965   .     S
H459   O480    0.992   .     S
H460   O472    0.992   .     S
C481   O535    1.291   .     A
C481   O531    1.291   .     A
C481   C482    1.450   .     S
C482   C506    1.401   .     A
C482   C509    1.401   .     A
C483   N530    1.367   .     A
C483   H528    1.081   .     S
C484   N529    1.367   .     A
C484   H516    1.081   .     S
C484   C125    1.416   1_565 S
C485   H517    1.082   .     S
C485   N530    1.367   .     A
C486   H518    1.082   .     S
C486   N529    1.367   .     A
C486   C123    1.416   1_565 S
C487   O536    1.292   .     A
C487   O539    1.291   .     A
C487   C493    1.456   .     S
C488   O537    1.292   .     A
C488   C491    1.456   .     S
C488   O538    1.291   .     A
C489   C491    1.409   .     A
C489   C500    1.421   .     A
C489   Cl511   1.777   .     S
C490   C501    1.421   .     A
C490   Cl512   1.777   .     S
C490   C493    1.409   .     A
C491   C494    1.390   .     A
C492   O533    1.291   .     A
C492   C510    1.450   .     S
C492   O534    1.291   .     A
C493   C495    1.390   .     A
C494   C496    1.386   .     A
C494   H515    1.086   .     S
C495   H521    1.086   .     S
C495   C497    1.386   .     A
C496   C498    1.408   .     A
C496   C502    1.393   .     A
C497   C499    1.408   .     A
C497   C504    1.393   .     A
C498   C500    1.428   .     A
C498   C1039   1.411   .     S
C499   C501    1.428   .     A
C499   C1038   1.411   1_554 S
C500   C505    1.421   .     A
C501   C503    1.421   .     A
C502   H522    1.085   .     S
C502   C1043   1.400   .     S
C503   O540    1.382   .     S
C503   C1042   1.400   1_554 S
C504   H523    1.085   .     S
C504   C1045   1.400   1_554 S
C505   O532    1.382   .     S
C505   C1044   1.400   .     S
C506   H524    1.083   .     S
C507   H525    1.083   .     S
C507   C510    1.401   .     A
C507   C389    1.383   1_655 S
C508   C510    1.401   .     A
C508   H526    1.083   .     S
C508   C386    1.383   1_655 S
C509   H527    1.083   .     S
Cu513  O538    1.968   .     S
Cu513  O531    1.965   .     S
Cu513  O536    1.965   .     S
Cu513  Cu514   2.678   .     S
Cu513  N529    2.012   .     S
Cu513  O534    1.965   .     S
Cu514  O537    1.965   .     S
Cu514  O535    1.965   .     S
Cu514  O539    1.968   .     S
Cu514  N530    2.012   .     S
Cu514  O533    1.965   .     S
H519   O540    0.992   .     S
H520   O532    0.992   .     S
C541   O595    1.291   .     A
C541   O591    1.291   .     A
C541   C542    1.450   .     S
C542   C566    1.401   .     A
C542   C569    1.401   .     A
C543   N590    1.367   .     A
C543   H588    1.081   .     S
C543   C906    1.416   1_545 S
C544   N589    1.367   .     A
C544   H576    1.081   .     S
C544   C725    1.416   .     S
C545   H577    1.082   .     S
C545   N590    1.367   .     A
C545   C904    1.416   1_545 S
C546   H578    1.082   .     S
C546   N589    1.367   .     A
C546   C723    1.416   .     S
C547   O596    1.292   .     A
C547   O599    1.291   .     A
C547   C553    1.456   .     S
C548   O597    1.292   .     A
C548   C551    1.456   .     S
C548   O598    1.291   .     A
C549   C551    1.409   .     A
C549   C560    1.421   .     A
C549   Cl571   1.777   .     S
C550   C561    1.421   .     A
C550   Cl572   1.777   .     S
C550   C553    1.409   .     A
C551   C554    1.390   .     A
C552   O593    1.291   .     A
C552   C570    1.450   .     S
C552   O594    1.291   .     A
C553   C555    1.390   .     A
C554   C556    1.386   .     A
C554   H575    1.086   .     S
C555   H581    1.086   .     S
C555   C557    1.386   .     A
C556   C558    1.408   .     A
C556   C562    1.393   .     A
C557   C559    1.408   .     A
C557   C564    1.393   .     A
C558   C560    1.428   .     A
C558   C19     1.411   1_556 S
C559   C561    1.428   .     A
C560   C565    1.421   .     A
C561   C563    1.421   .     A
C562   H582    1.085   .     S
C562   C23     1.400   1_556 S
C563   O600    1.382   .     S
C564   H583    1.085   .     S
C565   O592    1.382   .     S
C565   C24     1.400   1_556 S
C566   H584    1.083   .     S
C566   C688    1.383   1_455 S
C567   H585    1.083   .     S
C567   C570    1.401   .     A
C567   C629    1.383   .     S
C568   C570    1.401   .     A
C568   H586    1.083   .     S
C568   C626    1.383   .     S
C569   H587    1.083   .     S
C569   C687    1.383   1_455 S
Cu573  O598    1.968   .     S
Cu573  O591    1.965   .     S
Cu573  O596    1.965   .     S
Cu573  Cu574   2.678   .     S
Cu573  N589    2.012   .     S
Cu573  O594    1.965   .     S
Cu574  O597    1.965   .     S
Cu574  O595    1.965   .     S
Cu574  O599    1.968   .     S
Cu574  N590    2.012   .     S
Cu574  O593    1.965   .     S
H579   O600    0.992   .     S
H580   O592    0.992   .     S
C601   O655    1.291   .     A
C601   O651    1.291   .     A
C601   C602    1.450   .     S
C602   C626    1.401   .     A
C602   C629    1.401   .     A
C603   N650    1.367   .     A
C603   H648    1.081   .     S
C603   C966    1.416   1_545 S
C604   N649    1.367   .     A
C604   H636    1.081   .     S
C604   C785    1.416   .     S
C605   H637    1.082   .     S
C605   N650    1.367   .     A
C605   C964    1.416   1_545 S
C606   H638    1.082   .     S
C606   N649    1.367   .     A
C606   C783    1.416   .     S
C607   O656    1.292   .     A
C607   O659    1.291   .     A
C607   C613    1.456   .     S
C608   O657    1.292   .     A
C608   C611    1.456   .     S
C608   O658    1.291   .     A
C609   C611    1.409   .     A
C609   C620    1.421   .     A
C609   Cl631   1.777   .     S
C610   C621    1.421   .     A
C610   Cl632   1.777   .     S
C610   C613    1.409   .     A
C611   C614    1.390   .     A
C612   O653    1.291   .     A
C612   C630    1.450   .     S
C612   O654    1.291   .     A
C613   C615    1.390   .     A
C614   C616    1.386   .     A
C614   H635    1.086   .     S
C615   H641    1.086   .     S
C615   C617    1.386   .     A
C616   C618    1.408   .     A
C616   C622    1.393   .     A
C617   C619    1.408   .     A
C617   C624    1.393   .     A
C618   C620    1.428   .     A
C618   C79     1.411   1_556 S
C619   C621    1.428   .     A
C620   C625    1.421   .     A
C621   C623    1.421   .     A
C622   H642    1.085   .     S
C622   C83     1.400   1_556 S
C623   O660    1.382   .     S
C624   H643    1.085   .     S
C625   O652    1.382   .     S
C625   C84     1.400   1_556 S
C626   H644    1.083   .     S
C627   H645    1.083   .     S
C627   C630    1.401   .     A
C627   C689    1.383   .     S
C628   C630    1.401   .     A
C628   H646    1.083   .     S
C628   C686    1.383   .     S
C629   H647    1.083   .     S
Cu633  O658    1.968   .     S
Cu633  O651    1.965   .     S
Cu633  O656    1.965   .     S
Cu633  Cu634   2.678   .     S
Cu633  N649    2.012   .     S
Cu633  O654    1.965   .     S
Cu634  O657    1.965   .     S
Cu634  O655    1.965   .     S
Cu634  O659    1.968   .     S
Cu634  N650    2.012   .     S
Cu634  O653    1.965   .     S
H639   O660    0.992   .     S
H640   O652    0.992   .     S
C661   O715    1.291   .     A
C661   O711    1.291   .     A
C661   C662    1.450   .     S
C662   C686    1.401   .     A
C662   C689    1.401   .     A
C663   N710    1.367   .     A
C663   H708    1.081   .     S
C663   C1026   1.416   1_545 S
C664   N709    1.367   .     A
C664   H696    1.081   .     S
C664   C845    1.416   .     S
C665   H697    1.082   .     S
C665   N710    1.367   .     A
C665   C1024   1.416   1_545 S
C666   H698    1.082   .     S
C666   N709    1.367   .     A
C666   C843    1.416   .     S
C667   O716    1.292   .     A
C667   O719    1.291   .     A
C667   C673    1.456   .     S
C668   O717    1.292   .     A
C668   C671    1.456   .     S
C668   O718    1.291   .     A
C669   C671    1.409   .     A
C669   C680    1.421   .     A
C669   Cl691   1.777   .     S
C670   C681    1.421   .     A
C670   Cl692   1.777   .     S
C670   C673    1.409   .     A
C671   C674    1.390   .     A
C672   O713    1.291   .     A
C672   C690    1.450   .     S
C672   O714    1.291   .     A
C673   C675    1.390   .     A
C674   C676    1.386   .     A
C674   H695    1.086   .     S
C675   H701    1.086   .     S
C675   C677    1.386   .     A
C676   C678    1.408   .     A
C676   C682    1.393   .     A
C677   C679    1.408   .     A
C677   C684    1.393   .     A
C678   C680    1.428   .     A
C678   C139    1.411   1_556 S
C679   C681    1.428   .     A
C680   C685    1.421   .     A
C681   C683    1.421   .     A
C682   H702    1.085   .     S
C682   C143    1.400   1_556 S
C683   O720    1.382   .     S
C684   H703    1.085   .     S
C685   O712    1.382   .     S
C685   C144    1.400   1_556 S
C686   H704    1.083   .     S
C687   H705    1.083   .     S
C687   C690    1.401   .     A
C687   C569    1.383   1_655 S
C688   C690    1.401   .     A
C688   H706    1.083   .     S
C688   C566    1.383   1_655 S
C689   H707    1.083   .     S
Cu693  O718    1.968   .     S
Cu693  O711    1.965   .     S
Cu693  O716    1.965   .     S
Cu693  Cu694   2.678   .     S
Cu693  N709    2.012   .     S
Cu693  O714    1.965   .     S
Cu694  O717    1.965   .     S
Cu694  O715    1.965   .     S
Cu694  O719    1.968   .     S
Cu694  N710    2.012   .     S
Cu694  O713    1.965   .     S
H699   O720    0.992   .     S
H700   O712    0.992   .     S
C721   O775    1.291   .     A
C721   O771    1.291   .     A
C721   C722    1.450   .     S
C722   C746    1.401   .     A
C722   C749    1.401   .     A
C723   N770    1.367   .     A
C723   H768    1.081   .     S
C724   N769    1.367   .     A
C724   H756    1.081   .     S
C724   C905    1.416   .     S
C725   H757    1.082   .     S
C725   N770    1.367   .     A
C726   H758    1.082   .     S
C726   N769    1.367   .     A
C726   C903    1.416   .     S
C727   O776    1.292   .     A
C727   O779    1.291   .     A
C727   C733    1.456   .     S
C728   O777    1.292   .     A
C728   C731    1.456   .     S
C728   O778    1.291   .     A
C729   C731    1.409   .     A
C729   C740    1.421   .     A
C729   Cl751   1.777   .     S
C730   C741    1.421   .     A
C730   Cl752   1.777   .     S
C730   C733    1.409   .     A
C731   C734    1.390   .     A
C732   O773    1.291   .     A
C732   C750    1.450   .     S
C732   O774    1.291   .     A
C733   C735    1.390   .     A
C734   C736    1.386   .     A
C734   H755    1.086   .     S
C735   H761    1.086   .     S
C735   C737    1.386   .     A
C736   C738    1.408   .     A
C736   C742    1.393   .     A
C737   C739    1.408   .     A
C737   C744    1.393   .     A
C738   C740    1.428   .     A
C738   C199    1.411   1_556 S
C739   C741    1.428   .     A
C740   C745    1.421   .     A
C741   C743    1.421   .     A
C742   H762    1.085   .     S
C742   C203    1.400   1_556 S
C743   O780    1.382   .     S
C744   H763    1.085   .     S
C745   O772    1.382   .     S
C745   C204    1.400   1_556 S
C746   H764    1.083   .     S
C746   C868    1.383   1_455 S
C747   H765    1.083   .     S
C747   C750    1.401   .     A
C747   C809    1.383   .     S
C748   C750    1.401   .     A
C748   H766    1.083   .     S
C748   C806    1.383   .     S
C749   H767    1.083   .     S
C749   C867    1.383   1_455 S
Cu753  O778    1.968   .     S
Cu753  O771    1.965   .     S
Cu753  O776    1.965   .     S
Cu753  Cu754   2.678   .     S
Cu753  N769    2.012   .     S
Cu753  O774    1.965   .     S
Cu754  O777    1.965   .     S
Cu754  O775    1.965   .     S
Cu754  O779    1.968   .     S
Cu754  N770    2.012   .     S
Cu754  O773    1.965   .     S
H759   O780    0.992   .     S
H760   O772    0.992   .     S
C781   O835    1.291   .     A
C781   O831    1.291   .     A
C781   C782    1.450   .     S
C782   C806    1.401   .     A
C782   C809    1.401   .     A
C783   N830    1.367   .     A
C783   H828    1.081   .     S
C784   N829    1.367   .     A
C784   H816    1.081   .     S
C784   C965    1.416   .     S
C785   H817    1.082   .     S
C785   N830    1.367   .     A
C786   H818    1.082   .     S
C786   N829    1.367   .     A
C786   C963    1.416   .     S
C787   O836    1.292   .     A
C787   O839    1.291   .     A
C787   C793    1.456   .     S
C788   O837    1.292   .     A
C788   C791    1.456   .     S
C788   O838    1.291   .     A
C789   C791    1.409   .     A
C789   C800    1.421   .     A
C789   Cl811   1.777   .     S
C790   C801    1.421   .     A
C790   Cl812   1.777   .     S
C790   C793    1.409   .     A
C791   C794    1.390   .     A
C792   O833    1.291   .     A
C792   C810    1.450   .     S
C792   O834    1.291   .     A
C793   C795    1.390   .     A
C794   C796    1.386   .     A
C794   H815    1.086   .     S
C795   H821    1.086   .     S
C795   C797    1.386   .     A
C796   C798    1.408   .     A
C796   C802    1.393   .     A
C797   C799    1.408   .     A
C797   C804    1.393   .     A
C798   C800    1.428   .     A
C798   C259    1.411   1_556 S
C799   C801    1.428   .     A
C800   C805    1.421   .     A
C801   C803    1.421   .     A
C802   H822    1.085   .     S
C802   C263    1.400   1_556 S
C803   O840    1.382   .     S
C804   H823    1.085   .     S
C805   O832    1.382   .     S
C805   C264    1.400   1_556 S
C806   H824    1.083   .     S
C807   H825    1.083   .     S
C807   C810    1.401   .     A
C807   C869    1.383   .     S
C808   C810    1.401   .     A
C808   H826    1.083   .     S
C808   C866    1.383   .     S
C809   H827    1.083   .     S
Cu813  O838    1.968   .     S
Cu813  O831    1.965   .     S
Cu813  O836    1.965   .     S
Cu813  Cu814   2.678   .     S
Cu813  N829    2.012   .     S
Cu813  O834    1.965   .     S
Cu814  O837    1.965   .     S
Cu814  O835    1.965   .     S
Cu814  O839    1.968   .     S
Cu814  N830    2.012   .     S
Cu814  O833    1.965   .     S
H819   O840    0.992   .     S
H820   O832    0.992   .     S
C841   O895    1.291   .     A
C841   O891    1.291   .     A
C841   C842    1.450   .     S
C842   C866    1.401   .     A
C842   C869    1.401   .     A
C843   N890    1.367   .     A
C843   H888    1.081   .     S
C844   N889    1.367   .     A
C844   H876    1.081   .     S
C844   C1025   1.416   .     S
C845   H877    1.082   .     S
C845   N890    1.367   .     A
C846   H878    1.082   .     S
C846   N889    1.367   .     A
C846   C1023   1.416   .     S
C847   O896    1.292   .     A
C847   O899    1.291   .     A
C847   C853    1.456   .     S
C848   O897    1.292   .     A
C848   C851    1.456   .     S
C848   O898    1.291   .     A
C849   C851    1.409   .     A
C849   C860    1.421   .     A
C849   Cl871   1.777   .     S
C850   C861    1.421   .     A
C850   Cl872   1.777   .     S
C850   C853    1.409   .     A
C851   C854    1.390   .     A
C852   O893    1.291   .     A
C852   C870    1.450   .     S
C852   O894    1.291   .     A
C853   C855    1.390   .     A
C854   C856    1.386   .     A
C854   H875    1.086   .     S
C855   H881    1.086   .     S
C855   C857    1.386   .     A
C856   C858    1.408   .     A
C856   C862    1.393   .     A
C857   C859    1.408   .     A
C857   C864    1.393   .     A
C858   C860    1.428   .     A
C858   C319    1.411   1_556 S
C859   C861    1.428   .     A
C860   C865    1.421   .     A
C861   C863    1.421   .     A
C862   H882    1.085   .     S
C862   C323    1.400   1_556 S
C863   O900    1.382   .     S
C864   H883    1.085   .     S
C865   O892    1.382   .     S
C865   C324    1.400   1_556 S
C866   H884    1.083   .     S
C867   H885    1.083   .     S
C867   C870    1.401   .     A
C867   C749    1.383   1_655 S
C868   C870    1.401   .     A
C868   H886    1.083   .     S
C868   C746    1.383   1_655 S
C869   H887    1.083   .     S
Cu873  O898    1.968   .     S
Cu873  O891    1.965   .     S
Cu873  O896    1.965   .     S
Cu873  Cu874   2.678   .     S
Cu873  N889    2.012   .     S
Cu873  O894    1.965   .     S
Cu874  O897    1.965   .     S
Cu874  O895    1.965   .     S
Cu874  O899    1.968   .     S
Cu874  N890    2.012   .     S
Cu874  O893    1.965   .     S
H879   O900    0.992   .     S
H880   O892    0.992   .     S
C901   O955    1.291   .     A
C901   O951    1.291   .     A
C901   C902    1.450   .     S
C902   C926    1.401   .     A
C902   C929    1.401   .     A
C903   N950    1.367   .     A
C903   H948    1.081   .     S
C904   N949    1.367   .     A
C904   H936    1.081   .     S
C904   C545    1.416   1_565 S
C905   H937    1.082   .     S
C905   N950    1.367   .     A
C906   H938    1.082   .     S
C906   N949    1.367   .     A
C906   C543    1.416   1_565 S
C907   O956    1.292   .     A
C907   O959    1.291   .     A
C907   C913    1.456   .     S
C908   O957    1.292   .     A
C908   C911    1.456   .     S
C908   O958    1.291   .     A
C909   C911    1.409   .     A
C909   C920    1.421   .     A
C909   Cl931   1.777   .     S
C910   C921    1.421   .     A
C910   Cl932   1.777   .     S
C910   C913    1.409   .     A
C911   C914    1.390   .     A
C912   O953    1.291   .     A
C912   C930    1.450   .     S
C912   O954    1.291   .     A
C913   C915    1.390   .     A
C914   C916    1.386   .     A
C914   H935    1.086   .     S
C915   H941    1.086   .     S
C915   C917    1.386   .     A
C916   C918    1.408   .     A
C916   C922    1.393   .     A
C917   C919    1.408   .     A
C917   C924    1.393   .     A
C918   C920    1.428   .     A
C918   C379    1.411   1_556 S
C919   C921    1.428   .     A
C920   C925    1.421   .     A
C921   C923    1.421   .     A
C922   H942    1.085   .     S
C922   C383    1.400   1_556 S
C923   O960    1.382   .     S
C924   H943    1.085   .     S
C925   O952    1.382   .     S
C925   C384    1.400   1_556 S
C926   H944    1.083   .     S
C926   C1048   1.383   1_455 S
C927   H945    1.083   .     S
C927   C930    1.401   .     A
C927   C989    1.383   .     S
C928   C930    1.401   .     A
C928   H946    1.083   .     S
C928   C986    1.383   .     S
C929   H947    1.083   .     S
C929   C1047   1.383   1_455 S
Cu933  O958    1.968   .     S
Cu933  O951    1.965   .     S
Cu933  O956    1.965   .     S
Cu933  Cu934   2.678   .     S
Cu933  N949    2.012   .     S
Cu933  O954    1.965   .     S
Cu934  O957    1.965   .     S
Cu934  O955    1.965   .     S
Cu934  O959    1.968   .     S
Cu934  N950    2.012   .     S
Cu934  O953    1.965   .     S
H939   O960    0.992   .     S
H940   O952    0.992   .     S
C961   O1015   1.291   .     A
C961   O1011   1.291   .     A
C961   C962    1.450   .     S
C962   C986    1.401   .     A
C962   C989    1.401   .     A
C963   N1010   1.367   .     A
C963   H1008   1.081   .     S
C964   N1009   1.367   .     A
C964   H996    1.081   .     S
C964   C605    1.416   1_565 S
C965   H997    1.082   .     S
C965   N1010   1.367   .     A
C966   H998    1.082   .     S
C966   N1009   1.367   .     A
C966   C603    1.416   1_565 S
C967   O1016   1.292   .     A
C967   O1019   1.291   .     A
C967   C973    1.456   .     S
C968   O1017   1.292   .     A
C968   C971    1.456   .     S
C968   O1018   1.291   .     A
C969   C971    1.409   .     A
C969   C980    1.421   .     A
C969   Cl991   1.777   .     S
C970   C981    1.421   .     A
C970   Cl992   1.777   .     S
C970   C973    1.409   .     A
C971   C974    1.390   .     A
C972   O1013   1.291   .     A
C972   C990    1.450   .     S
C972   O1014   1.291   .     A
C973   C975    1.390   .     A
C974   C976    1.386   .     A
C974   H995    1.086   .     S
C975   H1001   1.086   .     S
C975   C977    1.386   .     A
C976   C978    1.408   .     A
C976   C982    1.393   .     A
C977   C979    1.408   .     A
C977   C984    1.393   .     A
C978   C980    1.428   .     A
C978   C439    1.411   1_556 S
C979   C981    1.428   .     A
C980   C985    1.421   .     A
C981   C983    1.421   .     A
C982   H1002   1.085   .     S
C982   C443    1.400   1_556 S
C983   O1020   1.382   .     S
C984   H1003   1.085   .     S
C985   O1012   1.382   .     S
C985   C444    1.400   1_556 S
C986   H1004   1.083   .     S
C987   H1005   1.083   .     S
C987   C990    1.401   .     A
C987   C1049   1.383   .     S
C988   C990    1.401   .     A
C988   H1006   1.083   .     S
C988   C1046   1.383   .     S
C989   H1007   1.083   .     S
Cu993  O1018   1.968   .     S
Cu993  O1011   1.965   .     S
Cu993  O1016   1.965   .     S
Cu993  Cu994   2.678   .     S
Cu993  N1009   2.012   .     S
Cu993  O1014   1.965   .     S
Cu994  O1017   1.965   .     S
Cu994  O1015   1.965   .     S
Cu994  O1019   1.968   .     S
Cu994  N1010   2.012   .     S
Cu994  O1013   1.965   .     S
H999   O1020   0.992   .     S
H1000  O1012   0.992   .     S
C1021  O1075   1.291   .     A
C1021  O1071   1.291   .     A
C1021  C1022   1.450   .     S
C1022  C1046   1.401   .     A
C1022  C1049   1.401   .     A
C1023  N1070   1.367   .     A
C1023  H1068   1.081   .     S
C1024  N1069   1.367   .     A
C1024  H1056   1.081   .     S
C1024  C665    1.416   1_565 S
C1025  H1057   1.082   .     S
C1025  N1070   1.367   .     A
C1026  H1058   1.082   .     S
C1026  N1069   1.367   .     A
C1026  C663    1.416   1_565 S
C1027  O1076   1.292   .     A
C1027  O1079   1.291   .     A
C1027  C1033   1.456   .     S
C1028  O1077   1.292   .     A
C1028  C1031   1.456   .     S
C1028  O1078   1.291   .     A
C1029  C1031   1.409   .     A
C1029  C1040   1.421   .     A
C1029  Cl1051  1.777   .     S
C1030  C1041   1.421   .     A
C1030  Cl1052  1.777   .     S
C1030  C1033   1.409   .     A
C1031  C1034   1.390   .     A
C1032  O1073   1.291   .     A
C1032  C1050   1.450   .     S
C1032  O1074   1.291   .     A
C1033  C1035   1.390   .     A
C1034  C1036   1.386   .     A
C1034  H1055   1.086   .     S
C1035  H1061   1.086   .     S
C1035  C1037   1.386   .     A
C1036  C1038   1.408   .     A
C1036  C1042   1.393   .     A
C1037  C1039   1.408   .     A
C1037  C1044   1.393   .     A
C1038  C1040   1.428   .     A
C1038  C499    1.411   1_556 S
C1039  C1041   1.428   .     A
C1040  C1045   1.421   .     A
C1041  C1043   1.421   .     A
C1042  H1062   1.085   .     S
C1042  C503    1.400   1_556 S
C1043  O1080   1.382   .     S
C1044  H1063   1.085   .     S
C1045  O1072   1.382   .     S
C1045  C504    1.400   1_556 S
C1046  H1064   1.083   .     S
C1047  H1065   1.083   .     S
C1047  C1050   1.401   .     A
C1047  C929    1.383   1_655 S
C1048  C1050   1.401   .     A
C1048  H1066   1.083   .     S
C1048  C926    1.383   1_655 S
C1049  H1067   1.083   .     S
Cu1053 O1078   1.968   .     S
Cu1053 O1071   1.965   .     S
Cu1053 O1076   1.965   .     S
Cu1053 Cu1054  2.678   .     S
Cu1053 N1069   2.012   .     S
Cu1053 O1074   1.965   .     S
Cu1054 O1077   1.965   .     S
Cu1054 O1075   1.965   .     S
Cu1054 O1079   1.968   .     S
Cu1054 N1070   2.012   .     S
Cu1054 O1073   1.965   .     S
H1059  O1080   0.992   .     S
H1060  O1072   0.992   .     S
