data_str_m2_o10_o18_pcu_sym.35
_audit_creation_date              2020-01-03
_audit_creation_method            'Materials Studio'
_symmetry_space_group_name_H-M    'P1'
_symmetry_Int_Tables_number       1
_symmetry_cell_setting            triclinic
loop_
_symmetry_equiv_pos_as_xyz
  x,y,z
_cell_length_a                    22.2337
_cell_length_b                    26.2099
_cell_length_c                    31.5712
_cell_angle_alpha                 94.1101
_cell_angle_beta                  75.0204
_cell_angle_gamma                 102.7225
loop_
_atom_site_label
_atom_site_type_symbol
_atom_site_fract_x
_atom_site_fract_y
_atom_site_fract_z
_atom_site_U_iso_or_equiv
_atom_site_adp_type
_atom_site_occupancy
C1     C     0.18090   0.26649   0.25193   0.00000  Uiso   1.00
C2     C     0.20550   0.17081   0.16672   0.00000  Uiso   1.00
C3     C     0.10400   0.15722   0.38120   0.00000  Uiso   1.00
C4     C     0.22933   0.17611   0.11880   0.00000  Uiso   1.00
C5     C     0.02194   0.12388   0.44556   0.00000  Uiso   1.00
C6     C     0.31140   0.20946   0.05443   0.00000  Uiso   1.00
C7     C     0.03984   0.13689   0.40129   0.00000  Uiso   1.00
C8     C     0.29349   0.19644   0.09870   0.00000  Uiso   1.00
C9     C     0.14810   0.16917   0.40692   0.00000  Uiso   1.00
C10    C     0.18523   0.16416   0.09308   0.00000  Uiso   1.00
C11    C     0.12981   0.16244   0.45241   0.00000  Uiso   1.00
C12    C     0.15244   0.06685   0.24807   0.00000  Uiso   1.00
C13    C     0.20352   0.17089   0.04759   0.00000  Uiso   1.00
C14    C     0.06742   0.13406   0.47078   0.00000  Uiso   1.00
C15    C     0.26591   0.19927   0.02922   0.00000  Uiso   1.00
C16    C     0.17405   0.17795   0.47892   0.00000  Uiso   1.00
C17    C     0.15928   0.15538   0.02108   0.00000  Uiso   1.00
C18    C     0.10101   0.11800   0.03487   0.00000  Uiso   1.00
C19    C     0.23232   0.21534   0.46513   0.00000  Uiso   1.00
C20    C     0.05379   0.11194   0.01207   0.00000  Uiso   1.00
C21    C     0.27955   0.22139   0.48793   0.00000  Uiso   1.00
C22    C     0.18427   0.32128   0.25883   0.00000  Uiso   1.00
C23    C     0.14907   0.01205   0.24117   0.00000  Uiso   1.00
C24    C     0.12783   0.16252   0.33328   0.00000  Uiso   1.00
Cl25   Cl    0.08863   0.06969   0.07450   0.00000  Uiso   1.00
Cl26   Cl    0.24470   0.26365   0.42550   0.00000  Uiso   1.00
Cl27   Cl    0.22892   0.01795   0.29665   0.00000  Uiso   1.00
Cl28   Cl    0.10441   0.31538   0.20335   0.00000  Uiso   1.00
Cu29   Cu    0.10737   0.16108   0.24516   0.00000  Uiso   1.00
Cu30   Cu    0.22596   0.17225   0.25483   0.00000  Uiso   1.00
F31    F     0.33015   0.07926   0.02824   0.00000  Uiso   1.00
F32    F     0.00318   0.25407   0.47176   0.00000  Uiso   1.00
F33    F     0.00453   0.20796   0.12243   0.00000  Uiso   1.00
F34    F     0.32880   0.12537   0.37757   0.00000  Uiso   1.00
F35    F     0.29404   0.09950   0.46305   0.00000  Uiso   1.00
F36    F     0.03929   0.23383   0.03695   0.00000  Uiso   1.00
H37    H     0.13540   0.15333   0.10940   0.00000  Uiso   1.00
H38    H     0.19794   0.18000   0.39060   0.00000  Uiso   1.00
H39    H     0.00141   0.20495   0.28431   0.00000  Uiso   1.00
H40    H     0.33193   0.12838   0.21568   0.00000  Uiso   1.00
N41    N     0.31506   0.18068   0.26212   0.00000  Uiso   1.00
N42    N     0.01827   0.15265   0.23788   0.00000  Uiso   1.00
O43    O     0.12815   0.23809   0.24686   0.00000  Uiso   1.00
O44    O     0.20518   0.09524   0.25314   0.00000  Uiso   1.00
O45    O     0.22829   0.24753   0.25502   0.00000  Uiso   1.00
O46    O     0.10504   0.08580   0.24497   0.00000  Uiso   1.00
O47    O     0.08851   0.15930   0.30854   0.00000  Uiso   1.00
O48    O     0.24482   0.17403   0.19145   0.00000  Uiso   1.00
O49    O     0.18866   0.16874   0.31671   0.00000  Uiso   1.00
O50    O     0.14468   0.16460   0.18329   0.00000  Uiso   1.00
C51    C     0.51423   0.26649   0.25193   0.00000  Uiso   1.00
C52    C     0.53884   0.17081   0.16672   0.00000  Uiso   1.00
C53    C     0.43733   0.15722   0.38120   0.00000  Uiso   1.00
C54    C     0.56267   0.17611   0.11880   0.00000  Uiso   1.00
C55    C     0.35527   0.12388   0.44556   0.00000  Uiso   1.00
C56    C     0.64473   0.20946   0.05443   0.00000  Uiso   1.00
C57    C     0.37317   0.13689   0.40129   0.00000  Uiso   1.00
C58    C     0.62683   0.19644   0.09870   0.00000  Uiso   1.00
C59    C     0.48143   0.16917   0.40692   0.00000  Uiso   1.00
C60    C     0.51857   0.16416   0.09308   0.00000  Uiso   1.00
C61    C     0.46314   0.16244   0.45241   0.00000  Uiso   1.00
C62    C     0.48577   0.06685   0.24807   0.00000  Uiso   1.00
C63    C     0.53686   0.17089   0.04759   0.00000  Uiso   1.00
C64    C     0.40075   0.13406   0.47078   0.00000  Uiso   1.00
C65    C     0.59925   0.19927   0.02922   0.00000  Uiso   1.00
C66    C     0.50738   0.17795   0.47892   0.00000  Uiso   1.00
C67    C     0.49262   0.15538   0.02108   0.00000  Uiso   1.00
C68    C     0.43435   0.11800   0.03487   0.00000  Uiso   1.00
C69    C     0.56565   0.21534   0.46513   0.00000  Uiso   1.00
C70    C     0.38712   0.11194   0.01207   0.00000  Uiso   1.00
C71    C     0.61288   0.22139   0.48793   0.00000  Uiso   1.00
C72    C     0.51760   0.32128   0.25883   0.00000  Uiso   1.00
C73    C     0.48240   0.01205   0.24117   0.00000  Uiso   1.00
C74    C     0.46116   0.16252   0.33328   0.00000  Uiso   1.00
Cl75   Cl    0.42197   0.06969   0.07450   0.00000  Uiso   1.00
Cl76   Cl    0.57803   0.26365   0.42550   0.00000  Uiso   1.00
Cl77   Cl    0.56225   0.01795   0.29665   0.00000  Uiso   1.00
Cl78   Cl    0.43775   0.31538   0.20335   0.00000  Uiso   1.00
Cu79   Cu    0.44071   0.16108   0.24516   0.00000  Uiso   1.00
Cu80   Cu    0.55929   0.17225   0.25483   0.00000  Uiso   1.00
F81    F     0.66348   0.07926   0.02824   0.00000  Uiso   1.00
F82    F     0.33652   0.25407   0.47176   0.00000  Uiso   1.00
F83    F     0.33786   0.20796   0.12243   0.00000  Uiso   1.00
F84    F     0.66214   0.12537   0.37757   0.00000  Uiso   1.00
F85    F     0.62737   0.09950   0.46305   0.00000  Uiso   1.00
F86    F     0.37263   0.23383   0.03695   0.00000  Uiso   1.00
H87    H     0.46873   0.15333   0.10940   0.00000  Uiso   1.00
H88    H     0.53127   0.18000   0.39060   0.00000  Uiso   1.00
H89    H     0.33474   0.20495   0.28431   0.00000  Uiso   1.00
H90    H     0.66526   0.12838   0.21568   0.00000  Uiso   1.00
N91    N     0.64839   0.18068   0.26212   0.00000  Uiso   1.00
N92    N     0.35161   0.15265   0.23788   0.00000  Uiso   1.00
O93    O     0.46148   0.23809   0.24686   0.00000  Uiso   1.00
O94    O     0.53852   0.09524   0.25314   0.00000  Uiso   1.00
O95    O     0.56163   0.24753   0.25502   0.00000  Uiso   1.00
O96    O     0.43837   0.08580   0.24497   0.00000  Uiso   1.00
O97    O     0.42185   0.15930   0.30854   0.00000  Uiso   1.00
O98    O     0.57815   0.17403   0.19145   0.00000  Uiso   1.00
O99    O     0.52199   0.16874   0.31671   0.00000  Uiso   1.00
O100   O     0.47801   0.16460   0.18329   0.00000  Uiso   1.00
C101   C     0.84756   0.26649   0.25193   0.00000  Uiso   1.00
C102   C     0.87217   0.17081   0.16672   0.00000  Uiso   1.00
C103   C     0.77067   0.15722   0.38120   0.00000  Uiso   1.00
C104   C     0.89600   0.17611   0.11880   0.00000  Uiso   1.00
C105   C     0.68860   0.12388   0.44556   0.00000  Uiso   1.00
C106   C     0.97806   0.20946   0.05443   0.00000  Uiso   1.00
C107   C     0.70651   0.13689   0.40129   0.00000  Uiso   1.00
C108   C     0.96016   0.19644   0.09870   0.00000  Uiso   1.00
C109   C     0.81477   0.16917   0.40692   0.00000  Uiso   1.00
C110   C     0.85190   0.16416   0.09308   0.00000  Uiso   1.00
C111   C     0.79648   0.16244   0.45241   0.00000  Uiso   1.00
C112   C     0.81910   0.06685   0.24807   0.00000  Uiso   1.00
C113   C     0.87019   0.17089   0.04759   0.00000  Uiso   1.00
C114   C     0.73409   0.13406   0.47078   0.00000  Uiso   1.00
C115   C     0.93258   0.19927   0.02922   0.00000  Uiso   1.00
C116   C     0.84071   0.17795   0.47892   0.00000  Uiso   1.00
C117   C     0.82595   0.15538   0.02108   0.00000  Uiso   1.00
C118   C     0.76768   0.11800   0.03487   0.00000  Uiso   1.00
C119   C     0.89899   0.21534   0.46513   0.00000  Uiso   1.00
C120   C     0.72045   0.11194   0.01207   0.00000  Uiso   1.00
C121   C     0.94621   0.22139   0.48793   0.00000  Uiso   1.00
C122   C     0.85093   0.32128   0.25883   0.00000  Uiso   1.00
C123   C     0.81573   0.01205   0.24117   0.00000  Uiso   1.00
C124   C     0.79450   0.16252   0.33328   0.00000  Uiso   1.00
Cl125  Cl    0.75530   0.06969   0.07450   0.00000  Uiso   1.00
Cl126  Cl    0.91136   0.26365   0.42550   0.00000  Uiso   1.00
Cl127  Cl    0.89559   0.01795   0.29665   0.00000  Uiso   1.00
Cl128  Cl    0.77108   0.31538   0.20335   0.00000  Uiso   1.00
Cu129  Cu    0.77404   0.16108   0.24516   0.00000  Uiso   1.00
Cu130  Cu    0.89263   0.17225   0.25483   0.00000  Uiso   1.00
F131   F     0.99682   0.07926   0.02824   0.00000  Uiso   1.00
F132   F     0.66985   0.25407   0.47176   0.00000  Uiso   1.00
F133   F     0.67120   0.20796   0.12243   0.00000  Uiso   1.00
F134   F     0.99547   0.12537   0.37757   0.00000  Uiso   1.00
F135   F     0.96071   0.09950   0.46305   0.00000  Uiso   1.00
F136   F     0.70596   0.23383   0.03695   0.00000  Uiso   1.00
H137   H     0.80206   0.15333   0.10940   0.00000  Uiso   1.00
H138   H     0.86460   0.18000   0.39060   0.00000  Uiso   1.00
H139   H     0.66807   0.20495   0.28431   0.00000  Uiso   1.00
H140   H     0.99859   0.12838   0.21568   0.00000  Uiso   1.00
N141   N     0.98173   0.18068   0.26212   0.00000  Uiso   1.00
N142   N     0.68494   0.15265   0.23788   0.00000  Uiso   1.00
O143   O     0.79482   0.23809   0.24686   0.00000  Uiso   1.00
O144   O     0.87185   0.09524   0.25314   0.00000  Uiso   1.00
O145   O     0.89496   0.24753   0.25502   0.00000  Uiso   1.00
O146   O     0.77171   0.08580   0.24497   0.00000  Uiso   1.00
O147   O     0.75518   0.15930   0.30854   0.00000  Uiso   1.00
O148   O     0.91149   0.17403   0.19145   0.00000  Uiso   1.00
O149   O     0.85532   0.16874   0.31671   0.00000  Uiso   1.00
O150   O     0.81134   0.16460   0.18329   0.00000  Uiso   1.00
C151   C     0.18090   0.59982   0.25193   0.00000  Uiso   1.00
C152   C     0.20550   0.50414   0.16672   0.00000  Uiso   1.00
C153   C     0.10400   0.49055   0.38120   0.00000  Uiso   1.00
C154   C     0.22933   0.50945   0.11880   0.00000  Uiso   1.00
C155   C     0.02194   0.45721   0.44556   0.00000  Uiso   1.00
C156   C     0.31140   0.54279   0.05443   0.00000  Uiso   1.00
C157   C     0.03984   0.47023   0.40129   0.00000  Uiso   1.00
C158   C     0.29349   0.52977   0.09870   0.00000  Uiso   1.00
C159   C     0.14810   0.50251   0.40692   0.00000  Uiso   1.00
C160   C     0.18523   0.49750   0.09308   0.00000  Uiso   1.00
C161   C     0.12981   0.49578   0.45241   0.00000  Uiso   1.00
C162   C     0.15244   0.40018   0.24807   0.00000  Uiso   1.00
C163   C     0.20352   0.50422   0.04759   0.00000  Uiso   1.00
C164   C     0.06742   0.46740   0.47078   0.00000  Uiso   1.00
C165   C     0.26591   0.53261   0.02922   0.00000  Uiso   1.00
C166   C     0.17405   0.51129   0.47892   0.00000  Uiso   1.00
C167   C     0.15928   0.48871   0.02108   0.00000  Uiso   1.00
C168   C     0.10101   0.45133   0.03487   0.00000  Uiso   1.00
C169   C     0.23232   0.54867   0.46513   0.00000  Uiso   1.00
C170   C     0.05379   0.44527   0.01207   0.00000  Uiso   1.00
C171   C     0.27955   0.55473   0.48793   0.00000  Uiso   1.00
C172   C     0.18427   0.65462   0.25883   0.00000  Uiso   1.00
C173   C     0.14907   0.34538   0.24117   0.00000  Uiso   1.00
C174   C     0.12783   0.49586   0.33328   0.00000  Uiso   1.00
Cl175  Cl    0.08863   0.40303   0.07450   0.00000  Uiso   1.00
Cl176  Cl    0.24470   0.59698   0.42550   0.00000  Uiso   1.00
Cl177  Cl    0.22892   0.35128   0.29665   0.00000  Uiso   1.00
Cl178  Cl    0.10441   0.64872   0.20335   0.00000  Uiso   1.00
Cu179  Cu    0.10737   0.49441   0.24516   0.00000  Uiso   1.00
Cu180  Cu    0.22596   0.50559   0.25483   0.00000  Uiso   1.00
F181   F     0.33015   0.41260   0.02824   0.00000  Uiso   1.00
F182   F     0.00318   0.58741   0.47176   0.00000  Uiso   1.00
F183   F     0.00453   0.54129   0.12243   0.00000  Uiso   1.00
F184   F     0.32880   0.45870   0.37757   0.00000  Uiso   1.00
F185   F     0.29404   0.43283   0.46305   0.00000  Uiso   1.00
F186   F     0.03929   0.56717   0.03695   0.00000  Uiso   1.00
H187   H     0.13540   0.48667   0.10940   0.00000  Uiso   1.00
H188   H     0.19794   0.51334   0.39060   0.00000  Uiso   1.00
H189   H     0.00141   0.53828   0.28431   0.00000  Uiso   1.00
H190   H     0.33193   0.46172   0.21568   0.00000  Uiso   1.00
N191   N     0.31506   0.51401   0.26212   0.00000  Uiso   1.00
N192   N     0.01827   0.48599   0.23788   0.00000  Uiso   1.00
O193   O     0.12815   0.57142   0.24686   0.00000  Uiso   1.00
O194   O     0.20518   0.42858   0.25314   0.00000  Uiso   1.00
O195   O     0.22829   0.58086   0.25502   0.00000  Uiso   1.00
O196   O     0.10504   0.41914   0.24497   0.00000  Uiso   1.00
O197   O     0.08851   0.49263   0.30854   0.00000  Uiso   1.00
O198   O     0.24482   0.50737   0.19145   0.00000  Uiso   1.00
O199   O     0.18866   0.50207   0.31671   0.00000  Uiso   1.00
O200   O     0.14468   0.49793   0.18329   0.00000  Uiso   1.00
C201   C     0.51423   0.59982   0.25193   0.00000  Uiso   1.00
C202   C     0.53884   0.50414   0.16672   0.00000  Uiso   1.00
C203   C     0.43733   0.49055   0.38120   0.00000  Uiso   1.00
C204   C     0.56267   0.50945   0.11880   0.00000  Uiso   1.00
C205   C     0.35527   0.45721   0.44556   0.00000  Uiso   1.00
C206   C     0.64473   0.54279   0.05443   0.00000  Uiso   1.00
C207   C     0.37317   0.47023   0.40129   0.00000  Uiso   1.00
C208   C     0.62683   0.52977   0.09870   0.00000  Uiso   1.00
C209   C     0.48143   0.50251   0.40692   0.00000  Uiso   1.00
C210   C     0.51857   0.49750   0.09308   0.00000  Uiso   1.00
C211   C     0.46314   0.49578   0.45241   0.00000  Uiso   1.00
C212   C     0.48577   0.40018   0.24807   0.00000  Uiso   1.00
C213   C     0.53686   0.50422   0.04759   0.00000  Uiso   1.00
C214   C     0.40075   0.46740   0.47078   0.00000  Uiso   1.00
C215   C     0.59925   0.53261   0.02922   0.00000  Uiso   1.00
C216   C     0.50738   0.51129   0.47892   0.00000  Uiso   1.00
C217   C     0.49262   0.48871   0.02108   0.00000  Uiso   1.00
C218   C     0.43435   0.45133   0.03487   0.00000  Uiso   1.00
C219   C     0.56565   0.54867   0.46513   0.00000  Uiso   1.00
C220   C     0.38712   0.44527   0.01207   0.00000  Uiso   1.00
C221   C     0.61288   0.55473   0.48793   0.00000  Uiso   1.00
C222   C     0.51760   0.65462   0.25883   0.00000  Uiso   1.00
C223   C     0.48240   0.34538   0.24117   0.00000  Uiso   1.00
C224   C     0.46116   0.49586   0.33328   0.00000  Uiso   1.00
Cl225  Cl    0.42197   0.40303   0.07450   0.00000  Uiso   1.00
Cl226  Cl    0.57803   0.59698   0.42550   0.00000  Uiso   1.00
Cl227  Cl    0.56225   0.35128   0.29665   0.00000  Uiso   1.00
Cl228  Cl    0.43775   0.64872   0.20335   0.00000  Uiso   1.00
Cu229  Cu    0.44071   0.49441   0.24516   0.00000  Uiso   1.00
Cu230  Cu    0.55929   0.50559   0.25483   0.00000  Uiso   1.00
F231   F     0.66348   0.41260   0.02824   0.00000  Uiso   1.00
F232   F     0.33652   0.58741   0.47176   0.00000  Uiso   1.00
F233   F     0.33786   0.54129   0.12243   0.00000  Uiso   1.00
F234   F     0.66214   0.45870   0.37757   0.00000  Uiso   1.00
F235   F     0.62737   0.43283   0.46305   0.00000  Uiso   1.00
F236   F     0.37263   0.56717   0.03695   0.00000  Uiso   1.00
H237   H     0.46873   0.48667   0.10940   0.00000  Uiso   1.00
H238   H     0.53127   0.51334   0.39060   0.00000  Uiso   1.00
H239   H     0.33474   0.53828   0.28431   0.00000  Uiso   1.00
H240   H     0.66526   0.46172   0.21568   0.00000  Uiso   1.00
N241   N     0.64839   0.51401   0.26212   0.00000  Uiso   1.00
N242   N     0.35161   0.48599   0.23788   0.00000  Uiso   1.00
O243   O     0.46148   0.57142   0.24686   0.00000  Uiso   1.00
O244   O     0.53852   0.42858   0.25314   0.00000  Uiso   1.00
O245   O     0.56163   0.58086   0.25502   0.00000  Uiso   1.00
O246   O     0.43837   0.41914   0.24497   0.00000  Uiso   1.00
O247   O     0.42185   0.49263   0.30854   0.00000  Uiso   1.00
O248   O     0.57815   0.50737   0.19145   0.00000  Uiso   1.00
O249   O     0.52199   0.50207   0.31671   0.00000  Uiso   1.00
O250   O     0.47801   0.49793   0.18329   0.00000  Uiso   1.00
C251   C     0.84756   0.59982   0.25193   0.00000  Uiso   1.00
C252   C     0.87217   0.50414   0.16672   0.00000  Uiso   1.00
C253   C     0.77067   0.49055   0.38120   0.00000  Uiso   1.00
C254   C     0.89600   0.50945   0.11880   0.00000  Uiso   1.00
C255   C     0.68860   0.45721   0.44556   0.00000  Uiso   1.00
C256   C     0.97806   0.54279   0.05443   0.00000  Uiso   1.00
C257   C     0.70651   0.47023   0.40129   0.00000  Uiso   1.00
C258   C     0.96016   0.52977   0.09870   0.00000  Uiso   1.00
C259   C     0.81477   0.50251   0.40692   0.00000  Uiso   1.00
C260   C     0.85190   0.49750   0.09308   0.00000  Uiso   1.00
C261   C     0.79648   0.49578   0.45241   0.00000  Uiso   1.00
C262   C     0.81910   0.40018   0.24807   0.00000  Uiso   1.00
C263   C     0.87019   0.50422   0.04759   0.00000  Uiso   1.00
C264   C     0.73409   0.46740   0.47078   0.00000  Uiso   1.00
C265   C     0.93258   0.53261   0.02922   0.00000  Uiso   1.00
C266   C     0.84071   0.51129   0.47892   0.00000  Uiso   1.00
C267   C     0.82595   0.48871   0.02108   0.00000  Uiso   1.00
C268   C     0.76768   0.45133   0.03487   0.00000  Uiso   1.00
C269   C     0.89899   0.54867   0.46513   0.00000  Uiso   1.00
C270   C     0.72045   0.44527   0.01207   0.00000  Uiso   1.00
C271   C     0.94621   0.55473   0.48793   0.00000  Uiso   1.00
C272   C     0.85093   0.65462   0.25883   0.00000  Uiso   1.00
C273   C     0.81573   0.34538   0.24117   0.00000  Uiso   1.00
C274   C     0.79450   0.49586   0.33328   0.00000  Uiso   1.00
Cl275  Cl    0.75530   0.40303   0.07450   0.00000  Uiso   1.00
Cl276  Cl    0.91136   0.59698   0.42550   0.00000  Uiso   1.00
Cl277  Cl    0.89559   0.35128   0.29665   0.00000  Uiso   1.00
Cl278  Cl    0.77108   0.64872   0.20335   0.00000  Uiso   1.00
Cu279  Cu    0.77404   0.49441   0.24516   0.00000  Uiso   1.00
Cu280  Cu    0.89263   0.50559   0.25483   0.00000  Uiso   1.00
F281   F     0.99682   0.41260   0.02824   0.00000  Uiso   1.00
F282   F     0.66985   0.58741   0.47176   0.00000  Uiso   1.00
F283   F     0.67120   0.54129   0.12243   0.00000  Uiso   1.00
F284   F     0.99547   0.45870   0.37757   0.00000  Uiso   1.00
F285   F     0.96071   0.43283   0.46305   0.00000  Uiso   1.00
F286   F     0.70596   0.56717   0.03695   0.00000  Uiso   1.00
H287   H     0.80206   0.48667   0.10940   0.00000  Uiso   1.00
H288   H     0.86460   0.51334   0.39060   0.00000  Uiso   1.00
H289   H     0.66807   0.53828   0.28431   0.00000  Uiso   1.00
H290   H     0.99859   0.46172   0.21568   0.00000  Uiso   1.00
N291   N     0.98173   0.51401   0.26212   0.00000  Uiso   1.00
N292   N     0.68494   0.48599   0.23788   0.00000  Uiso   1.00
O293   O     0.79482   0.57142   0.24686   0.00000  Uiso   1.00
O294   O     0.87185   0.42858   0.25314   0.00000  Uiso   1.00
O295   O     0.89496   0.58086   0.25502   0.00000  Uiso   1.00
O296   O     0.77171   0.41914   0.24497   0.00000  Uiso   1.00
O297   O     0.75518   0.49263   0.30854   0.00000  Uiso   1.00
O298   O     0.91149   0.50737   0.19145   0.00000  Uiso   1.00
O299   O     0.85532   0.50207   0.31671   0.00000  Uiso   1.00
O300   O     0.81134   0.49793   0.18329   0.00000  Uiso   1.00
C301   C     0.18090   0.93315   0.25193   0.00000  Uiso   1.00
C302   C     0.20550   0.83748   0.16672   0.00000  Uiso   1.00
C303   C     0.10400   0.82389   0.38120   0.00000  Uiso   1.00
C304   C     0.22933   0.84278   0.11880   0.00000  Uiso   1.00
C305   C     0.02194   0.79055   0.44556   0.00000  Uiso   1.00
C306   C     0.31140   0.87612   0.05443   0.00000  Uiso   1.00
C307   C     0.03984   0.80356   0.40129   0.00000  Uiso   1.00
C308   C     0.29349   0.86311   0.09870   0.00000  Uiso   1.00
C309   C     0.14810   0.83584   0.40692   0.00000  Uiso   1.00
C310   C     0.18523   0.83083   0.09308   0.00000  Uiso   1.00
C311   C     0.12981   0.82911   0.45241   0.00000  Uiso   1.00
C312   C     0.15244   0.73351   0.24807   0.00000  Uiso   1.00
C313   C     0.20352   0.83756   0.04759   0.00000  Uiso   1.00
C314   C     0.06742   0.80073   0.47078   0.00000  Uiso   1.00
C315   C     0.26591   0.86594   0.02922   0.00000  Uiso   1.00
C316   C     0.17405   0.84462   0.47892   0.00000  Uiso   1.00
C317   C     0.15928   0.82205   0.02108   0.00000  Uiso   1.00
C318   C     0.10101   0.78466   0.03487   0.00000  Uiso   1.00
C319   C     0.23232   0.88201   0.46513   0.00000  Uiso   1.00
C320   C     0.05379   0.77861   0.01207   0.00000  Uiso   1.00
C321   C     0.27955   0.88806   0.48793   0.00000  Uiso   1.00
C322   C     0.18427   0.98795   0.25883   0.00000  Uiso   1.00
C323   C     0.14907   0.67872   0.24117   0.00000  Uiso   1.00
C324   C     0.12783   0.82919   0.33328   0.00000  Uiso   1.00
Cl325  Cl    0.08863   0.73636   0.07450   0.00000  Uiso   1.00
Cl326  Cl    0.24470   0.93031   0.42550   0.00000  Uiso   1.00
Cl327  Cl    0.22892   0.68462   0.29665   0.00000  Uiso   1.00
Cl328  Cl    0.10441   0.98205   0.20335   0.00000  Uiso   1.00
Cu329  Cu    0.10737   0.82775   0.24516   0.00000  Uiso   1.00
Cu330  Cu    0.22596   0.83892   0.25483   0.00000  Uiso   1.00
F331   F     0.33015   0.74593   0.02824   0.00000  Uiso   1.00
F332   F     0.00318   0.92074   0.47176   0.00000  Uiso   1.00
F333   F     0.00453   0.87463   0.12243   0.00000  Uiso   1.00
F334   F     0.32880   0.79204   0.37757   0.00000  Uiso   1.00
F335   F     0.29404   0.76617   0.46305   0.00000  Uiso   1.00
F336   F     0.03929   0.90050   0.03695   0.00000  Uiso   1.00
H337   H     0.13540   0.82000   0.10940   0.00000  Uiso   1.00
H338   H     0.19794   0.84667   0.39060   0.00000  Uiso   1.00
H339   H     0.00141   0.87162   0.28431   0.00000  Uiso   1.00
H340   H     0.33193   0.79505   0.21568   0.00000  Uiso   1.00
N341   N     0.31506   0.84735   0.26212   0.00000  Uiso   1.00
N342   N     0.01827   0.81932   0.23788   0.00000  Uiso   1.00
O343   O     0.12815   0.90476   0.24686   0.00000  Uiso   1.00
O344   O     0.20518   0.76191   0.25314   0.00000  Uiso   1.00
O345   O     0.22829   0.91420   0.25502   0.00000  Uiso   1.00
O346   O     0.10504   0.75247   0.24497   0.00000  Uiso   1.00
O347   O     0.08851   0.82597   0.30854   0.00000  Uiso   1.00
O348   O     0.24482   0.84070   0.19145   0.00000  Uiso   1.00
O349   O     0.18866   0.83540   0.31671   0.00000  Uiso   1.00
O350   O     0.14468   0.83126   0.18329   0.00000  Uiso   1.00
C351   C     0.51423   0.93315   0.25193   0.00000  Uiso   1.00
C352   C     0.53884   0.83748   0.16672   0.00000  Uiso   1.00
C353   C     0.43733   0.82389   0.38120   0.00000  Uiso   1.00
C354   C     0.56267   0.84278   0.11880   0.00000  Uiso   1.00
C355   C     0.35527   0.79055   0.44556   0.00000  Uiso   1.00
C356   C     0.64473   0.87612   0.05443   0.00000  Uiso   1.00
C357   C     0.37317   0.80356   0.40129   0.00000  Uiso   1.00
C358   C     0.62683   0.86311   0.09870   0.00000  Uiso   1.00
C359   C     0.48143   0.83584   0.40692   0.00000  Uiso   1.00
C360   C     0.51857   0.83083   0.09308   0.00000  Uiso   1.00
C361   C     0.46314   0.82911   0.45241   0.00000  Uiso   1.00
C362   C     0.48577   0.73351   0.24807   0.00000  Uiso   1.00
C363   C     0.53686   0.83756   0.04759   0.00000  Uiso   1.00
C364   C     0.40075   0.80073   0.47078   0.00000  Uiso   1.00
C365   C     0.59925   0.86594   0.02922   0.00000  Uiso   1.00
C366   C     0.50738   0.84462   0.47892   0.00000  Uiso   1.00
C367   C     0.49262   0.82205   0.02108   0.00000  Uiso   1.00
C368   C     0.43435   0.78466   0.03487   0.00000  Uiso   1.00
C369   C     0.56565   0.88201   0.46513   0.00000  Uiso   1.00
C370   C     0.38712   0.77861   0.01207   0.00000  Uiso   1.00
C371   C     0.61288   0.88806   0.48793   0.00000  Uiso   1.00
C372   C     0.51760   0.98795   0.25883   0.00000  Uiso   1.00
C373   C     0.48240   0.67872   0.24117   0.00000  Uiso   1.00
C374   C     0.46116   0.82919   0.33328   0.00000  Uiso   1.00
Cl375  Cl    0.42197   0.73636   0.07450   0.00000  Uiso   1.00
Cl376  Cl    0.57803   0.93031   0.42550   0.00000  Uiso   1.00
Cl377  Cl    0.56225   0.68462   0.29665   0.00000  Uiso   1.00
Cl378  Cl    0.43775   0.98205   0.20335   0.00000  Uiso   1.00
Cu379  Cu    0.44071   0.82775   0.24516   0.00000  Uiso   1.00
Cu380  Cu    0.55929   0.83892   0.25483   0.00000  Uiso   1.00
F381   F     0.66348   0.74593   0.02824   0.00000  Uiso   1.00
F382   F     0.33652   0.92074   0.47176   0.00000  Uiso   1.00
F383   F     0.33786   0.87463   0.12243   0.00000  Uiso   1.00
F384   F     0.66214   0.79204   0.37757   0.00000  Uiso   1.00
F385   F     0.62737   0.76617   0.46305   0.00000  Uiso   1.00
F386   F     0.37263   0.90050   0.03695   0.00000  Uiso   1.00
H387   H     0.46873   0.82000   0.10940   0.00000  Uiso   1.00
H388   H     0.53127   0.84667   0.39060   0.00000  Uiso   1.00
H389   H     0.33474   0.87162   0.28431   0.00000  Uiso   1.00
H390   H     0.66526   0.79505   0.21568   0.00000  Uiso   1.00
N391   N     0.64839   0.84735   0.26212   0.00000  Uiso   1.00
N392   N     0.35161   0.81932   0.23788   0.00000  Uiso   1.00
O393   O     0.46148   0.90476   0.24686   0.00000  Uiso   1.00
O394   O     0.53852   0.76191   0.25314   0.00000  Uiso   1.00
O395   O     0.56163   0.91420   0.25502   0.00000  Uiso   1.00
O396   O     0.43837   0.75247   0.24497   0.00000  Uiso   1.00
O397   O     0.42185   0.82597   0.30854   0.00000  Uiso   1.00
O398   O     0.57815   0.84070   0.19145   0.00000  Uiso   1.00
O399   O     0.52199   0.83540   0.31671   0.00000  Uiso   1.00
O400   O     0.47801   0.83126   0.18329   0.00000  Uiso   1.00
C401   C     0.84756   0.93315   0.25193   0.00000  Uiso   1.00
C402   C     0.87217   0.83748   0.16672   0.00000  Uiso   1.00
C403   C     0.77067   0.82389   0.38120   0.00000  Uiso   1.00
C404   C     0.89600   0.84278   0.11880   0.00000  Uiso   1.00
C405   C     0.68860   0.79055   0.44556   0.00000  Uiso   1.00
C406   C     0.97806   0.87612   0.05443   0.00000  Uiso   1.00
C407   C     0.70651   0.80356   0.40129   0.00000  Uiso   1.00
C408   C     0.96016   0.86311   0.09870   0.00000  Uiso   1.00
C409   C     0.81477   0.83584   0.40692   0.00000  Uiso   1.00
C410   C     0.85190   0.83083   0.09308   0.00000  Uiso   1.00
C411   C     0.79648   0.82911   0.45241   0.00000  Uiso   1.00
C412   C     0.81910   0.73351   0.24807   0.00000  Uiso   1.00
C413   C     0.87019   0.83756   0.04759   0.00000  Uiso   1.00
C414   C     0.73409   0.80073   0.47078   0.00000  Uiso   1.00
C415   C     0.93258   0.86594   0.02922   0.00000  Uiso   1.00
C416   C     0.84071   0.84462   0.47892   0.00000  Uiso   1.00
C417   C     0.82595   0.82205   0.02108   0.00000  Uiso   1.00
C418   C     0.76768   0.78466   0.03487   0.00000  Uiso   1.00
C419   C     0.89899   0.88201   0.46513   0.00000  Uiso   1.00
C420   C     0.72045   0.77861   0.01207   0.00000  Uiso   1.00
C421   C     0.94621   0.88806   0.48793   0.00000  Uiso   1.00
C422   C     0.85093   0.98795   0.25883   0.00000  Uiso   1.00
C423   C     0.81573   0.67872   0.24117   0.00000  Uiso   1.00
C424   C     0.79450   0.82919   0.33328   0.00000  Uiso   1.00
Cl425  Cl    0.75530   0.73636   0.07450   0.00000  Uiso   1.00
Cl426  Cl    0.91136   0.93031   0.42550   0.00000  Uiso   1.00
Cl427  Cl    0.89559   0.68462   0.29665   0.00000  Uiso   1.00
Cl428  Cl    0.77108   0.98205   0.20335   0.00000  Uiso   1.00
Cu429  Cu    0.77404   0.82775   0.24516   0.00000  Uiso   1.00
Cu430  Cu    0.89263   0.83892   0.25483   0.00000  Uiso   1.00
F431   F     0.99682   0.74593   0.02824   0.00000  Uiso   1.00
F432   F     0.66985   0.92074   0.47176   0.00000  Uiso   1.00
F433   F     0.67120   0.87463   0.12243   0.00000  Uiso   1.00
F434   F     0.99547   0.79204   0.37757   0.00000  Uiso   1.00
F435   F     0.96071   0.76617   0.46305   0.00000  Uiso   1.00
F436   F     0.70596   0.90050   0.03695   0.00000  Uiso   1.00
H437   H     0.80206   0.82000   0.10940   0.00000  Uiso   1.00
H438   H     0.86460   0.84667   0.39060   0.00000  Uiso   1.00
H439   H     0.66807   0.87162   0.28431   0.00000  Uiso   1.00
H440   H     0.99859   0.79505   0.21568   0.00000  Uiso   1.00
N441   N     0.98173   0.84735   0.26212   0.00000  Uiso   1.00
N442   N     0.68494   0.81932   0.23788   0.00000  Uiso   1.00
O443   O     0.79482   0.90476   0.24686   0.00000  Uiso   1.00
O444   O     0.87185   0.76191   0.25314   0.00000  Uiso   1.00
O445   O     0.89496   0.91420   0.25502   0.00000  Uiso   1.00
O446   O     0.77171   0.75247   0.24497   0.00000  Uiso   1.00
O447   O     0.75518   0.82597   0.30854   0.00000  Uiso   1.00
O448   O     0.91149   0.84070   0.19145   0.00000  Uiso   1.00
O449   O     0.85532   0.83540   0.31671   0.00000  Uiso   1.00
O450   O     0.81134   0.83126   0.18329   0.00000  Uiso   1.00
C451   C     0.18090   0.26649   0.75193   0.00000  Uiso   1.00
C452   C     0.20550   0.17081   0.66672   0.00000  Uiso   1.00
C453   C     0.10400   0.15722   0.88120   0.00000  Uiso   1.00
C454   C     0.22933   0.17611   0.61880   0.00000  Uiso   1.00
C455   C     0.02194   0.12388   0.94556   0.00000  Uiso   1.00
C456   C     0.31140   0.20946   0.55443   0.00000  Uiso   1.00
C457   C     0.03984   0.13689   0.90129   0.00000  Uiso   1.00
C458   C     0.29349   0.19644   0.59870   0.00000  Uiso   1.00
C459   C     0.14810   0.16917   0.90692   0.00000  Uiso   1.00
C460   C     0.18523   0.16416   0.59308   0.00000  Uiso   1.00
C461   C     0.12981   0.16244   0.95241   0.00000  Uiso   1.00
C462   C     0.15244   0.06685   0.74807   0.00000  Uiso   1.00
C463   C     0.20352   0.17089   0.54759   0.00000  Uiso   1.00
C464   C     0.06742   0.13406   0.97078   0.00000  Uiso   1.00
C465   C     0.26591   0.19927   0.52922   0.00000  Uiso   1.00
C466   C     0.17405   0.17795   0.97892   0.00000  Uiso   1.00
C467   C     0.15928   0.15538   0.52108   0.00000  Uiso   1.00
C468   C     0.10101   0.11800   0.53487   0.00000  Uiso   1.00
C469   C     0.23232   0.21534   0.96513   0.00000  Uiso   1.00
C470   C     0.05379   0.11194   0.51207   0.00000  Uiso   1.00
C471   C     0.27955   0.22139   0.98793   0.00000  Uiso   1.00
C472   C     0.18427   0.32128   0.75883   0.00000  Uiso   1.00
C473   C     0.14907   0.01205   0.74117   0.00000  Uiso   1.00
C474   C     0.12783   0.16252   0.83328   0.00000  Uiso   1.00
Cl475  Cl    0.08863   0.06969   0.57450   0.00000  Uiso   1.00
Cl476  Cl    0.24470   0.26365   0.92550   0.00000  Uiso   1.00
Cl477  Cl    0.22892   0.01795   0.79665   0.00000  Uiso   1.00
Cl478  Cl    0.10441   0.31538   0.70335   0.00000  Uiso   1.00
Cu479  Cu    0.10737   0.16108   0.74516   0.00000  Uiso   1.00
Cu480  Cu    0.22596   0.17225   0.75483   0.00000  Uiso   1.00
F481   F     0.33015   0.07926   0.52824   0.00000  Uiso   1.00
F482   F     0.00318   0.25407   0.97176   0.00000  Uiso   1.00
F483   F     0.00453   0.20796   0.62243   0.00000  Uiso   1.00
F484   F     0.32880   0.12537   0.87757   0.00000  Uiso   1.00
F485   F     0.29404   0.09950   0.96305   0.00000  Uiso   1.00
F486   F     0.03929   0.23383   0.53695   0.00000  Uiso   1.00
H487   H     0.13540   0.15333   0.60940   0.00000  Uiso   1.00
H488   H     0.19794   0.18000   0.89060   0.00000  Uiso   1.00
H489   H     0.00141   0.20495   0.78431   0.00000  Uiso   1.00
H490   H     0.33193   0.12838   0.71568   0.00000  Uiso   1.00
N491   N     0.31506   0.18068   0.76212   0.00000  Uiso   1.00
N492   N     0.01827   0.15265   0.73788   0.00000  Uiso   1.00
O493   O     0.12815   0.23809   0.74686   0.00000  Uiso   1.00
O494   O     0.20518   0.09524   0.75314   0.00000  Uiso   1.00
O495   O     0.22829   0.24753   0.75502   0.00000  Uiso   1.00
O496   O     0.10504   0.08580   0.74497   0.00000  Uiso   1.00
O497   O     0.08851   0.15930   0.80854   0.00000  Uiso   1.00
O498   O     0.24482   0.17403   0.69145   0.00000  Uiso   1.00
O499   O     0.18866   0.16874   0.81671   0.00000  Uiso   1.00
O500   O     0.14468   0.16460   0.68329   0.00000  Uiso   1.00
C501   C     0.51423   0.26649   0.75193   0.00000  Uiso   1.00
C502   C     0.53884   0.17081   0.66672   0.00000  Uiso   1.00
C503   C     0.43733   0.15722   0.88120   0.00000  Uiso   1.00
C504   C     0.56267   0.17611   0.61880   0.00000  Uiso   1.00
C505   C     0.35527   0.12388   0.94556   0.00000  Uiso   1.00
C506   C     0.64473   0.20946   0.55443   0.00000  Uiso   1.00
C507   C     0.37317   0.13689   0.90129   0.00000  Uiso   1.00
C508   C     0.62683   0.19644   0.59870   0.00000  Uiso   1.00
C509   C     0.48143   0.16917   0.90692   0.00000  Uiso   1.00
C510   C     0.51857   0.16416   0.59308   0.00000  Uiso   1.00
C511   C     0.46314   0.16244   0.95241   0.00000  Uiso   1.00
C512   C     0.48577   0.06685   0.74807   0.00000  Uiso   1.00
C513   C     0.53686   0.17089   0.54759   0.00000  Uiso   1.00
C514   C     0.40075   0.13406   0.97078   0.00000  Uiso   1.00
C515   C     0.59925   0.19927   0.52922   0.00000  Uiso   1.00
C516   C     0.50738   0.17795   0.97892   0.00000  Uiso   1.00
C517   C     0.49262   0.15538   0.52108   0.00000  Uiso   1.00
C518   C     0.43435   0.11800   0.53487   0.00000  Uiso   1.00
C519   C     0.56565   0.21534   0.96513   0.00000  Uiso   1.00
C520   C     0.38712   0.11194   0.51207   0.00000  Uiso   1.00
C521   C     0.61288   0.22139   0.98793   0.00000  Uiso   1.00
C522   C     0.51760   0.32128   0.75883   0.00000  Uiso   1.00
C523   C     0.48240   0.01205   0.74117   0.00000  Uiso   1.00
C524   C     0.46116   0.16252   0.83328   0.00000  Uiso   1.00
Cl525  Cl    0.42197   0.06969   0.57450   0.00000  Uiso   1.00
Cl526  Cl    0.57803   0.26365   0.92550   0.00000  Uiso   1.00
Cl527  Cl    0.56225   0.01795   0.79665   0.00000  Uiso   1.00
Cl528  Cl    0.43775   0.31538   0.70335   0.00000  Uiso   1.00
Cu529  Cu    0.44071   0.16108   0.74516   0.00000  Uiso   1.00
Cu530  Cu    0.55929   0.17225   0.75483   0.00000  Uiso   1.00
F531   F     0.66348   0.07926   0.52824   0.00000  Uiso   1.00
F532   F     0.33652   0.25407   0.97176   0.00000  Uiso   1.00
F533   F     0.33786   0.20796   0.62243   0.00000  Uiso   1.00
F534   F     0.66214   0.12537   0.87757   0.00000  Uiso   1.00
F535   F     0.62737   0.09950   0.96305   0.00000  Uiso   1.00
F536   F     0.37263   0.23383   0.53695   0.00000  Uiso   1.00
H537   H     0.46873   0.15333   0.60940   0.00000  Uiso   1.00
H538   H     0.53127   0.18000   0.89060   0.00000  Uiso   1.00
H539   H     0.33474   0.20495   0.78431   0.00000  Uiso   1.00
H540   H     0.66526   0.12838   0.71568   0.00000  Uiso   1.00
N541   N     0.64839   0.18068   0.76212   0.00000  Uiso   1.00
N542   N     0.35161   0.15265   0.73788   0.00000  Uiso   1.00
O543   O     0.46148   0.23809   0.74686   0.00000  Uiso   1.00
O544   O     0.53852   0.09524   0.75314   0.00000  Uiso   1.00
O545   O     0.56163   0.24753   0.75502   0.00000  Uiso   1.00
O546   O     0.43837   0.08580   0.74497   0.00000  Uiso   1.00
O547   O     0.42185   0.15930   0.80854   0.00000  Uiso   1.00
O548   O     0.57815   0.17403   0.69145   0.00000  Uiso   1.00
O549   O     0.52199   0.16874   0.81671   0.00000  Uiso   1.00
O550   O     0.47801   0.16460   0.68329   0.00000  Uiso   1.00
C551   C     0.84756   0.26649   0.75193   0.00000  Uiso   1.00
C552   C     0.87217   0.17081   0.66672   0.00000  Uiso   1.00
C553   C     0.77067   0.15722   0.88120   0.00000  Uiso   1.00
C554   C     0.89600   0.17611   0.61880   0.00000  Uiso   1.00
C555   C     0.68860   0.12388   0.94556   0.00000  Uiso   1.00
C556   C     0.97806   0.20946   0.55443   0.00000  Uiso   1.00
C557   C     0.70651   0.13689   0.90129   0.00000  Uiso   1.00
C558   C     0.96016   0.19644   0.59870   0.00000  Uiso   1.00
C559   C     0.81477   0.16917   0.90692   0.00000  Uiso   1.00
C560   C     0.85190   0.16416   0.59308   0.00000  Uiso   1.00
C561   C     0.79648   0.16244   0.95241   0.00000  Uiso   1.00
C562   C     0.81910   0.06685   0.74807   0.00000  Uiso   1.00
C563   C     0.87019   0.17089   0.54759   0.00000  Uiso   1.00
C564   C     0.73409   0.13406   0.97078   0.00000  Uiso   1.00
C565   C     0.93258   0.19927   0.52922   0.00000  Uiso   1.00
C566   C     0.84071   0.17795   0.97892   0.00000  Uiso   1.00
C567   C     0.82595   0.15538   0.52108   0.00000  Uiso   1.00
C568   C     0.76768   0.11800   0.53487   0.00000  Uiso   1.00
C569   C     0.89899   0.21534   0.96513   0.00000  Uiso   1.00
C570   C     0.72045   0.11194   0.51207   0.00000  Uiso   1.00
C571   C     0.94621   0.22139   0.98793   0.00000  Uiso   1.00
C572   C     0.85093   0.32128   0.75883   0.00000  Uiso   1.00
C573   C     0.81573   0.01205   0.74117   0.00000  Uiso   1.00
C574   C     0.79450   0.16252   0.83328   0.00000  Uiso   1.00
Cl575  Cl    0.75530   0.06969   0.57450   0.00000  Uiso   1.00
Cl576  Cl    0.91136   0.26365   0.92550   0.00000  Uiso   1.00
Cl577  Cl    0.89559   0.01795   0.79665   0.00000  Uiso   1.00
Cl578  Cl    0.77108   0.31538   0.70335   0.00000  Uiso   1.00
Cu579  Cu    0.77404   0.16108   0.74516   0.00000  Uiso   1.00
Cu580  Cu    0.89263   0.17225   0.75483   0.00000  Uiso   1.00
F581   F     0.99682   0.07926   0.52824   0.00000  Uiso   1.00
F582   F     0.66985   0.25407   0.97176   0.00000  Uiso   1.00
F583   F     0.67120   0.20796   0.62243   0.00000  Uiso   1.00
F584   F     0.99547   0.12537   0.87757   0.00000  Uiso   1.00
F585   F     0.96071   0.09950   0.96305   0.00000  Uiso   1.00
F586   F     0.70596   0.23383   0.53695   0.00000  Uiso   1.00
H587   H     0.80206   0.15333   0.60940   0.00000  Uiso   1.00
H588   H     0.86460   0.18000   0.89060   0.00000  Uiso   1.00
H589   H     0.66807   0.20495   0.78431   0.00000  Uiso   1.00
H590   H     0.99859   0.12838   0.71568   0.00000  Uiso   1.00
N591   N     0.98173   0.18068   0.76212   0.00000  Uiso   1.00
N592   N     0.68494   0.15265   0.73788   0.00000  Uiso   1.00
O593   O     0.79482   0.23809   0.74686   0.00000  Uiso   1.00
O594   O     0.87185   0.09524   0.75314   0.00000  Uiso   1.00
O595   O     0.89496   0.24753   0.75502   0.00000  Uiso   1.00
O596   O     0.77171   0.08580   0.74497   0.00000  Uiso   1.00
O597   O     0.75518   0.15930   0.80854   0.00000  Uiso   1.00
O598   O     0.91149   0.17403   0.69145   0.00000  Uiso   1.00
O599   O     0.85532   0.16874   0.81671   0.00000  Uiso   1.00
O600   O     0.81134   0.16460   0.68329   0.00000  Uiso   1.00
C601   C     0.18090   0.59982   0.75193   0.00000  Uiso   1.00
C602   C     0.20550   0.50414   0.66672   0.00000  Uiso   1.00
C603   C     0.10400   0.49055   0.88120   0.00000  Uiso   1.00
C604   C     0.22933   0.50945   0.61880   0.00000  Uiso   1.00
C605   C     0.02194   0.45721   0.94556   0.00000  Uiso   1.00
C606   C     0.31140   0.54279   0.55443   0.00000  Uiso   1.00
C607   C     0.03984   0.47023   0.90129   0.00000  Uiso   1.00
C608   C     0.29349   0.52977   0.59870   0.00000  Uiso   1.00
C609   C     0.14810   0.50251   0.90692   0.00000  Uiso   1.00
C610   C     0.18523   0.49750   0.59308   0.00000  Uiso   1.00
C611   C     0.12981   0.49578   0.95241   0.00000  Uiso   1.00
C612   C     0.15244   0.40018   0.74807   0.00000  Uiso   1.00
C613   C     0.20352   0.50422   0.54759   0.00000  Uiso   1.00
C614   C     0.06742   0.46740   0.97078   0.00000  Uiso   1.00
C615   C     0.26591   0.53261   0.52922   0.00000  Uiso   1.00
C616   C     0.17405   0.51129   0.97892   0.00000  Uiso   1.00
C617   C     0.15928   0.48871   0.52108   0.00000  Uiso   1.00
C618   C     0.10101   0.45133   0.53487   0.00000  Uiso   1.00
C619   C     0.23232   0.54867   0.96513   0.00000  Uiso   1.00
C620   C     0.05379   0.44527   0.51207   0.00000  Uiso   1.00
C621   C     0.27955   0.55473   0.98793   0.00000  Uiso   1.00
C622   C     0.18427   0.65462   0.75883   0.00000  Uiso   1.00
C623   C     0.14907   0.34538   0.74117   0.00000  Uiso   1.00
C624   C     0.12783   0.49586   0.83328   0.00000  Uiso   1.00
Cl625  Cl    0.08863   0.40303   0.57450   0.00000  Uiso   1.00
Cl626  Cl    0.24470   0.59698   0.92550   0.00000  Uiso   1.00
Cl627  Cl    0.22892   0.35128   0.79665   0.00000  Uiso   1.00
Cl628  Cl    0.10441   0.64872   0.70335   0.00000  Uiso   1.00
Cu629  Cu    0.10737   0.49441   0.74516   0.00000  Uiso   1.00
Cu630  Cu    0.22596   0.50559   0.75483   0.00000  Uiso   1.00
F631   F     0.33015   0.41260   0.52824   0.00000  Uiso   1.00
F632   F     0.00318   0.58741   0.97176   0.00000  Uiso   1.00
F633   F     0.00453   0.54129   0.62243   0.00000  Uiso   1.00
F634   F     0.32880   0.45870   0.87757   0.00000  Uiso   1.00
F635   F     0.29404   0.43283   0.96305   0.00000  Uiso   1.00
F636   F     0.03929   0.56717   0.53695   0.00000  Uiso   1.00
H637   H     0.13540   0.48667   0.60940   0.00000  Uiso   1.00
H638   H     0.19794   0.51334   0.89060   0.00000  Uiso   1.00
H639   H     0.00141   0.53828   0.78431   0.00000  Uiso   1.00
H640   H     0.33193   0.46172   0.71568   0.00000  Uiso   1.00
N641   N     0.31506   0.51401   0.76212   0.00000  Uiso   1.00
N642   N     0.01827   0.48599   0.73788   0.00000  Uiso   1.00
O643   O     0.12815   0.57142   0.74686   0.00000  Uiso   1.00
O644   O     0.20518   0.42858   0.75314   0.00000  Uiso   1.00
O645   O     0.22829   0.58086   0.75502   0.00000  Uiso   1.00
O646   O     0.10504   0.41914   0.74497   0.00000  Uiso   1.00
O647   O     0.08851   0.49263   0.80854   0.00000  Uiso   1.00
O648   O     0.24482   0.50737   0.69145   0.00000  Uiso   1.00
O649   O     0.18866   0.50207   0.81671   0.00000  Uiso   1.00
O650   O     0.14468   0.49793   0.68329   0.00000  Uiso   1.00
C651   C     0.51423   0.59982   0.75193   0.00000  Uiso   1.00
C652   C     0.53884   0.50414   0.66672   0.00000  Uiso   1.00
C653   C     0.43733   0.49055   0.88120   0.00000  Uiso   1.00
C654   C     0.56267   0.50945   0.61880   0.00000  Uiso   1.00
C655   C     0.35527   0.45721   0.94556   0.00000  Uiso   1.00
C656   C     0.64473   0.54279   0.55443   0.00000  Uiso   1.00
C657   C     0.37317   0.47023   0.90129   0.00000  Uiso   1.00
C658   C     0.62683   0.52977   0.59870   0.00000  Uiso   1.00
C659   C     0.48143   0.50251   0.90692   0.00000  Uiso   1.00
C660   C     0.51857   0.49750   0.59308   0.00000  Uiso   1.00
C661   C     0.46314   0.49578   0.95241   0.00000  Uiso   1.00
C662   C     0.48577   0.40018   0.74807   0.00000  Uiso   1.00
C663   C     0.53686   0.50422   0.54759   0.00000  Uiso   1.00
C664   C     0.40075   0.46740   0.97078   0.00000  Uiso   1.00
C665   C     0.59925   0.53261   0.52922   0.00000  Uiso   1.00
C666   C     0.50738   0.51129   0.97892   0.00000  Uiso   1.00
C667   C     0.49262   0.48871   0.52108   0.00000  Uiso   1.00
C668   C     0.43435   0.45133   0.53487   0.00000  Uiso   1.00
C669   C     0.56565   0.54867   0.96513   0.00000  Uiso   1.00
C670   C     0.38712   0.44527   0.51207   0.00000  Uiso   1.00
C671   C     0.61288   0.55473   0.98793   0.00000  Uiso   1.00
C672   C     0.51760   0.65462   0.75883   0.00000  Uiso   1.00
C673   C     0.48240   0.34538   0.74117   0.00000  Uiso   1.00
C674   C     0.46116   0.49586   0.83328   0.00000  Uiso   1.00
Cl675  Cl    0.42197   0.40303   0.57450   0.00000  Uiso   1.00
Cl676  Cl    0.57803   0.59698   0.92550   0.00000  Uiso   1.00
Cl677  Cl    0.56225   0.35128   0.79665   0.00000  Uiso   1.00
Cl678  Cl    0.43775   0.64872   0.70335   0.00000  Uiso   1.00
Cu679  Cu    0.44071   0.49441   0.74516   0.00000  Uiso   1.00
Cu680  Cu    0.55929   0.50559   0.75483   0.00000  Uiso   1.00
F681   F     0.66348   0.41260   0.52824   0.00000  Uiso   1.00
F682   F     0.33652   0.58741   0.97176   0.00000  Uiso   1.00
F683   F     0.33786   0.54129   0.62243   0.00000  Uiso   1.00
F684   F     0.66214   0.45870   0.87757   0.00000  Uiso   1.00
F685   F     0.62737   0.43283   0.96305   0.00000  Uiso   1.00
F686   F     0.37263   0.56717   0.53695   0.00000  Uiso   1.00
H687   H     0.46873   0.48667   0.60940   0.00000  Uiso   1.00
H688   H     0.53127   0.51334   0.89060   0.00000  Uiso   1.00
H689   H     0.33474   0.53828   0.78431   0.00000  Uiso   1.00
H690   H     0.66526   0.46172   0.71568   0.00000  Uiso   1.00
N691   N     0.64839   0.51401   0.76212   0.00000  Uiso   1.00
N692   N     0.35161   0.48599   0.73788   0.00000  Uiso   1.00
O693   O     0.46148   0.57142   0.74686   0.00000  Uiso   1.00
O694   O     0.53852   0.42858   0.75314   0.00000  Uiso   1.00
O695   O     0.56163   0.58086   0.75502   0.00000  Uiso   1.00
O696   O     0.43837   0.41914   0.74497   0.00000  Uiso   1.00
O697   O     0.42185   0.49263   0.80854   0.00000  Uiso   1.00
O698   O     0.57815   0.50737   0.69145   0.00000  Uiso   1.00
O699   O     0.52199   0.50207   0.81671   0.00000  Uiso   1.00
O700   O     0.47801   0.49793   0.68329   0.00000  Uiso   1.00
C701   C     0.84756   0.59982   0.75193   0.00000  Uiso   1.00
C702   C     0.87217   0.50414   0.66672   0.00000  Uiso   1.00
C703   C     0.77067   0.49055   0.88120   0.00000  Uiso   1.00
C704   C     0.89600   0.50945   0.61880   0.00000  Uiso   1.00
C705   C     0.68860   0.45721   0.94556   0.00000  Uiso   1.00
C706   C     0.97806   0.54279   0.55443   0.00000  Uiso   1.00
C707   C     0.70651   0.47023   0.90129   0.00000  Uiso   1.00
C708   C     0.96016   0.52977   0.59870   0.00000  Uiso   1.00
C709   C     0.81477   0.50251   0.90692   0.00000  Uiso   1.00
C710   C     0.85190   0.49750   0.59308   0.00000  Uiso   1.00
C711   C     0.79648   0.49578   0.95241   0.00000  Uiso   1.00
C712   C     0.81910   0.40018   0.74807   0.00000  Uiso   1.00
C713   C     0.87019   0.50422   0.54759   0.00000  Uiso   1.00
C714   C     0.73409   0.46740   0.97078   0.00000  Uiso   1.00
C715   C     0.93258   0.53261   0.52922   0.00000  Uiso   1.00
C716   C     0.84071   0.51129   0.97892   0.00000  Uiso   1.00
C717   C     0.82595   0.48871   0.52108   0.00000  Uiso   1.00
C718   C     0.76768   0.45133   0.53487   0.00000  Uiso   1.00
C719   C     0.89899   0.54867   0.96513   0.00000  Uiso   1.00
C720   C     0.72045   0.44527   0.51207   0.00000  Uiso   1.00
C721   C     0.94621   0.55473   0.98793   0.00000  Uiso   1.00
C722   C     0.85093   0.65462   0.75883   0.00000  Uiso   1.00
C723   C     0.81573   0.34538   0.74117   0.00000  Uiso   1.00
C724   C     0.79450   0.49586   0.83328   0.00000  Uiso   1.00
Cl725  Cl    0.75530   0.40303   0.57450   0.00000  Uiso   1.00
Cl726  Cl    0.91136   0.59698   0.92550   0.00000  Uiso   1.00
Cl727  Cl    0.89559   0.35128   0.79665   0.00000  Uiso   1.00
Cl728  Cl    0.77108   0.64872   0.70335   0.00000  Uiso   1.00
Cu729  Cu    0.77404   0.49441   0.74516   0.00000  Uiso   1.00
Cu730  Cu    0.89263   0.50559   0.75483   0.00000  Uiso   1.00
F731   F     0.99682   0.41260   0.52824   0.00000  Uiso   1.00
F732   F     0.66985   0.58741   0.97176   0.00000  Uiso   1.00
F733   F     0.67120   0.54129   0.62243   0.00000  Uiso   1.00
F734   F     0.99547   0.45870   0.87757   0.00000  Uiso   1.00
F735   F     0.96071   0.43283   0.96305   0.00000  Uiso   1.00
F736   F     0.70596   0.56717   0.53695   0.00000  Uiso   1.00
H737   H     0.80206   0.48667   0.60940   0.00000  Uiso   1.00
H738   H     0.86460   0.51334   0.89060   0.00000  Uiso   1.00
H739   H     0.66807   0.53828   0.78431   0.00000  Uiso   1.00
H740   H     0.99859   0.46172   0.71568   0.00000  Uiso   1.00
N741   N     0.98173   0.51401   0.76212   0.00000  Uiso   1.00
N742   N     0.68494   0.48599   0.73788   0.00000  Uiso   1.00
O743   O     0.79482   0.57142   0.74686   0.00000  Uiso   1.00
O744   O     0.87185   0.42858   0.75314   0.00000  Uiso   1.00
O745   O     0.89496   0.58086   0.75502   0.00000  Uiso   1.00
O746   O     0.77171   0.41914   0.74497   0.00000  Uiso   1.00
O747   O     0.75518   0.49263   0.80854   0.00000  Uiso   1.00
O748   O     0.91149   0.50737   0.69145   0.00000  Uiso   1.00
O749   O     0.85532   0.50207   0.81671   0.00000  Uiso   1.00
O750   O     0.81134   0.49793   0.68329   0.00000  Uiso   1.00
C751   C     0.18090   0.93315   0.75193   0.00000  Uiso   1.00
C752   C     0.20550   0.83748   0.66672   0.00000  Uiso   1.00
C753   C     0.10400   0.82389   0.88120   0.00000  Uiso   1.00
C754   C     0.22933   0.84278   0.61880   0.00000  Uiso   1.00
C755   C     0.02194   0.79055   0.94556   0.00000  Uiso   1.00
C756   C     0.31140   0.87612   0.55443   0.00000  Uiso   1.00
C757   C     0.03984   0.80356   0.90129   0.00000  Uiso   1.00
C758   C     0.29349   0.86311   0.59870   0.00000  Uiso   1.00
C759   C     0.14810   0.83584   0.90692   0.00000  Uiso   1.00
C760   C     0.18523   0.83083   0.59308   0.00000  Uiso   1.00
C761   C     0.12981   0.82911   0.95241   0.00000  Uiso   1.00
C762   C     0.15244   0.73351   0.74807   0.00000  Uiso   1.00
C763   C     0.20352   0.83756   0.54759   0.00000  Uiso   1.00
C764   C     0.06742   0.80073   0.97078   0.00000  Uiso   1.00
C765   C     0.26591   0.86594   0.52922   0.00000  Uiso   1.00
C766   C     0.17405   0.84462   0.97892   0.00000  Uiso   1.00
C767   C     0.15928   0.82205   0.52108   0.00000  Uiso   1.00
C768   C     0.10101   0.78466   0.53487   0.00000  Uiso   1.00
C769   C     0.23232   0.88201   0.96513   0.00000  Uiso   1.00
C770   C     0.05379   0.77861   0.51207   0.00000  Uiso   1.00
C771   C     0.27955   0.88806   0.98793   0.00000  Uiso   1.00
C772   C     0.18427   0.98795   0.75883   0.00000  Uiso   1.00
C773   C     0.14907   0.67872   0.74117   0.00000  Uiso   1.00
C774   C     0.12783   0.82919   0.83328   0.00000  Uiso   1.00
Cl775  Cl    0.08863   0.73636   0.57450   0.00000  Uiso   1.00
Cl776  Cl    0.24470   0.93031   0.92550   0.00000  Uiso   1.00
Cl777  Cl    0.22892   0.68462   0.79665   0.00000  Uiso   1.00
Cl778  Cl    0.10441   0.98205   0.70335   0.00000  Uiso   1.00
Cu779  Cu    0.10737   0.82775   0.74516   0.00000  Uiso   1.00
Cu780  Cu    0.22596   0.83892   0.75483   0.00000  Uiso   1.00
F781   F     0.33015   0.74593   0.52824   0.00000  Uiso   1.00
F782   F     0.00318   0.92074   0.97176   0.00000  Uiso   1.00
F783   F     0.00453   0.87463   0.62243   0.00000  Uiso   1.00
F784   F     0.32880   0.79204   0.87757   0.00000  Uiso   1.00
F785   F     0.29404   0.76617   0.96305   0.00000  Uiso   1.00
F786   F     0.03929   0.90050   0.53695   0.00000  Uiso   1.00
H787   H     0.13540   0.82000   0.60940   0.00000  Uiso   1.00
H788   H     0.19794   0.84667   0.89060   0.00000  Uiso   1.00
H789   H     0.00141   0.87162   0.78431   0.00000  Uiso   1.00
H790   H     0.33193   0.79505   0.71568   0.00000  Uiso   1.00
N791   N     0.31506   0.84735   0.76212   0.00000  Uiso   1.00
N792   N     0.01827   0.81932   0.73788   0.00000  Uiso   1.00
O793   O     0.12815   0.90476   0.74686   0.00000  Uiso   1.00
O794   O     0.20518   0.76191   0.75314   0.00000  Uiso   1.00
O795   O     0.22829   0.91420   0.75502   0.00000  Uiso   1.00
O796   O     0.10504   0.75247   0.74497   0.00000  Uiso   1.00
O797   O     0.08851   0.82597   0.80854   0.00000  Uiso   1.00
O798   O     0.24482   0.84070   0.69145   0.00000  Uiso   1.00
O799   O     0.18866   0.83540   0.81671   0.00000  Uiso   1.00
O800   O     0.14468   0.83126   0.68329   0.00000  Uiso   1.00
C801   C     0.51423   0.93315   0.75193   0.00000  Uiso   1.00
C802   C     0.53884   0.83748   0.66672   0.00000  Uiso   1.00
C803   C     0.43733   0.82389   0.88120   0.00000  Uiso   1.00
C804   C     0.56267   0.84278   0.61880   0.00000  Uiso   1.00
C805   C     0.35527   0.79055   0.94556   0.00000  Uiso   1.00
C806   C     0.64473   0.87612   0.55443   0.00000  Uiso   1.00
C807   C     0.37317   0.80356   0.90129   0.00000  Uiso   1.00
C808   C     0.62683   0.86311   0.59870   0.00000  Uiso   1.00
C809   C     0.48143   0.83584   0.90692   0.00000  Uiso   1.00
C810   C     0.51857   0.83083   0.59308   0.00000  Uiso   1.00
C811   C     0.46314   0.82911   0.95241   0.00000  Uiso   1.00
C812   C     0.48577   0.73351   0.74807   0.00000  Uiso   1.00
C813   C     0.53686   0.83756   0.54759   0.00000  Uiso   1.00
C814   C     0.40075   0.80073   0.97078   0.00000  Uiso   1.00
C815   C     0.59925   0.86594   0.52922   0.00000  Uiso   1.00
C816   C     0.50738   0.84462   0.97892   0.00000  Uiso   1.00
C817   C     0.49262   0.82205   0.52108   0.00000  Uiso   1.00
C818   C     0.43435   0.78466   0.53487   0.00000  Uiso   1.00
C819   C     0.56565   0.88201   0.96513   0.00000  Uiso   1.00
C820   C     0.38712   0.77861   0.51207   0.00000  Uiso   1.00
C821   C     0.61288   0.88806   0.98793   0.00000  Uiso   1.00
C822   C     0.51760   0.98795   0.75883   0.00000  Uiso   1.00
C823   C     0.48240   0.67872   0.74117   0.00000  Uiso   1.00
C824   C     0.46116   0.82919   0.83328   0.00000  Uiso   1.00
Cl825  Cl    0.42197   0.73636   0.57450   0.00000  Uiso   1.00
Cl826  Cl    0.57803   0.93031   0.92550   0.00000  Uiso   1.00
Cl827  Cl    0.56225   0.68462   0.79665   0.00000  Uiso   1.00
Cl828  Cl    0.43775   0.98205   0.70335   0.00000  Uiso   1.00
Cu829  Cu    0.44071   0.82775   0.74516   0.00000  Uiso   1.00
Cu830  Cu    0.55929   0.83892   0.75483   0.00000  Uiso   1.00
F831   F     0.66348   0.74593   0.52824   0.00000  Uiso   1.00
F832   F     0.33652   0.92074   0.97176   0.00000  Uiso   1.00
F833   F     0.33786   0.87463   0.62243   0.00000  Uiso   1.00
F834   F     0.66214   0.79204   0.87757   0.00000  Uiso   1.00
F835   F     0.62737   0.76617   0.96305   0.00000  Uiso   1.00
F836   F     0.37263   0.90050   0.53695   0.00000  Uiso   1.00
H837   H     0.46873   0.82000   0.60940   0.00000  Uiso   1.00
H838   H     0.53127   0.84667   0.89060   0.00000  Uiso   1.00
H839   H     0.33474   0.87162   0.78431   0.00000  Uiso   1.00
H840   H     0.66526   0.79505   0.71568   0.00000  Uiso   1.00
N841   N     0.64839   0.84735   0.76212   0.00000  Uiso   1.00
N842   N     0.35161   0.81932   0.73788   0.00000  Uiso   1.00
O843   O     0.46148   0.90476   0.74686   0.00000  Uiso   1.00
O844   O     0.53852   0.76191   0.75314   0.00000  Uiso   1.00
O845   O     0.56163   0.91420   0.75502   0.00000  Uiso   1.00
O846   O     0.43837   0.75247   0.74497   0.00000  Uiso   1.00
O847   O     0.42185   0.82597   0.80854   0.00000  Uiso   1.00
O848   O     0.57815   0.84070   0.69145   0.00000  Uiso   1.00
O849   O     0.52199   0.83540   0.81671   0.00000  Uiso   1.00
O850   O     0.47801   0.83126   0.68329   0.00000  Uiso   1.00
C851   C     0.84756   0.93315   0.75193   0.00000  Uiso   1.00
C852   C     0.87217   0.83748   0.66672   0.00000  Uiso   1.00
C853   C     0.77067   0.82389   0.88120   0.00000  Uiso   1.00
C854   C     0.89600   0.84278   0.61880   0.00000  Uiso   1.00
C855   C     0.68860   0.79055   0.94556   0.00000  Uiso   1.00
C856   C     0.97806   0.87612   0.55443   0.00000  Uiso   1.00
C857   C     0.70651   0.80356   0.90129   0.00000  Uiso   1.00
C858   C     0.96016   0.86311   0.59870   0.00000  Uiso   1.00
C859   C     0.81477   0.83584   0.90692   0.00000  Uiso   1.00
C860   C     0.85190   0.83083   0.59308   0.00000  Uiso   1.00
C861   C     0.79648   0.82911   0.95241   0.00000  Uiso   1.00
C862   C     0.81910   0.73351   0.74807   0.00000  Uiso   1.00
C863   C     0.87019   0.83756   0.54759   0.00000  Uiso   1.00
C864   C     0.73409   0.80073   0.97078   0.00000  Uiso   1.00
C865   C     0.93258   0.86594   0.52922   0.00000  Uiso   1.00
C866   C     0.84071   0.84462   0.97892   0.00000  Uiso   1.00
C867   C     0.82595   0.82205   0.52108   0.00000  Uiso   1.00
C868   C     0.76768   0.78466   0.53487   0.00000  Uiso   1.00
C869   C     0.89899   0.88201   0.96513   0.00000  Uiso   1.00
C870   C     0.72045   0.77861   0.51207   0.00000  Uiso   1.00
C871   C     0.94621   0.88806   0.98793   0.00000  Uiso   1.00
C872   C     0.85093   0.98795   0.75883   0.00000  Uiso   1.00
C873   C     0.81573   0.67872   0.74117   0.00000  Uiso   1.00
C874   C     0.79450   0.82919   0.83328   0.00000  Uiso   1.00
Cl875  Cl    0.75530   0.73636   0.57450   0.00000  Uiso   1.00
Cl876  Cl    0.91136   0.93031   0.92550   0.00000  Uiso   1.00
Cl877  Cl    0.89559   0.68462   0.79665   0.00000  Uiso   1.00
Cl878  Cl    0.77108   0.98205   0.70335   0.00000  Uiso   1.00
Cu879  Cu    0.77404   0.82775   0.74516   0.00000  Uiso   1.00
Cu880  Cu    0.89263   0.83892   0.75483   0.00000  Uiso   1.00
F881   F     0.99682   0.74593   0.52824   0.00000  Uiso   1.00
F882   F     0.66985   0.92074   0.97176   0.00000  Uiso   1.00
F883   F     0.67120   0.87463   0.62243   0.00000  Uiso   1.00
F884   F     0.99547   0.79204   0.87757   0.00000  Uiso   1.00
F885   F     0.96071   0.76617   0.96305   0.00000  Uiso   1.00
F886   F     0.70596   0.90050   0.53695   0.00000  Uiso   1.00
H887   H     0.80206   0.82000   0.60940   0.00000  Uiso   1.00
H888   H     0.86460   0.84667   0.89060   0.00000  Uiso   1.00
H889   H     0.66807   0.87162   0.78431   0.00000  Uiso   1.00
H890   H     0.99859   0.79505   0.71568   0.00000  Uiso   1.00
N891   N     0.98173   0.84735   0.76212   0.00000  Uiso   1.00
N892   N     0.68494   0.81932   0.73788   0.00000  Uiso   1.00
O893   O     0.79482   0.90476   0.74686   0.00000  Uiso   1.00
O894   O     0.87185   0.76191   0.75314   0.00000  Uiso   1.00
O895   O     0.89496   0.91420   0.75502   0.00000  Uiso   1.00
O896   O     0.77171   0.75247   0.74497   0.00000  Uiso   1.00
O897   O     0.75518   0.82597   0.80854   0.00000  Uiso   1.00
O898   O     0.91149   0.84070   0.69145   0.00000  Uiso   1.00
O899   O     0.85532   0.83540   0.81671   0.00000  Uiso   1.00
O900   O     0.81134   0.83126   0.68329   0.00000  Uiso   1.00
loop_
_geom_bond_atom_site_label_1
_geom_bond_atom_site_label_2
_geom_bond_distance
_geom_bond_site_symmetry_2
_ccdc_geom_bond_type
C1     O45     1.288   .     A
C1     C22     1.425   .     S
C1     O43     1.285   .     A
C2     C4      1.474   .     S
C2     O50     1.296   .     A
C2     O48     1.301   .     A
C3     C9      1.400   .     A
C3     C24     1.474   .     S
C3     C7      1.403   .     A
C4     C8      1.403   .     A
C4     C10     1.400   .     A
C5     C14     1.412   .     A
C5     C7      1.396   .     A
C5     F135    1.358   1_455 S
C6     C8      1.396   .     A
C6     C15     1.412   .     A
C6     F86     1.358   .     S
C7     F134    1.358   1_455 S
C8     F83     1.358   .     S
C9     C11     1.401   .     A
C9     H38     1.078   .     S
C10    C13     1.401   .     A
C10    H37     1.078   .     S
C11    C14     1.416   .     A
C11    C16     1.426   .     A
C12    O44     1.285   .     A
C12    C23     1.425   .     S
C12    O46     1.288   .     A
C13    C17     1.426   .     A
C13    C15     1.416   .     A
C14    C470    1.398   .     S
C15    C471    1.398   1_554 S
C16    C19     1.428   .     A
C16    C467    1.425   .     S
C17    C18     1.428   .     A
C17    C466    1.425   1_554 S
C18    C20     1.395   .     A
C18    Cl25    1.772   .     S
C19    Cl26    1.772   .     S
C19    C21     1.395   .     A
C20    C464    1.398   1_554 S
C20    F131    1.360   1_455 S
C21    C465    1.398   .     S
C21    F82     1.360   .     S
C22    C173    1.348   .     S
C22    Cl177   1.779   .     S
C23    C322    1.348   1_545 S
C23    Cl328   1.779   1_545 S
C24    O49     1.296   .     A
C24    O47     1.301   .     A
Cl27   C322    1.779   1_545 S
Cl28   C173    1.779   .     S
Cu29   Cu30    2.682   .     S
Cu29   N42     2.015   .     S
Cu29   O46     1.962   .     S
Cu29   O43     1.969   .     S
Cu29   O47     1.937   .     S
Cu29   O50     1.915   .     S
Cu30   N41     2.015   .     S
Cu30   O45     1.962   .     S
Cu30   O44     1.969   .     S
Cu30   O48     1.937   .     S
Cu30   O49     1.915   .     S
F31    C70     1.360   .     S
F32    C121    1.360   1_455 S
F33    C108    1.358   1_455 S
F34    C57     1.358   .     S
F35    C55     1.358   .     S
F36    C106    1.358   1_455 S
H39    N141    1.029   1_455 S
H40    N92     1.029   .     S
N41    H89     1.029   .     S
N41    N92     1.283   .     S
N42    H140    1.029   1_455 S
N42    N141    1.283   1_455 S
C51    O95     1.288   .     A
C51    C72     1.425   .     S
C51    O93     1.285   .     A
C52    C54     1.474   .     S
C52    O100    1.296   .     A
C52    O98     1.301   .     A
C53    C59     1.400   .     A
C53    C74     1.474   .     S
C53    C57     1.403   .     A
C54    C58     1.403   .     A
C54    C60     1.400   .     A
C55    C64     1.412   .     A
C55    C57     1.396   .     A
C56    C58     1.396   .     A
C56    C65     1.412   .     A
C56    F136    1.358   .     S
C58    F133    1.358   .     S
C59    C61     1.401   .     A
C59    H88     1.078   .     S
C60    C63     1.401   .     A
C60    H87     1.078   .     S
C61    C64     1.416   .     A
C61    C66     1.426   .     A
C62    O94     1.285   .     A
C62    C73     1.425   .     S
C62    O96     1.288   .     A
C63    C67     1.426   .     A
C63    C65     1.416   .     A
C64    C520    1.398   .     S
C65    C521    1.398   1_554 S
C66    C69     1.428   .     A
C66    C517    1.425   .     S
C67    C68     1.428   .     A
C67    C516    1.425   1_554 S
C68    C70     1.395   .     A
C68    Cl75    1.772   .     S
C69    Cl76    1.772   .     S
C69    C71     1.395   .     A
C70    C514    1.398   1_554 S
C71    C515    1.398   .     S
C71    F132    1.360   .     S
C72    C223    1.348   .     S
C72    Cl227   1.779   .     S
C73    C372    1.348   1_545 S
C73    Cl378   1.779   1_545 S
C74    O99     1.296   .     A
C74    O97     1.301   .     A
Cl77   C372    1.779   1_545 S
Cl78   C223    1.779   .     S
Cu79   Cu80    2.682   .     S
Cu79   N92     2.015   .     S
Cu79   O96     1.962   .     S
Cu79   O93     1.969   .     S
Cu79   O97     1.937   .     S
Cu79   O100    1.915   .     S
Cu80   N91     2.015   .     S
Cu80   O95     1.962   .     S
Cu80   O94     1.969   .     S
Cu80   O98     1.937   .     S
Cu80   O99     1.915   .     S
F81    C120    1.360   .     S
F84    C107    1.358   .     S
F85    C105    1.358   .     S
H90    N142    1.029   .     S
N91    H139    1.029   .     S
N91    N142    1.283   .     S
C101   O145    1.288   .     A
C101   C122    1.425   .     S
C101   O143    1.285   .     A
C102   C104    1.474   .     S
C102   O150    1.296   .     A
C102   O148    1.301   .     A
C103   C109    1.400   .     A
C103   C124    1.474   .     S
C103   C107    1.403   .     A
C104   C108    1.403   .     A
C104   C110    1.400   .     A
C105   C114    1.412   .     A
C105   C107    1.396   .     A
C106   C108    1.396   .     A
C106   C115    1.412   .     A
C106   F36     1.358   1_655 S
C108   F33     1.358   1_655 S
C109   C111    1.401   .     A
C109   H138    1.078   .     S
C110   C113    1.401   .     A
C110   H137    1.078   .     S
C111   C114    1.416   .     A
C111   C116    1.426   .     A
C112   O144    1.285   .     A
C112   C123    1.425   .     S
C112   O146    1.288   .     A
C113   C117    1.426   .     A
C113   C115    1.416   .     A
C114   C570    1.398   .     S
C115   C571    1.398   1_554 S
C116   C119    1.428   .     A
C116   C567    1.425   .     S
C117   C118    1.428   .     A
C117   C566    1.425   1_554 S
C118   C120    1.395   .     A
C118   Cl125   1.772   .     S
C119   Cl126   1.772   .     S
C119   C121    1.395   .     A
C120   C564    1.398   1_554 S
C121   C565    1.398   .     S
C121   F32     1.360   1_655 S
C122   C273    1.348   .     S
C122   Cl277   1.779   .     S
C123   C422    1.348   1_545 S
C123   Cl428   1.779   1_545 S
C124   O149    1.296   .     A
C124   O147    1.301   .     A
Cl127  C422    1.779   1_545 S
Cl128  C273    1.779   .     S
Cu129  Cu130   2.682   .     S
Cu129  N142    2.015   .     S
Cu129  O146    1.962   .     S
Cu129  O143    1.969   .     S
Cu129  O147    1.937   .     S
Cu129  O150    1.915   .     S
Cu130  N141    2.015   .     S
Cu130  O145    1.962   .     S
Cu130  O144    1.969   .     S
Cu130  O148    1.937   .     S
Cu130  O149    1.915   .     S
F131   C20     1.360   1_655 S
F134   C7      1.358   1_655 S
F135   C5      1.358   1_655 S
H140   N42     1.029   1_655 S
N141   H39     1.029   1_655 S
N141   N42     1.283   1_655 S
C151   O195    1.288   .     A
C151   C172    1.425   .     S
C151   O193    1.285   .     A
C152   C154    1.474   .     S
C152   O200    1.296   .     A
C152   O198    1.301   .     A
C153   C159    1.400   .     A
C153   C174    1.474   .     S
C153   C157    1.403   .     A
C154   C158    1.403   .     A
C154   C160    1.400   .     A
C155   C164    1.412   .     A
C155   C157    1.396   .     A
C155   F285    1.358   1_455 S
C156   C158    1.396   .     A
C156   C165    1.412   .     A
C156   F236    1.358   .     S
C157   F284    1.358   1_455 S
C158   F233    1.358   .     S
C159   C161    1.401   .     A
C159   H188    1.078   .     S
C160   C163    1.401   .     A
C160   H187    1.078   .     S
C161   C164    1.416   .     A
C161   C166    1.426   .     A
C162   O194    1.285   .     A
C162   C173    1.425   .     S
C162   O196    1.288   .     A
C163   C167    1.426   .     A
C163   C165    1.416   .     A
C164   C620    1.398   .     S
C165   C621    1.398   1_554 S
C166   C169    1.428   .     A
C166   C617    1.425   .     S
C167   C168    1.428   .     A
C167   C616    1.425   1_554 S
C168   C170    1.395   .     A
C168   Cl175   1.772   .     S
C169   Cl176   1.772   .     S
C169   C171    1.395   .     A
C170   C614    1.398   1_554 S
C170   F281    1.360   1_455 S
C171   C615    1.398   .     S
C171   F232    1.360   .     S
C172   C323    1.348   .     S
C172   Cl327   1.779   .     S
C174   O199    1.296   .     A
C174   O197    1.301   .     A
Cl178  C323    1.779   .     S
Cu179  Cu180   2.682   .     S
Cu179  N192    2.015   .     S
Cu179  O196    1.962   .     S
Cu179  O193    1.969   .     S
Cu179  O197    1.937   .     S
Cu179  O200    1.915   .     S
Cu180  N191    2.015   .     S
Cu180  O195    1.962   .     S
Cu180  O194    1.969   .     S
Cu180  O198    1.937   .     S
Cu180  O199    1.915   .     S
F181   C220    1.360   .     S
F182   C271    1.360   1_455 S
F183   C258    1.358   1_455 S
F184   C207    1.358   .     S
F185   C205    1.358   .     S
F186   C256    1.358   1_455 S
H189   N291    1.029   1_455 S
H190   N242    1.029   .     S
N191   H239    1.029   .     S
N191   N242    1.283   .     S
N192   H290    1.029   1_455 S
N192   N291    1.283   1_455 S
C201   O245    1.288   .     A
C201   C222    1.425   .     S
C201   O243    1.285   .     A
C202   C204    1.474   .     S
C202   O250    1.296   .     A
C202   O248    1.301   .     A
C203   C209    1.400   .     A
C203   C224    1.474   .     S
C203   C207    1.403   .     A
C204   C208    1.403   .     A
C204   C210    1.400   .     A
C205   C214    1.412   .     A
C205   C207    1.396   .     A
C206   C208    1.396   .     A
C206   C215    1.412   .     A
C206   F286    1.358   .     S
C208   F283    1.358   .     S
C209   C211    1.401   .     A
C209   H238    1.078   .     S
C210   C213    1.401   .     A
C210   H237    1.078   .     S
C211   C214    1.416   .     A
C211   C216    1.426   .     A
C212   O244    1.285   .     A
C212   C223    1.425   .     S
C212   O246    1.288   .     A
C213   C217    1.426   .     A
C213   C215    1.416   .     A
C214   C670    1.398   .     S
C215   C671    1.398   1_554 S
C216   C219    1.428   .     A
C216   C667    1.425   .     S
C217   C218    1.428   .     A
C217   C666    1.425   1_554 S
C218   C220    1.395   .     A
C218   Cl225   1.772   .     S
C219   Cl226   1.772   .     S
C219   C221    1.395   .     A
C220   C664    1.398   1_554 S
C221   C665    1.398   .     S
C221   F282    1.360   .     S
C222   C373    1.348   .     S
C222   Cl377   1.779   .     S
C224   O249    1.296   .     A
C224   O247    1.301   .     A
Cl228  C373    1.779   .     S
Cu229  Cu230   2.682   .     S
Cu229  N242    2.015   .     S
Cu229  O246    1.962   .     S
Cu229  O243    1.969   .     S
Cu229  O247    1.937   .     S
Cu229  O250    1.915   .     S
Cu230  N241    2.015   .     S
Cu230  O245    1.962   .     S
Cu230  O244    1.969   .     S
Cu230  O248    1.937   .     S
Cu230  O249    1.915   .     S
F231   C270    1.360   .     S
F234   C257    1.358   .     S
F235   C255    1.358   .     S
H240   N292    1.029   .     S
N241   H289    1.029   .     S
N241   N292    1.283   .     S
C251   O295    1.288   .     A
C251   C272    1.425   .     S
C251   O293    1.285   .     A
C252   C254    1.474   .     S
C252   O300    1.296   .     A
C252   O298    1.301   .     A
C253   C259    1.400   .     A
C253   C274    1.474   .     S
C253   C257    1.403   .     A
C254   C258    1.403   .     A
C254   C260    1.400   .     A
C255   C264    1.412   .     A
C255   C257    1.396   .     A
C256   C258    1.396   .     A
C256   C265    1.412   .     A
C256   F186    1.358   1_655 S
C258   F183    1.358   1_655 S
C259   C261    1.401   .     A
C259   H288    1.078   .     S
C260   C263    1.401   .     A
C260   H287    1.078   .     S
C261   C264    1.416   .     A
C261   C266    1.426   .     A
C262   O294    1.285   .     A
C262   C273    1.425   .     S
C262   O296    1.288   .     A
C263   C267    1.426   .     A
C263   C265    1.416   .     A
C264   C720    1.398   .     S
C265   C721    1.398   1_554 S
C266   C269    1.428   .     A
C266   C717    1.425   .     S
C267   C268    1.428   .     A
C267   C716    1.425   1_554 S
C268   C270    1.395   .     A
C268   Cl275   1.772   .     S
C269   Cl276   1.772   .     S
C269   C271    1.395   .     A
C270   C714    1.398   1_554 S
C271   C715    1.398   .     S
C271   F182    1.360   1_655 S
C272   C423    1.348   .     S
C272   Cl427   1.779   .     S
C274   O299    1.296   .     A
C274   O297    1.301   .     A
Cl278  C423    1.779   .     S
Cu279  Cu280   2.682   .     S
Cu279  N292    2.015   .     S
Cu279  O296    1.962   .     S
Cu279  O293    1.969   .     S
Cu279  O297    1.937   .     S
Cu279  O300    1.915   .     S
Cu280  N291    2.015   .     S
Cu280  O295    1.962   .     S
Cu280  O294    1.969   .     S
Cu280  O298    1.937   .     S
Cu280  O299    1.915   .     S
F281   C170    1.360   1_655 S
F284   C157    1.358   1_655 S
F285   C155    1.358   1_655 S
H290   N192    1.029   1_655 S
N291   H189    1.029   1_655 S
N291   N192    1.283   1_655 S
C301   O345    1.288   .     A
C301   C322    1.425   .     S
C301   O343    1.285   .     A
C302   C304    1.474   .     S
C302   O350    1.296   .     A
C302   O348    1.301   .     A
C303   C309    1.400   .     A
C303   C324    1.474   .     S
C303   C307    1.403   .     A
C304   C308    1.403   .     A
C304   C310    1.400   .     A
C305   C314    1.412   .     A
C305   C307    1.396   .     A
C305   F435    1.358   1_455 S
C306   C308    1.396   .     A
C306   C315    1.412   .     A
C306   F386    1.358   .     S
C307   F434    1.358   1_455 S
C308   F383    1.358   .     S
C309   C311    1.401   .     A
C309   H338    1.078   .     S
C310   C313    1.401   .     A
C310   H337    1.078   .     S
C311   C314    1.416   .     A
C311   C316    1.426   .     A
C312   O344    1.285   .     A
C312   C323    1.425   .     S
C312   O346    1.288   .     A
C313   C317    1.426   .     A
C313   C315    1.416   .     A
C314   C770    1.398   .     S
C315   C771    1.398   1_554 S
C316   C319    1.428   .     A
C316   C767    1.425   .     S
C317   C318    1.428   .     A
C317   C766    1.425   1_554 S
C318   C320    1.395   .     A
C318   Cl325   1.772   .     S
C319   Cl326   1.772   .     S
C319   C321    1.395   .     A
C320   C764    1.398   1_554 S
C320   F431    1.360   1_455 S
C321   C765    1.398   .     S
C321   F382    1.360   .     S
C322   C23     1.348   1_565 S
C322   Cl27    1.779   1_565 S
C324   O349    1.296   .     A
C324   O347    1.301   .     A
Cl328  C23     1.779   1_565 S
Cu329  Cu330   2.682   .     S
Cu329  N342    2.015   .     S
Cu329  O346    1.962   .     S
Cu329  O343    1.969   .     S
Cu329  O347    1.937   .     S
Cu329  O350    1.915   .     S
Cu330  N341    2.015   .     S
Cu330  O345    1.962   .     S
Cu330  O344    1.969   .     S
Cu330  O348    1.937   .     S
Cu330  O349    1.915   .     S
F331   C370    1.360   .     S
F332   C421    1.360   1_455 S
F333   C408    1.358   1_455 S
F334   C357    1.358   .     S
F335   C355    1.358   .     S
F336   C406    1.358   1_455 S
H339   N441    1.029   1_455 S
H340   N392    1.029   .     S
N341   H389    1.029   .     S
N341   N392    1.283   .     S
N342   H440    1.029   1_455 S
N342   N441    1.283   1_455 S
C351   O395    1.288   .     A
C351   C372    1.425   .     S
C351   O393    1.285   .     A
C352   C354    1.474   .     S
C352   O400    1.296   .     A
C352   O398    1.301   .     A
C353   C359    1.400   .     A
C353   C374    1.474   .     S
C353   C357    1.403   .     A
C354   C358    1.403   .     A
C354   C360    1.400   .     A
C355   C364    1.412   .     A
C355   C357    1.396   .     A
C356   C358    1.396   .     A
C356   C365    1.412   .     A
C356   F436    1.358   .     S
C358   F433    1.358   .     S
C359   C361    1.401   .     A
C359   H388    1.078   .     S
C360   C363    1.401   .     A
C360   H387    1.078   .     S
C361   C364    1.416   .     A
C361   C366    1.426   .     A
C362   O394    1.285   .     A
C362   C373    1.425   .     S
C362   O396    1.288   .     A
C363   C367    1.426   .     A
C363   C365    1.416   .     A
C364   C820    1.398   .     S
C365   C821    1.398   1_554 S
C366   C369    1.428   .     A
C366   C817    1.425   .     S
C367   C368    1.428   .     A
C367   C816    1.425   1_554 S
C368   C370    1.395   .     A
C368   Cl375   1.772   .     S
C369   Cl376   1.772   .     S
C369   C371    1.395   .     A
C370   C814    1.398   1_554 S
C371   C815    1.398   .     S
C371   F432    1.360   .     S
C372   C73     1.348   1_565 S
C372   Cl77    1.779   1_565 S
C374   O399    1.296   .     A
C374   O397    1.301   .     A
Cl378  C73     1.779   1_565 S
Cu379  Cu380   2.682   .     S
Cu379  N392    2.015   .     S
Cu379  O396    1.962   .     S
Cu379  O393    1.969   .     S
Cu379  O397    1.937   .     S
Cu379  O400    1.915   .     S
Cu380  N391    2.015   .     S
Cu380  O395    1.962   .     S
Cu380  O394    1.969   .     S
Cu380  O398    1.937   .     S
Cu380  O399    1.915   .     S
F381   C420    1.360   .     S
F384   C407    1.358   .     S
F385   C405    1.358   .     S
H390   N442    1.029   .     S
N391   H439    1.029   .     S
N391   N442    1.283   .     S
C401   O445    1.288   .     A
C401   C422    1.425   .     S
C401   O443    1.285   .     A
C402   C404    1.474   .     S
C402   O450    1.296   .     A
C402   O448    1.301   .     A
C403   C409    1.400   .     A
C403   C424    1.474   .     S
C403   C407    1.403   .     A
C404   C408    1.403   .     A
C404   C410    1.400   .     A
C405   C414    1.412   .     A
C405   C407    1.396   .     A
C406   C408    1.396   .     A
C406   C415    1.412   .     A
C406   F336    1.358   1_655 S
C408   F333    1.358   1_655 S
C409   C411    1.401   .     A
C409   H438    1.078   .     S
C410   C413    1.401   .     A
C410   H437    1.078   .     S
C411   C414    1.416   .     A
C411   C416    1.426   .     A
C412   O444    1.285   .     A
C412   C423    1.425   .     S
C412   O446    1.288   .     A
C413   C417    1.426   .     A
C413   C415    1.416   .     A
C414   C870    1.398   .     S
C415   C871    1.398   1_554 S
C416   C419    1.428   .     A
C416   C867    1.425   .     S
C417   C418    1.428   .     A
C417   C866    1.425   1_554 S
C418   C420    1.395   .     A
C418   Cl425   1.772   .     S
C419   Cl426   1.772   .     S
C419   C421    1.395   .     A
C420   C864    1.398   1_554 S
C421   C865    1.398   .     S
C421   F332    1.360   1_655 S
C422   C123    1.348   1_565 S
C422   Cl127   1.779   1_565 S
C424   O449    1.296   .     A
C424   O447    1.301   .     A
Cl428  C123    1.779   1_565 S
Cu429  Cu430   2.682   .     S
Cu429  N442    2.015   .     S
Cu429  O446    1.962   .     S
Cu429  O443    1.969   .     S
Cu429  O447    1.937   .     S
Cu429  O450    1.915   .     S
Cu430  N441    2.015   .     S
Cu430  O445    1.962   .     S
Cu430  O444    1.969   .     S
Cu430  O448    1.937   .     S
Cu430  O449    1.915   .     S
F431   C320    1.360   1_655 S
F434   C307    1.358   1_655 S
F435   C305    1.358   1_655 S
H440   N342    1.029   1_655 S
N441   H339    1.029   1_655 S
N441   N342    1.283   1_655 S
C451   O495    1.288   .     A
C451   C472    1.425   .     S
C451   O493    1.285   .     A
C452   C454    1.474   .     S
C452   O500    1.296   .     A
C452   O498    1.301   .     A
C453   C459    1.400   .     A
C453   C474    1.474   .     S
C453   C457    1.403   .     A
C454   C458    1.403   .     A
C454   C460    1.400   .     A
C455   C464    1.412   .     A
C455   C457    1.396   .     A
C455   F585    1.358   1_455 S
C456   C458    1.396   .     A
C456   C465    1.412   .     A
C456   F536    1.358   .     S
C457   F584    1.358   1_455 S
C458   F533    1.358   .     S
C459   C461    1.401   .     A
C459   H488    1.078   .     S
C460   C463    1.401   .     A
C460   H487    1.078   .     S
C461   C464    1.416   .     A
C461   C466    1.426   .     A
C462   O494    1.285   .     A
C462   C473    1.425   .     S
C462   O496    1.288   .     A
C463   C467    1.426   .     A
C463   C465    1.416   .     A
C464   C20     1.398   1_556 S
C466   C469    1.428   .     A
C466   C17     1.425   1_556 S
C467   C468    1.428   .     A
C468   C470    1.395   .     A
C468   Cl475   1.772   .     S
C469   Cl476   1.772   .     S
C469   C471    1.395   .     A
C470   F581    1.360   1_455 S
C471   C15     1.398   1_556 S
C471   F532    1.360   .     S
C472   C623    1.348   .     S
C472   Cl627   1.779   .     S
C473   C772    1.348   1_545 S
C473   Cl778   1.779   1_545 S
C474   O499    1.296   .     A
C474   O497    1.301   .     A
Cl477  C772    1.779   1_545 S
Cl478  C623    1.779   .     S
Cu479  Cu480   2.682   .     S
Cu479  N492    2.015   .     S
Cu479  O496    1.962   .     S
Cu479  O493    1.969   .     S
Cu479  O497    1.937   .     S
Cu479  O500    1.915   .     S
Cu480  N491    2.015   .     S
Cu480  O495    1.962   .     S
Cu480  O494    1.969   .     S
Cu480  O498    1.937   .     S
Cu480  O499    1.915   .     S
F481   C520    1.360   .     S
F482   C571    1.360   1_455 S
F483   C558    1.358   1_455 S
F484   C507    1.358   .     S
F485   C505    1.358   .     S
F486   C556    1.358   1_455 S
H489   N591    1.029   1_455 S
H490   N542    1.029   .     S
N491   H539    1.029   .     S
N491   N542    1.283   .     S
N492   H590    1.029   1_455 S
N492   N591    1.283   1_455 S
C501   O545    1.288   .     A
C501   C522    1.425   .     S
C501   O543    1.285   .     A
C502   C504    1.474   .     S
C502   O550    1.296   .     A
C502   O548    1.301   .     A
C503   C509    1.400   .     A
C503   C524    1.474   .     S
C503   C507    1.403   .     A
C504   C508    1.403   .     A
C504   C510    1.400   .     A
C505   C514    1.412   .     A
C505   C507    1.396   .     A
C506   C508    1.396   .     A
C506   C515    1.412   .     A
C506   F586    1.358   .     S
C508   F583    1.358   .     S
C509   C511    1.401   .     A
C509   H538    1.078   .     S
C510   C513    1.401   .     A
C510   H537    1.078   .     S
C511   C514    1.416   .     A
C511   C516    1.426   .     A
C512   O544    1.285   .     A
C512   C523    1.425   .     S
C512   O546    1.288   .     A
C513   C517    1.426   .     A
C513   C515    1.416   .     A
C514   C70     1.398   1_556 S
C516   C519    1.428   .     A
C516   C67     1.425   1_556 S
C517   C518    1.428   .     A
C518   C520    1.395   .     A
C518   Cl525   1.772   .     S
C519   Cl526   1.772   .     S
C519   C521    1.395   .     A
C521   C65     1.398   1_556 S
C521   F582    1.360   .     S
C522   C673    1.348   .     S
C522   Cl677   1.779   .     S
C523   C822    1.348   1_545 S
C523   Cl828   1.779   1_545 S
C524   O549    1.296   .     A
C524   O547    1.301   .     A
Cl527  C822    1.779   1_545 S
Cl528  C673    1.779   .     S
Cu529  Cu530   2.682   .     S
Cu529  N542    2.015   .     S
Cu529  O546    1.962   .     S
Cu529  O543    1.969   .     S
Cu529  O547    1.937   .     S
Cu529  O550    1.915   .     S
Cu530  N541    2.015   .     S
Cu530  O545    1.962   .     S
Cu530  O544    1.969   .     S
Cu530  O548    1.937   .     S
Cu530  O549    1.915   .     S
F531   C570    1.360   .     S
F534   C557    1.358   .     S
F535   C555    1.358   .     S
H540   N592    1.029   .     S
N541   H589    1.029   .     S
N541   N592    1.283   .     S
C551   O595    1.288   .     A
C551   C572    1.425   .     S
C551   O593    1.285   .     A
C552   C554    1.474   .     S
C552   O600    1.296   .     A
C552   O598    1.301   .     A
C553   C559    1.400   .     A
C553   C574    1.474   .     S
C553   C557    1.403   .     A
C554   C558    1.403   .     A
C554   C560    1.400   .     A
C555   C564    1.412   .     A
C555   C557    1.396   .     A
C556   C558    1.396   .     A
C556   C565    1.412   .     A
C556   F486    1.358   1_655 S
C558   F483    1.358   1_655 S
C559   C561    1.401   .     A
C559   H588    1.078   .     S
C560   C563    1.401   .     A
C560   H587    1.078   .     S
C561   C564    1.416   .     A
C561   C566    1.426   .     A
C562   O594    1.285   .     A
C562   C573    1.425   .     S
C562   O596    1.288   .     A
C563   C567    1.426   .     A
C563   C565    1.416   .     A
C564   C120    1.398   1_556 S
C566   C569    1.428   .     A
C566   C117    1.425   1_556 S
C567   C568    1.428   .     A
C568   C570    1.395   .     A
C568   Cl575   1.772   .     S
C569   Cl576   1.772   .     S
C569   C571    1.395   .     A
C571   C115    1.398   1_556 S
C571   F482    1.360   1_655 S
C572   C723    1.348   .     S
C572   Cl727   1.779   .     S
C573   C872    1.348   1_545 S
C573   Cl878   1.779   1_545 S
C574   O599    1.296   .     A
C574   O597    1.301   .     A
Cl577  C872    1.779   1_545 S
Cl578  C723    1.779   .     S
Cu579  Cu580   2.682   .     S
Cu579  N592    2.015   .     S
Cu579  O596    1.962   .     S
Cu579  O593    1.969   .     S
Cu579  O597    1.937   .     S
Cu579  O600    1.915   .     S
Cu580  N591    2.015   .     S
Cu580  O595    1.962   .     S
Cu580  O594    1.969   .     S
Cu580  O598    1.937   .     S
Cu580  O599    1.915   .     S
F581   C470    1.360   1_655 S
F584   C457    1.358   1_655 S
F585   C455    1.358   1_655 S
H590   N492    1.029   1_655 S
N591   H489    1.029   1_655 S
N591   N492    1.283   1_655 S
C601   O645    1.288   .     A
C601   C622    1.425   .     S
C601   O643    1.285   .     A
C602   C604    1.474   .     S
C602   O650    1.296   .     A
C602   O648    1.301   .     A
C603   C609    1.400   .     A
C603   C624    1.474   .     S
C603   C607    1.403   .     A
C604   C608    1.403   .     A
C604   C610    1.400   .     A
C605   C614    1.412   .     A
C605   C607    1.396   .     A
C605   F735    1.358   1_455 S
C606   C608    1.396   .     A
C606   C615    1.412   .     A
C606   F686    1.358   .     S
C607   F734    1.358   1_455 S
C608   F683    1.358   .     S
C609   C611    1.401   .     A
C609   H638    1.078   .     S
C610   C613    1.401   .     A
C610   H637    1.078   .     S
C611   C614    1.416   .     A
C611   C616    1.426   .     A
C612   O644    1.285   .     A
C612   C623    1.425   .     S
C612   O646    1.288   .     A
C613   C617    1.426   .     A
C613   C615    1.416   .     A
C614   C170    1.398   1_556 S
C616   C619    1.428   .     A
C616   C167    1.425   1_556 S
C617   C618    1.428   .     A
C618   C620    1.395   .     A
C618   Cl625   1.772   .     S
C619   Cl626   1.772   .     S
C619   C621    1.395   .     A
C620   F731    1.360   1_455 S
C621   C165    1.398   1_556 S
C621   F682    1.360   .     S
C622   C773    1.348   .     S
C622   Cl777   1.779   .     S
C624   O649    1.296   .     A
C624   O647    1.301   .     A
Cl628  C773    1.779   .     S
Cu629  Cu630   2.682   .     S
Cu629  N642    2.015   .     S
Cu629  O646    1.962   .     S
Cu629  O643    1.969   .     S
Cu629  O647    1.937   .     S
Cu629  O650    1.915   .     S
Cu630  N641    2.015   .     S
Cu630  O645    1.962   .     S
Cu630  O644    1.969   .     S
Cu630  O648    1.937   .     S
Cu630  O649    1.915   .     S
F631   C670    1.360   .     S
F632   C721    1.360   1_455 S
F633   C708    1.358   1_455 S
F634   C657    1.358   .     S
F635   C655    1.358   .     S
F636   C706    1.358   1_455 S
H639   N741    1.029   1_455 S
H640   N692    1.029   .     S
N641   H689    1.029   .     S
N641   N692    1.283   .     S
N642   H740    1.029   1_455 S
N642   N741    1.283   1_455 S
C651   O695    1.288   .     A
C651   C672    1.425   .     S
C651   O693    1.285   .     A
C652   C654    1.474   .     S
C652   O700    1.296   .     A
C652   O698    1.301   .     A
C653   C659    1.400   .     A
C653   C674    1.474   .     S
C653   C657    1.403   .     A
C654   C658    1.403   .     A
C654   C660    1.400   .     A
C655   C664    1.412   .     A
C655   C657    1.396   .     A
C656   C658    1.396   .     A
C656   C665    1.412   .     A
C656   F736    1.358   .     S
C658   F733    1.358   .     S
C659   C661    1.401   .     A
C659   H688    1.078   .     S
C660   C663    1.401   .     A
C660   H687    1.078   .     S
C661   C664    1.416   .     A
C661   C666    1.426   .     A
C662   O694    1.285   .     A
C662   C673    1.425   .     S
C662   O696    1.288   .     A
C663   C667    1.426   .     A
C663   C665    1.416   .     A
C664   C220    1.398   1_556 S
C666   C669    1.428   .     A
C666   C217    1.425   1_556 S
C667   C668    1.428   .     A
C668   C670    1.395   .     A
C668   Cl675   1.772   .     S
C669   Cl676   1.772   .     S
C669   C671    1.395   .     A
C671   C215    1.398   1_556 S
C671   F732    1.360   .     S
C672   C823    1.348   .     S
C672   Cl827   1.779   .     S
C674   O699    1.296   .     A
C674   O697    1.301   .     A
Cl678  C823    1.779   .     S
Cu679  Cu680   2.682   .     S
Cu679  N692    2.015   .     S
Cu679  O696    1.962   .     S
Cu679  O693    1.969   .     S
Cu679  O697    1.937   .     S
Cu679  O700    1.915   .     S
Cu680  N691    2.015   .     S
Cu680  O695    1.962   .     S
Cu680  O694    1.969   .     S
Cu680  O698    1.937   .     S
Cu680  O699    1.915   .     S
F681   C720    1.360   .     S
F684   C707    1.358   .     S
F685   C705    1.358   .     S
H690   N742    1.029   .     S
N691   H739    1.029   .     S
N691   N742    1.283   .     S
C701   O745    1.288   .     A
C701   C722    1.425   .     S
C701   O743    1.285   .     A
C702   C704    1.474   .     S
C702   O750    1.296   .     A
C702   O748    1.301   .     A
C703   C709    1.400   .     A
C703   C724    1.474   .     S
C703   C707    1.403   .     A
C704   C708    1.403   .     A
C704   C710    1.400   .     A
C705   C714    1.412   .     A
C705   C707    1.396   .     A
C706   C708    1.396   .     A
C706   C715    1.412   .     A
C706   F636    1.358   1_655 S
C708   F633    1.358   1_655 S
C709   C711    1.401   .     A
C709   H738    1.078   .     S
C710   C713    1.401   .     A
C710   H737    1.078   .     S
C711   C714    1.416   .     A
C711   C716    1.426   .     A
C712   O744    1.285   .     A
C712   C723    1.425   .     S
C712   O746    1.288   .     A
C713   C717    1.426   .     A
C713   C715    1.416   .     A
C714   C270    1.398   1_556 S
C716   C719    1.428   .     A
C716   C267    1.425   1_556 S
C717   C718    1.428   .     A
C718   C720    1.395   .     A
C718   Cl725   1.772   .     S
C719   Cl726   1.772   .     S
C719   C721    1.395   .     A
C721   C265    1.398   1_556 S
C721   F632    1.360   1_655 S
C722   C873    1.348   .     S
C722   Cl877   1.779   .     S
C724   O749    1.296   .     A
C724   O747    1.301   .     A
Cl728  C873    1.779   .     S
Cu729  Cu730   2.682   .     S
Cu729  N742    2.015   .     S
Cu729  O746    1.962   .     S
Cu729  O743    1.969   .     S
Cu729  O747    1.937   .     S
Cu729  O750    1.915   .     S
Cu730  N741    2.015   .     S
Cu730  O745    1.962   .     S
Cu730  O744    1.969   .     S
Cu730  O748    1.937   .     S
Cu730  O749    1.915   .     S
F731   C620    1.360   1_655 S
F734   C607    1.358   1_655 S
F735   C605    1.358   1_655 S
H740   N642    1.029   1_655 S
N741   H639    1.029   1_655 S
N741   N642    1.283   1_655 S
C751   O795    1.288   .     A
C751   C772    1.425   .     S
C751   O793    1.285   .     A
C752   C754    1.474   .     S
C752   O800    1.296   .     A
C752   O798    1.301   .     A
C753   C759    1.400   .     A
C753   C774    1.474   .     S
C753   C757    1.403   .     A
C754   C758    1.403   .     A
C754   C760    1.400   .     A
C755   C764    1.412   .     A
C755   C757    1.396   .     A
C755   F885    1.358   1_455 S
C756   C758    1.396   .     A
C756   C765    1.412   .     A
C756   F836    1.358   .     S
C757   F884    1.358   1_455 S
C758   F833    1.358   .     S
C759   C761    1.401   .     A
C759   H788    1.078   .     S
C760   C763    1.401   .     A
C760   H787    1.078   .     S
C761   C764    1.416   .     A
C761   C766    1.426   .     A
C762   O794    1.285   .     A
C762   C773    1.425   .     S
C762   O796    1.288   .     A
C763   C767    1.426   .     A
C763   C765    1.416   .     A
C764   C320    1.398   1_556 S
C766   C769    1.428   .     A
C766   C317    1.425   1_556 S
C767   C768    1.428   .     A
C768   C770    1.395   .     A
C768   Cl775   1.772   .     S
C769   Cl776   1.772   .     S
C769   C771    1.395   .     A
C770   F881    1.360   1_455 S
C771   C315    1.398   1_556 S
C771   F832    1.360   .     S
C772   C473    1.348   1_565 S
C772   Cl477   1.779   1_565 S
C774   O799    1.296   .     A
C774   O797    1.301   .     A
Cl778  C473    1.779   1_565 S
Cu779  Cu780   2.682   .     S
Cu779  N792    2.015   .     S
Cu779  O796    1.962   .     S
Cu779  O793    1.969   .     S
Cu779  O797    1.937   .     S
Cu779  O800    1.915   .     S
Cu780  N791    2.015   .     S
Cu780  O795    1.962   .     S
Cu780  O794    1.969   .     S
Cu780  O798    1.937   .     S
Cu780  O799    1.915   .     S
F781   C820    1.360   .     S
F782   C871    1.360   1_455 S
F783   C858    1.358   1_455 S
F784   C807    1.358   .     S
F785   C805    1.358   .     S
F786   C856    1.358   1_455 S
H789   N891    1.029   1_455 S
H790   N842    1.029   .     S
N791   H839    1.029   .     S
N791   N842    1.283   .     S
N792   H890    1.029   1_455 S
N792   N891    1.283   1_455 S
C801   O845    1.288   .     A
C801   C822    1.425   .     S
C801   O843    1.285   .     A
C802   C804    1.474   .     S
C802   O850    1.296   .     A
C802   O848    1.301   .     A
C803   C809    1.400   .     A
C803   C824    1.474   .     S
C803   C807    1.403   .     A
C804   C808    1.403   .     A
C804   C810    1.400   .     A
C805   C814    1.412   .     A
C805   C807    1.396   .     A
C806   C808    1.396   .     A
C806   C815    1.412   .     A
C806   F886    1.358   .     S
C808   F883    1.358   .     S
C809   C811    1.401   .     A
C809   H838    1.078   .     S
C810   C813    1.401   .     A
C810   H837    1.078   .     S
C811   C814    1.416   .     A
C811   C816    1.426   .     A
C812   O844    1.285   .     A
C812   C823    1.425   .     S
C812   O846    1.288   .     A
C813   C817    1.426   .     A
C813   C815    1.416   .     A
C814   C370    1.398   1_556 S
C816   C819    1.428   .     A
C816   C367    1.425   1_556 S
C817   C818    1.428   .     A
C818   C820    1.395   .     A
C818   Cl825   1.772   .     S
C819   Cl826   1.772   .     S
C819   C821    1.395   .     A
C821   C365    1.398   1_556 S
C821   F882    1.360   .     S
C822   C523    1.348   1_565 S
C822   Cl527   1.779   1_565 S
C824   O849    1.296   .     A
C824   O847    1.301   .     A
Cl828  C523    1.779   1_565 S
Cu829  Cu830   2.682   .     S
Cu829  N842    2.015   .     S
Cu829  O846    1.962   .     S
Cu829  O843    1.969   .     S
Cu829  O847    1.937   .     S
Cu829  O850    1.915   .     S
Cu830  N841    2.015   .     S
Cu830  O845    1.962   .     S
Cu830  O844    1.969   .     S
Cu830  O848    1.937   .     S
Cu830  O849    1.915   .     S
F831   C870    1.360   .     S
F834   C857    1.358   .     S
F835   C855    1.358   .     S
H840   N892    1.029   .     S
N841   H889    1.029   .     S
N841   N892    1.283   .     S
C851   O895    1.288   .     A
C851   C872    1.425   .     S
C851   O893    1.285   .     A
C852   C854    1.474   .     S
C852   O900    1.296   .     A
C852   O898    1.301   .     A
C853   C859    1.400   .     A
C853   C874    1.474   .     S
C853   C857    1.403   .     A
C854   C858    1.403   .     A
C854   C860    1.400   .     A
C855   C864    1.412   .     A
C855   C857    1.396   .     A
C856   C858    1.396   .     A
C856   C865    1.412   .     A
C856   F786    1.358   1_655 S
C858   F783    1.358   1_655 S
C859   C861    1.401   .     A
C859   H888    1.078   .     S
C860   C863    1.401   .     A
C860   H887    1.078   .     S
C861   C864    1.416   .     A
C861   C866    1.426   .     A
C862   O894    1.285   .     A
C862   C873    1.425   .     S
C862   O896    1.288   .     A
C863   C867    1.426   .     A
C863   C865    1.416   .     A
C864   C420    1.398   1_556 S
C866   C869    1.428   .     A
C866   C417    1.425   1_556 S
C867   C868    1.428   .     A
C868   C870    1.395   .     A
C868   Cl875   1.772   .     S
C869   Cl876   1.772   .     S
C869   C871    1.395   .     A
C871   C415    1.398   1_556 S
C871   F782    1.360   1_655 S
C872   C573    1.348   1_565 S
C872   Cl577   1.779   1_565 S
C874   O899    1.296   .     A
C874   O897    1.301   .     A
Cl878  C573    1.779   1_565 S
Cu879  Cu880   2.682   .     S
Cu879  N892    2.015   .     S
Cu879  O896    1.962   .     S
Cu879  O893    1.969   .     S
Cu879  O897    1.937   .     S
Cu879  O900    1.915   .     S
Cu880  N891    2.015   .     S
Cu880  O895    1.962   .     S
Cu880  O894    1.969   .     S
Cu880  O898    1.937   .     S
Cu880  O899    1.915   .     S
F881   C770    1.360   1_655 S
F884   C757    1.358   1_655 S
F885   C755    1.358   1_655 S
H890   N792    1.029   1_655 S
N891   H789    1.029   1_655 S
N891   N792    1.283   1_655 S
