data_str_m2_o1_o17_pcu_sym.84
_audit_creation_date              2020-01-03
_audit_creation_method            'Materials Studio'
_symmetry_space_group_name_H-M    'P1'
_symmetry_Int_Tables_number       1
_symmetry_cell_setting            triclinic
loop_
_symmetry_equiv_pos_as_xyz
  x,y,z
_cell_length_a                    32.4879
_cell_length_b                    28.6803
_cell_length_c                    30.3231
_cell_angle_alpha                 90.8495
_cell_angle_beta                  91.5847
_cell_angle_gamma                 89.9806
loop_
_atom_site_label
_atom_site_type_symbol
_atom_site_fract_x
_atom_site_fract_y
_atom_site_fract_z
_atom_site_U_iso_or_equiv
_atom_site_adp_type
_atom_site_occupancy
C1     C     0.08740   0.16667   0.24995   0.00000  Uiso   1.00
C2     C     0.04276   0.16667   0.24998   0.00000  Uiso   1.00
C3     C     0.14058   0.02445   0.22223   0.00000  Uiso   1.00
C4     C     0.19275   0.30888   0.27777   0.00000  Uiso   1.00
C5     C     0.19290   0.02520   0.27764   0.00000  Uiso   1.00
C6     C     0.14044   0.30814   0.22236   0.00000  Uiso   1.00
C7     C     0.16780   0.16620   0.16440   0.00000  Uiso   1.00
C8     C     0.16553   0.16714   0.33560   0.00000  Uiso   1.00
C9     C     0.17519   0.12771   0.40644   0.00000  Uiso   1.00
C10    C     0.15814   0.20562   0.09356   0.00000  Uiso   1.00
C11    C     0.16410   0.16824   0.38406   0.00000  Uiso   1.00
C12    C     0.24594   0.16666   0.25005   0.00000  Uiso   1.00
C13    C     0.16924   0.16509   0.11594   0.00000  Uiso   1.00
C14    C     0.15228   0.20858   0.40806   0.00000  Uiso   1.00
C15    C     0.18105   0.12475   0.09194   0.00000  Uiso   1.00
C16    C     0.15398   0.20822   0.45459   0.00000  Uiso   1.00
C17    C     0.17935   0.12511   0.04542   0.00000  Uiso   1.00
C18    C     0.16592   0.16698   0.47673   0.00000  Uiso   1.00
C19    C     0.16741   0.16635   0.02327   0.00000  Uiso   1.00
C20    C     0.17618   0.12632   0.45243   0.00000  Uiso   1.00
C21    C     0.15715   0.20701   0.04757   0.00000  Uiso   1.00
C22    C     0.14414   0.24832   0.47947   0.00000  Uiso   1.00
C23    C     0.14575   0.24810   0.02533   0.00000  Uiso   1.00
C24    C     0.18919   0.08501   0.02053   0.00000  Uiso   1.00
C25    C     0.13704   0.24969   0.38538   0.00000  Uiso   1.00
C26    C     0.19629   0.08365   0.11462   0.00000  Uiso   1.00
C27    C     0.13554   0.29086   0.04855   0.00000  Uiso   1.00
C28    C     0.19779   0.04247   0.45145   0.00000  Uiso   1.00
C29    C     0.11313   0.04881   0.19219   0.00000  Uiso   1.00
C30    C     0.22020   0.28453   0.30781   0.00000  Uiso   1.00
C31    C     0.22142   0.05023   0.30667   0.00000  Uiso   1.00
C32    C     0.11192   0.28311   0.19333   0.00000  Uiso   1.00
C33    C     0.18758   0.08523   0.47467   0.00000  Uiso   1.00
C34    C     0.02128   0.12430   0.24911   0.00000  Uiso   1.00
C35    C     0.31205   0.20904   0.25089   0.00000  Uiso   1.00
C36    C     0.31203   0.12429   0.24910   0.00000  Uiso   1.00
C37    C     0.02130   0.20904   0.25090   0.00000  Uiso   1.00
C38    C     0.29057   0.16666   0.25002   0.00000  Uiso   1.00
Cu39   Cu    0.16667   0.21355   0.25000   0.00000  Uiso   1.00
Cu40   Cu    0.16667   0.11978   0.25000   0.00000  Uiso   1.00
H41    H     0.18359   0.09699   0.38763   0.00000  Uiso   1.00
H42    H     0.14975   0.23634   0.11237   0.00000  Uiso   1.00
H43    H     0.13528   0.28047   0.46345   0.00000  Uiso   1.00
H44    H     0.19805   0.05287   0.03655   0.00000  Uiso   1.00
H45    H     0.03727   0.09116   0.24841   0.00000  Uiso   1.00
H46    H     0.29607   0.24218   0.25159   0.00000  Uiso   1.00
H47    H     0.29603   0.09115   0.24833   0.00000  Uiso   1.00
H48    H     0.03731   0.24218   0.25167   0.00000  Uiso   1.00
N49    N     0.16667   0.28402   0.25000   0.00000  Uiso   1.00
N50    N     0.08881   0.26350   0.16998   0.00000  Uiso   1.00
N51    N     0.16667   0.04931   0.25000   0.00000  Uiso   1.00
N52    N     0.12486   0.28247   0.36741   0.00000  Uiso   1.00
N53    N     0.20848   0.05086   0.13259   0.00000  Uiso   1.00
N54    N     0.12738   0.32504   0.06711   0.00000  Uiso   1.00
N55    N     0.20595   0.00829   0.43289   0.00000  Uiso   1.00
N56    N     0.09104   0.06794   0.16793   0.00000  Uiso   1.00
N57    N     0.24230   0.26539   0.33207   0.00000  Uiso   1.00
N58    N     0.24453   0.06983   0.33002   0.00000  Uiso   1.00
O59    O     0.10655   0.20625   0.24999   0.00000  Uiso   1.00
O60    O     0.22679   0.12709   0.25001   0.00000  Uiso   1.00
O61    O     0.22679   0.20625   0.25001   0.00000  Uiso   1.00
O62    O     0.10655   0.12709   0.25000   0.00000  Uiso   1.00
O63    O     0.16666   0.20627   0.18513   0.00000  Uiso   1.00
O64    O     0.16668   0.12707   0.31487   0.00000  Uiso   1.00
O65    O     0.16668   0.20627   0.31487   0.00000  Uiso   1.00
O66    O     0.16666   0.12707   0.18513   0.00000  Uiso   1.00
C67    C     0.42073   0.16667   0.24995   0.00000  Uiso   1.00
C68    C     0.37609   0.16667   0.24998   0.00000  Uiso   1.00
C69    C     0.47392   0.02445   0.22223   0.00000  Uiso   1.00
C70    C     0.52608   0.30888   0.27777   0.00000  Uiso   1.00
C71    C     0.52623   0.02520   0.27764   0.00000  Uiso   1.00
C72    C     0.47377   0.30814   0.22236   0.00000  Uiso   1.00
C73    C     0.50114   0.16620   0.16440   0.00000  Uiso   1.00
C74    C     0.49886   0.16714   0.33560   0.00000  Uiso   1.00
C75    C     0.50852   0.12771   0.40644   0.00000  Uiso   1.00
C76    C     0.49148   0.20562   0.09356   0.00000  Uiso   1.00
C77    C     0.49743   0.16824   0.38406   0.00000  Uiso   1.00
C78    C     0.57927   0.16666   0.25005   0.00000  Uiso   1.00
C79    C     0.50257   0.16509   0.11594   0.00000  Uiso   1.00
C80    C     0.48562   0.20858   0.40806   0.00000  Uiso   1.00
C81    C     0.51438   0.12475   0.09194   0.00000  Uiso   1.00
C82    C     0.48732   0.20822   0.45459   0.00000  Uiso   1.00
C83    C     0.51268   0.12511   0.04542   0.00000  Uiso   1.00
C84    C     0.49925   0.16698   0.47673   0.00000  Uiso   1.00
C85    C     0.50075   0.16635   0.02327   0.00000  Uiso   1.00
C86    C     0.50952   0.12632   0.45243   0.00000  Uiso   1.00
C87    C     0.49048   0.20701   0.04757   0.00000  Uiso   1.00
C88    C     0.47747   0.24832   0.47947   0.00000  Uiso   1.00
C89    C     0.47908   0.24810   0.02533   0.00000  Uiso   1.00
C90    C     0.52253   0.08501   0.02053   0.00000  Uiso   1.00
C91    C     0.47037   0.24969   0.38538   0.00000  Uiso   1.00
C92    C     0.52963   0.08365   0.11462   0.00000  Uiso   1.00
C93    C     0.46887   0.29086   0.04855   0.00000  Uiso   1.00
C94    C     0.53113   0.04247   0.45145   0.00000  Uiso   1.00
C95    C     0.44647   0.04881   0.19219   0.00000  Uiso   1.00
C96    C     0.55353   0.28453   0.30781   0.00000  Uiso   1.00
C97    C     0.55475   0.05023   0.30667   0.00000  Uiso   1.00
C98    C     0.44525   0.28311   0.19333   0.00000  Uiso   1.00
C99    C     0.52091   0.08523   0.47467   0.00000  Uiso   1.00
C100   C     0.35461   0.12430   0.24911   0.00000  Uiso   1.00
C101   C     0.64539   0.20904   0.25089   0.00000  Uiso   1.00
C102   C     0.64537   0.12429   0.24910   0.00000  Uiso   1.00
C103   C     0.35463   0.20904   0.25090   0.00000  Uiso   1.00
C104   C     0.62391   0.16666   0.25002   0.00000  Uiso   1.00
Cu105  Cu    0.50000   0.21355   0.25000   0.00000  Uiso   1.00
Cu106  Cu    0.50000   0.11978   0.25000   0.00000  Uiso   1.00
H107   H     0.51692   0.09699   0.38763   0.00000  Uiso   1.00
H108   H     0.48308   0.23634   0.11237   0.00000  Uiso   1.00
H109   H     0.46861   0.28047   0.46345   0.00000  Uiso   1.00
H110   H     0.53139   0.05287   0.03655   0.00000  Uiso   1.00
H111   H     0.37060   0.09116   0.24841   0.00000  Uiso   1.00
H112   H     0.62940   0.24218   0.25159   0.00000  Uiso   1.00
H113   H     0.62936   0.09115   0.24833   0.00000  Uiso   1.00
H114   H     0.37064   0.24218   0.25167   0.00000  Uiso   1.00
N115   N     0.50000   0.28402   0.25000   0.00000  Uiso   1.00
N116   N     0.42214   0.26350   0.16998   0.00000  Uiso   1.00
N117   N     0.50000   0.04931   0.25000   0.00000  Uiso   1.00
N118   N     0.45819   0.28247   0.36741   0.00000  Uiso   1.00
N119   N     0.54181   0.05086   0.13259   0.00000  Uiso   1.00
N120   N     0.46071   0.32504   0.06711   0.00000  Uiso   1.00
N121   N     0.53929   0.00829   0.43289   0.00000  Uiso   1.00
N122   N     0.42437   0.06794   0.16793   0.00000  Uiso   1.00
N123   N     0.57563   0.26539   0.33207   0.00000  Uiso   1.00
N124   N     0.57786   0.06983   0.33002   0.00000  Uiso   1.00
O125   O     0.43988   0.20625   0.24999   0.00000  Uiso   1.00
O126   O     0.56012   0.12709   0.25001   0.00000  Uiso   1.00
O127   O     0.56012   0.20625   0.25001   0.00000  Uiso   1.00
O128   O     0.43988   0.12709   0.25000   0.00000  Uiso   1.00
O129   O     0.49999   0.20627   0.18513   0.00000  Uiso   1.00
O130   O     0.50001   0.12707   0.31487   0.00000  Uiso   1.00
O131   O     0.50001   0.20627   0.31487   0.00000  Uiso   1.00
O132   O     0.49999   0.12707   0.18513   0.00000  Uiso   1.00
C133   C     0.75406   0.16667   0.24995   0.00000  Uiso   1.00
C134   C     0.70943   0.16667   0.24998   0.00000  Uiso   1.00
C135   C     0.80725   0.02445   0.22223   0.00000  Uiso   1.00
C136   C     0.85942   0.30888   0.27777   0.00000  Uiso   1.00
C137   C     0.85956   0.02520   0.27764   0.00000  Uiso   1.00
C138   C     0.80710   0.30814   0.22236   0.00000  Uiso   1.00
C139   C     0.83447   0.16620   0.16440   0.00000  Uiso   1.00
C140   C     0.83220   0.16714   0.33560   0.00000  Uiso   1.00
C141   C     0.84186   0.12771   0.40644   0.00000  Uiso   1.00
C142   C     0.82481   0.20562   0.09356   0.00000  Uiso   1.00
C143   C     0.83076   0.16824   0.38406   0.00000  Uiso   1.00
C144   C     0.91260   0.16666   0.25005   0.00000  Uiso   1.00
C145   C     0.83590   0.16509   0.11594   0.00000  Uiso   1.00
C146   C     0.81895   0.20858   0.40806   0.00000  Uiso   1.00
C147   C     0.84772   0.12475   0.09194   0.00000  Uiso   1.00
C148   C     0.82065   0.20822   0.45459   0.00000  Uiso   1.00
C149   C     0.84602   0.12511   0.04542   0.00000  Uiso   1.00
C150   C     0.83259   0.16698   0.47673   0.00000  Uiso   1.00
C151   C     0.83408   0.16635   0.02327   0.00000  Uiso   1.00
C152   C     0.84285   0.12632   0.45243   0.00000  Uiso   1.00
C153   C     0.82382   0.20701   0.04757   0.00000  Uiso   1.00
C154   C     0.81081   0.24832   0.47947   0.00000  Uiso   1.00
C155   C     0.81242   0.24810   0.02533   0.00000  Uiso   1.00
C156   C     0.85586   0.08501   0.02053   0.00000  Uiso   1.00
C157   C     0.80371   0.24969   0.38538   0.00000  Uiso   1.00
C158   C     0.86296   0.08365   0.11462   0.00000  Uiso   1.00
C159   C     0.80221   0.29086   0.04855   0.00000  Uiso   1.00
C160   C     0.86446   0.04247   0.45145   0.00000  Uiso   1.00
C161   C     0.77980   0.04881   0.19219   0.00000  Uiso   1.00
C162   C     0.88687   0.28453   0.30781   0.00000  Uiso   1.00
C163   C     0.88808   0.05023   0.30667   0.00000  Uiso   1.00
C164   C     0.77858   0.28311   0.19333   0.00000  Uiso   1.00
C165   C     0.85425   0.08523   0.47467   0.00000  Uiso   1.00
C166   C     0.68795   0.12430   0.24911   0.00000  Uiso   1.00
C167   C     0.97872   0.20904   0.25089   0.00000  Uiso   1.00
C168   C     0.97870   0.12429   0.24910   0.00000  Uiso   1.00
C169   C     0.68797   0.20904   0.25090   0.00000  Uiso   1.00
C170   C     0.95724   0.16666   0.25002   0.00000  Uiso   1.00
Cu171  Cu    0.83333   0.21355   0.25000   0.00000  Uiso   1.00
Cu172  Cu    0.83333   0.11978   0.25000   0.00000  Uiso   1.00
H173   H     0.85025   0.09699   0.38763   0.00000  Uiso   1.00
H174   H     0.81641   0.23634   0.11237   0.00000  Uiso   1.00
H175   H     0.80195   0.28047   0.46345   0.00000  Uiso   1.00
H176   H     0.86472   0.05287   0.03655   0.00000  Uiso   1.00
H177   H     0.70393   0.09116   0.24841   0.00000  Uiso   1.00
H178   H     0.96273   0.24218   0.25159   0.00000  Uiso   1.00
H179   H     0.96269   0.09115   0.24833   0.00000  Uiso   1.00
H180   H     0.70397   0.24218   0.25167   0.00000  Uiso   1.00
N181   N     0.83333   0.28402   0.25000   0.00000  Uiso   1.00
N182   N     0.75547   0.26350   0.16998   0.00000  Uiso   1.00
N183   N     0.83333   0.04931   0.25000   0.00000  Uiso   1.00
N184   N     0.79153   0.28247   0.36741   0.00000  Uiso   1.00
N185   N     0.87514   0.05086   0.13259   0.00000  Uiso   1.00
N186   N     0.79404   0.32504   0.06711   0.00000  Uiso   1.00
N187   N     0.87262   0.00829   0.43289   0.00000  Uiso   1.00
N188   N     0.75770   0.06794   0.16793   0.00000  Uiso   1.00
N189   N     0.90896   0.26539   0.33207   0.00000  Uiso   1.00
N190   N     0.91119   0.06983   0.33002   0.00000  Uiso   1.00
O191   O     0.77321   0.20625   0.24999   0.00000  Uiso   1.00
O192   O     0.89345   0.12709   0.25001   0.00000  Uiso   1.00
O193   O     0.89345   0.20625   0.25001   0.00000  Uiso   1.00
O194   O     0.77321   0.12709   0.25000   0.00000  Uiso   1.00
O195   O     0.83332   0.20627   0.18513   0.00000  Uiso   1.00
O196   O     0.83334   0.12707   0.31487   0.00000  Uiso   1.00
O197   O     0.83334   0.20627   0.31487   0.00000  Uiso   1.00
O198   O     0.83332   0.12707   0.18513   0.00000  Uiso   1.00
C199   C     0.08740   0.50000   0.24995   0.00000  Uiso   1.00
C200   C     0.04276   0.50001   0.24998   0.00000  Uiso   1.00
C201   C     0.14058   0.35778   0.22223   0.00000  Uiso   1.00
C202   C     0.19275   0.64222   0.27777   0.00000  Uiso   1.00
C203   C     0.19290   0.35853   0.27764   0.00000  Uiso   1.00
C204   C     0.14044   0.64147   0.22236   0.00000  Uiso   1.00
C205   C     0.16780   0.49953   0.16440   0.00000  Uiso   1.00
C206   C     0.16553   0.50047   0.33560   0.00000  Uiso   1.00
C207   C     0.17519   0.46104   0.40644   0.00000  Uiso   1.00
C208   C     0.15814   0.53896   0.09356   0.00000  Uiso   1.00
C209   C     0.16410   0.50158   0.38406   0.00000  Uiso   1.00
C210   C     0.24594   0.50000   0.25005   0.00000  Uiso   1.00
C211   C     0.16924   0.49843   0.11594   0.00000  Uiso   1.00
C212   C     0.15228   0.54192   0.40806   0.00000  Uiso   1.00
C213   C     0.18105   0.45808   0.09194   0.00000  Uiso   1.00
C214   C     0.15398   0.54155   0.45459   0.00000  Uiso   1.00
C215   C     0.17935   0.45845   0.04542   0.00000  Uiso   1.00
C216   C     0.16592   0.50032   0.47673   0.00000  Uiso   1.00
C217   C     0.16741   0.49969   0.02327   0.00000  Uiso   1.00
C218   C     0.17618   0.45965   0.45243   0.00000  Uiso   1.00
C219   C     0.15715   0.54035   0.04757   0.00000  Uiso   1.00
C220   C     0.14414   0.58166   0.47947   0.00000  Uiso   1.00
C221   C     0.14575   0.58143   0.02533   0.00000  Uiso   1.00
C222   C     0.18919   0.41834   0.02053   0.00000  Uiso   1.00
C223   C     0.13704   0.58302   0.38538   0.00000  Uiso   1.00
C224   C     0.19629   0.41698   0.11462   0.00000  Uiso   1.00
C225   C     0.13554   0.62419   0.04855   0.00000  Uiso   1.00
C226   C     0.19779   0.37581   0.45145   0.00000  Uiso   1.00
C227   C     0.11313   0.38214   0.19219   0.00000  Uiso   1.00
C228   C     0.22020   0.61786   0.30781   0.00000  Uiso   1.00
C229   C     0.22142   0.38356   0.30667   0.00000  Uiso   1.00
C230   C     0.11192   0.61644   0.19333   0.00000  Uiso   1.00
C231   C     0.18758   0.41857   0.47467   0.00000  Uiso   1.00
C232   C     0.02128   0.45763   0.24911   0.00000  Uiso   1.00
C233   C     0.31205   0.54237   0.25089   0.00000  Uiso   1.00
C234   C     0.31203   0.45762   0.24910   0.00000  Uiso   1.00
C235   C     0.02130   0.54238   0.25090   0.00000  Uiso   1.00
C236   C     0.29057   0.49999   0.25002   0.00000  Uiso   1.00
Cu237  Cu    0.16667   0.54689   0.25000   0.00000  Uiso   1.00
Cu238  Cu    0.16667   0.45311   0.25000   0.00000  Uiso   1.00
H239   H     0.18359   0.43033   0.38763   0.00000  Uiso   1.00
H240   H     0.14975   0.56967   0.11237   0.00000  Uiso   1.00
H241   H     0.13528   0.61380   0.46345   0.00000  Uiso   1.00
H242   H     0.19805   0.38620   0.03655   0.00000  Uiso   1.00
H243   H     0.03727   0.42449   0.24841   0.00000  Uiso   1.00
H244   H     0.29607   0.57551   0.25159   0.00000  Uiso   1.00
H245   H     0.29603   0.42449   0.24833   0.00000  Uiso   1.00
H246   H     0.03731   0.57551   0.25167   0.00000  Uiso   1.00
N247   N     0.16667   0.61736   0.25000   0.00000  Uiso   1.00
N248   N     0.08881   0.59684   0.16998   0.00000  Uiso   1.00
N249   N     0.16667   0.38264   0.25000   0.00000  Uiso   1.00
N250   N     0.12486   0.61580   0.36741   0.00000  Uiso   1.00
N251   N     0.20848   0.38420   0.13259   0.00000  Uiso   1.00
N252   N     0.12738   0.65837   0.06711   0.00000  Uiso   1.00
N253   N     0.20595   0.34163   0.43289   0.00000  Uiso   1.00
N254   N     0.09104   0.40127   0.16793   0.00000  Uiso   1.00
N255   N     0.24230   0.59873   0.33207   0.00000  Uiso   1.00
N256   N     0.24453   0.40316   0.33002   0.00000  Uiso   1.00
O257   O     0.10655   0.53958   0.24999   0.00000  Uiso   1.00
O258   O     0.22679   0.46042   0.25001   0.00000  Uiso   1.00
O259   O     0.22679   0.53958   0.25001   0.00000  Uiso   1.00
O260   O     0.10655   0.46042   0.25000   0.00000  Uiso   1.00
O261   O     0.16666   0.53960   0.18513   0.00000  Uiso   1.00
O262   O     0.16668   0.46040   0.31487   0.00000  Uiso   1.00
O263   O     0.16668   0.53960   0.31487   0.00000  Uiso   1.00
O264   O     0.16666   0.46040   0.18513   0.00000  Uiso   1.00
C265   C     0.42073   0.50000   0.24995   0.00000  Uiso   1.00
C266   C     0.37609   0.50001   0.24998   0.00000  Uiso   1.00
C267   C     0.47392   0.35778   0.22223   0.00000  Uiso   1.00
C268   C     0.52608   0.64222   0.27777   0.00000  Uiso   1.00
C269   C     0.52623   0.35853   0.27764   0.00000  Uiso   1.00
C270   C     0.47377   0.64147   0.22236   0.00000  Uiso   1.00
C271   C     0.50114   0.49953   0.16440   0.00000  Uiso   1.00
C272   C     0.49886   0.50047   0.33560   0.00000  Uiso   1.00
C273   C     0.50852   0.46104   0.40644   0.00000  Uiso   1.00
C274   C     0.49148   0.53896   0.09356   0.00000  Uiso   1.00
C275   C     0.49743   0.50158   0.38406   0.00000  Uiso   1.00
C276   C     0.57927   0.50000   0.25005   0.00000  Uiso   1.00
C277   C     0.50257   0.49843   0.11594   0.00000  Uiso   1.00
C278   C     0.48562   0.54192   0.40806   0.00000  Uiso   1.00
C279   C     0.51438   0.45808   0.09194   0.00000  Uiso   1.00
C280   C     0.48732   0.54155   0.45459   0.00000  Uiso   1.00
C281   C     0.51268   0.45845   0.04542   0.00000  Uiso   1.00
C282   C     0.49925   0.50032   0.47673   0.00000  Uiso   1.00
C283   C     0.50075   0.49969   0.02327   0.00000  Uiso   1.00
C284   C     0.50952   0.45965   0.45243   0.00000  Uiso   1.00
C285   C     0.49048   0.54035   0.04757   0.00000  Uiso   1.00
C286   C     0.47747   0.58166   0.47947   0.00000  Uiso   1.00
C287   C     0.47908   0.58143   0.02533   0.00000  Uiso   1.00
C288   C     0.52253   0.41834   0.02053   0.00000  Uiso   1.00
C289   C     0.47037   0.58302   0.38538   0.00000  Uiso   1.00
C290   C     0.52963   0.41698   0.11462   0.00000  Uiso   1.00
C291   C     0.46887   0.62419   0.04855   0.00000  Uiso   1.00
C292   C     0.53113   0.37581   0.45145   0.00000  Uiso   1.00
C293   C     0.44647   0.38214   0.19219   0.00000  Uiso   1.00
C294   C     0.55353   0.61786   0.30781   0.00000  Uiso   1.00
C295   C     0.55475   0.38356   0.30667   0.00000  Uiso   1.00
C296   C     0.44525   0.61644   0.19333   0.00000  Uiso   1.00
C297   C     0.52091   0.41857   0.47467   0.00000  Uiso   1.00
C298   C     0.35461   0.45763   0.24911   0.00000  Uiso   1.00
C299   C     0.64539   0.54237   0.25089   0.00000  Uiso   1.00
C300   C     0.64537   0.45762   0.24910   0.00000  Uiso   1.00
C301   C     0.35463   0.54238   0.25090   0.00000  Uiso   1.00
C302   C     0.62391   0.49999   0.25002   0.00000  Uiso   1.00
Cu303  Cu    0.50000   0.54689   0.25000   0.00000  Uiso   1.00
Cu304  Cu    0.50000   0.45311   0.25000   0.00000  Uiso   1.00
H305   H     0.51692   0.43033   0.38763   0.00000  Uiso   1.00
H306   H     0.48308   0.56967   0.11237   0.00000  Uiso   1.00
H307   H     0.46861   0.61380   0.46345   0.00000  Uiso   1.00
H308   H     0.53139   0.38620   0.03655   0.00000  Uiso   1.00
H309   H     0.37060   0.42449   0.24841   0.00000  Uiso   1.00
H310   H     0.62940   0.57551   0.25159   0.00000  Uiso   1.00
H311   H     0.62936   0.42449   0.24833   0.00000  Uiso   1.00
H312   H     0.37064   0.57551   0.25167   0.00000  Uiso   1.00
N313   N     0.50000   0.61736   0.25000   0.00000  Uiso   1.00
N314   N     0.42214   0.59684   0.16998   0.00000  Uiso   1.00
N315   N     0.50000   0.38264   0.25000   0.00000  Uiso   1.00
N316   N     0.45819   0.61580   0.36741   0.00000  Uiso   1.00
N317   N     0.54181   0.38420   0.13259   0.00000  Uiso   1.00
N318   N     0.46071   0.65837   0.06711   0.00000  Uiso   1.00
N319   N     0.53929   0.34163   0.43289   0.00000  Uiso   1.00
N320   N     0.42437   0.40127   0.16793   0.00000  Uiso   1.00
N321   N     0.57563   0.59873   0.33207   0.00000  Uiso   1.00
N322   N     0.57786   0.40316   0.33002   0.00000  Uiso   1.00
O323   O     0.43988   0.53958   0.24999   0.00000  Uiso   1.00
O324   O     0.56012   0.46042   0.25001   0.00000  Uiso   1.00
O325   O     0.56012   0.53958   0.25001   0.00000  Uiso   1.00
O326   O     0.43988   0.46042   0.25000   0.00000  Uiso   1.00
O327   O     0.49999   0.53960   0.18513   0.00000  Uiso   1.00
O328   O     0.50001   0.46040   0.31487   0.00000  Uiso   1.00
O329   O     0.50001   0.53960   0.31487   0.00000  Uiso   1.00
O330   O     0.49999   0.46040   0.18513   0.00000  Uiso   1.00
C331   C     0.75406   0.50000   0.24995   0.00000  Uiso   1.00
C332   C     0.70943   0.50001   0.24998   0.00000  Uiso   1.00
C333   C     0.80725   0.35778   0.22223   0.00000  Uiso   1.00
C334   C     0.85942   0.64222   0.27777   0.00000  Uiso   1.00
C335   C     0.85956   0.35853   0.27764   0.00000  Uiso   1.00
C336   C     0.80710   0.64147   0.22236   0.00000  Uiso   1.00
C337   C     0.83447   0.49953   0.16440   0.00000  Uiso   1.00
C338   C     0.83220   0.50047   0.33560   0.00000  Uiso   1.00
C339   C     0.84186   0.46104   0.40644   0.00000  Uiso   1.00
C340   C     0.82481   0.53896   0.09356   0.00000  Uiso   1.00
C341   C     0.83076   0.50158   0.38406   0.00000  Uiso   1.00
C342   C     0.91260   0.50000   0.25005   0.00000  Uiso   1.00
C343   C     0.83590   0.49843   0.11594   0.00000  Uiso   1.00
C344   C     0.81895   0.54192   0.40806   0.00000  Uiso   1.00
C345   C     0.84772   0.45808   0.09194   0.00000  Uiso   1.00
C346   C     0.82065   0.54155   0.45459   0.00000  Uiso   1.00
C347   C     0.84602   0.45845   0.04542   0.00000  Uiso   1.00
C348   C     0.83259   0.50032   0.47673   0.00000  Uiso   1.00
C349   C     0.83408   0.49969   0.02327   0.00000  Uiso   1.00
C350   C     0.84285   0.45965   0.45243   0.00000  Uiso   1.00
C351   C     0.82382   0.54035   0.04757   0.00000  Uiso   1.00
C352   C     0.81081   0.58166   0.47947   0.00000  Uiso   1.00
C353   C     0.81242   0.58143   0.02533   0.00000  Uiso   1.00
C354   C     0.85586   0.41834   0.02053   0.00000  Uiso   1.00
C355   C     0.80371   0.58302   0.38538   0.00000  Uiso   1.00
C356   C     0.86296   0.41698   0.11462   0.00000  Uiso   1.00
C357   C     0.80221   0.62419   0.04855   0.00000  Uiso   1.00
C358   C     0.86446   0.37581   0.45145   0.00000  Uiso   1.00
C359   C     0.77980   0.38214   0.19219   0.00000  Uiso   1.00
C360   C     0.88687   0.61786   0.30781   0.00000  Uiso   1.00
C361   C     0.88808   0.38356   0.30667   0.00000  Uiso   1.00
C362   C     0.77858   0.61644   0.19333   0.00000  Uiso   1.00
C363   C     0.85425   0.41857   0.47467   0.00000  Uiso   1.00
C364   C     0.68795   0.45763   0.24911   0.00000  Uiso   1.00
C365   C     0.97872   0.54237   0.25089   0.00000  Uiso   1.00
C366   C     0.97870   0.45762   0.24910   0.00000  Uiso   1.00
C367   C     0.68797   0.54238   0.25090   0.00000  Uiso   1.00
C368   C     0.95724   0.49999   0.25002   0.00000  Uiso   1.00
Cu369  Cu    0.83333   0.54689   0.25000   0.00000  Uiso   1.00
Cu370  Cu    0.83333   0.45311   0.25000   0.00000  Uiso   1.00
H371   H     0.85025   0.43033   0.38763   0.00000  Uiso   1.00
H372   H     0.81641   0.56967   0.11237   0.00000  Uiso   1.00
H373   H     0.80195   0.61380   0.46345   0.00000  Uiso   1.00
H374   H     0.86472   0.38620   0.03655   0.00000  Uiso   1.00
H375   H     0.70393   0.42449   0.24841   0.00000  Uiso   1.00
H376   H     0.96273   0.57551   0.25159   0.00000  Uiso   1.00
H377   H     0.96269   0.42449   0.24833   0.00000  Uiso   1.00
H378   H     0.70397   0.57551   0.25167   0.00000  Uiso   1.00
N379   N     0.83333   0.61736   0.25000   0.00000  Uiso   1.00
N380   N     0.75547   0.59684   0.16998   0.00000  Uiso   1.00
N381   N     0.83333   0.38264   0.25000   0.00000  Uiso   1.00
N382   N     0.79153   0.61580   0.36741   0.00000  Uiso   1.00
N383   N     0.87514   0.38420   0.13259   0.00000  Uiso   1.00
N384   N     0.79404   0.65837   0.06711   0.00000  Uiso   1.00
N385   N     0.87262   0.34163   0.43289   0.00000  Uiso   1.00
N386   N     0.75770   0.40127   0.16793   0.00000  Uiso   1.00
N387   N     0.90896   0.59873   0.33207   0.00000  Uiso   1.00
N388   N     0.91119   0.40316   0.33002   0.00000  Uiso   1.00
O389   O     0.77321   0.53958   0.24999   0.00000  Uiso   1.00
O390   O     0.89345   0.46042   0.25001   0.00000  Uiso   1.00
O391   O     0.89345   0.53958   0.25001   0.00000  Uiso   1.00
O392   O     0.77321   0.46042   0.25000   0.00000  Uiso   1.00
O393   O     0.83332   0.53960   0.18513   0.00000  Uiso   1.00
O394   O     0.83334   0.46040   0.31487   0.00000  Uiso   1.00
O395   O     0.83334   0.53960   0.31487   0.00000  Uiso   1.00
O396   O     0.83332   0.46040   0.18513   0.00000  Uiso   1.00
C397   C     0.08740   0.83334   0.24995   0.00000  Uiso   1.00
C398   C     0.04276   0.83334   0.24998   0.00000  Uiso   1.00
C399   C     0.14058   0.69112   0.22223   0.00000  Uiso   1.00
C400   C     0.19275   0.97555   0.27777   0.00000  Uiso   1.00
C401   C     0.19290   0.69186   0.27764   0.00000  Uiso   1.00
C402   C     0.14044   0.97480   0.22236   0.00000  Uiso   1.00
C403   C     0.16780   0.83286   0.16440   0.00000  Uiso   1.00
C404   C     0.16553   0.83380   0.33560   0.00000  Uiso   1.00
C405   C     0.17519   0.79438   0.40644   0.00000  Uiso   1.00
C406   C     0.15814   0.87229   0.09356   0.00000  Uiso   1.00
C407   C     0.16410   0.83491   0.38406   0.00000  Uiso   1.00
C408   C     0.24594   0.83333   0.25005   0.00000  Uiso   1.00
C409   C     0.16924   0.83176   0.11594   0.00000  Uiso   1.00
C410   C     0.15228   0.87525   0.40806   0.00000  Uiso   1.00
C411   C     0.18105   0.79142   0.09194   0.00000  Uiso   1.00
C412   C     0.15398   0.87489   0.45459   0.00000  Uiso   1.00
C413   C     0.17935   0.79178   0.04542   0.00000  Uiso   1.00
C414   C     0.16592   0.83365   0.47673   0.00000  Uiso   1.00
C415   C     0.16741   0.83302   0.02327   0.00000  Uiso   1.00
C416   C     0.17618   0.79299   0.45243   0.00000  Uiso   1.00
C417   C     0.15715   0.87368   0.04757   0.00000  Uiso   1.00
C418   C     0.14414   0.91499   0.47947   0.00000  Uiso   1.00
C419   C     0.14575   0.91477   0.02533   0.00000  Uiso   1.00
C420   C     0.18919   0.75168   0.02053   0.00000  Uiso   1.00
C421   C     0.13704   0.91635   0.38538   0.00000  Uiso   1.00
C422   C     0.19629   0.75031   0.11462   0.00000  Uiso   1.00
C423   C     0.13554   0.95753   0.04855   0.00000  Uiso   1.00
C424   C     0.19779   0.70914   0.45145   0.00000  Uiso   1.00
C425   C     0.11313   0.71547   0.19219   0.00000  Uiso   1.00
C426   C     0.22020   0.95119   0.30781   0.00000  Uiso   1.00
C427   C     0.22142   0.71690   0.30667   0.00000  Uiso   1.00
C428   C     0.11192   0.94977   0.19333   0.00000  Uiso   1.00
C429   C     0.18758   0.75190   0.47467   0.00000  Uiso   1.00
C430   C     0.02128   0.79096   0.24911   0.00000  Uiso   1.00
C431   C     0.31205   0.87570   0.25089   0.00000  Uiso   1.00
C432   C     0.31203   0.79096   0.24910   0.00000  Uiso   1.00
C433   C     0.02130   0.87571   0.25090   0.00000  Uiso   1.00
C434   C     0.29057   0.83333   0.25002   0.00000  Uiso   1.00
Cu435  Cu    0.16667   0.88022   0.25000   0.00000  Uiso   1.00
Cu436  Cu    0.16667   0.78645   0.25000   0.00000  Uiso   1.00
H437   H     0.18359   0.76366   0.38763   0.00000  Uiso   1.00
H438   H     0.14975   0.90301   0.11237   0.00000  Uiso   1.00
H439   H     0.13528   0.94714   0.46345   0.00000  Uiso   1.00
H440   H     0.19805   0.71953   0.03655   0.00000  Uiso   1.00
H441   H     0.03727   0.75782   0.24841   0.00000  Uiso   1.00
H442   H     0.29607   0.90884   0.25159   0.00000  Uiso   1.00
H443   H     0.29603   0.75782   0.24833   0.00000  Uiso   1.00
H444   H     0.03731   0.90885   0.25167   0.00000  Uiso   1.00
N445   N     0.16667   0.95069   0.25000   0.00000  Uiso   1.00
N446   N     0.08881   0.93017   0.16998   0.00000  Uiso   1.00
N447   N     0.16667   0.71598   0.25000   0.00000  Uiso   1.00
N448   N     0.12486   0.94914   0.36741   0.00000  Uiso   1.00
N449   N     0.20848   0.71753   0.13259   0.00000  Uiso   1.00
N450   N     0.12738   0.99171   0.06711   0.00000  Uiso   1.00
N451   N     0.20595   0.67496   0.43289   0.00000  Uiso   1.00
N452   N     0.09104   0.73461   0.16793   0.00000  Uiso   1.00
N453   N     0.24230   0.93206   0.33207   0.00000  Uiso   1.00
N454   N     0.24453   0.73650   0.33002   0.00000  Uiso   1.00
O455   O     0.10655   0.87291   0.24999   0.00000  Uiso   1.00
O456   O     0.22679   0.79375   0.25001   0.00000  Uiso   1.00
O457   O     0.22679   0.87291   0.25001   0.00000  Uiso   1.00
O458   O     0.10655   0.79375   0.25000   0.00000  Uiso   1.00
O459   O     0.16666   0.87293   0.18513   0.00000  Uiso   1.00
O460   O     0.16668   0.79373   0.31487   0.00000  Uiso   1.00
O461   O     0.16668   0.87293   0.31487   0.00000  Uiso   1.00
O462   O     0.16666   0.79373   0.18513   0.00000  Uiso   1.00
C463   C     0.42073   0.83334   0.24995   0.00000  Uiso   1.00
C464   C     0.37609   0.83334   0.24998   0.00000  Uiso   1.00
C465   C     0.47392   0.69112   0.22223   0.00000  Uiso   1.00
C466   C     0.52608   0.97555   0.27777   0.00000  Uiso   1.00
C467   C     0.52623   0.69186   0.27764   0.00000  Uiso   1.00
C468   C     0.47377   0.97480   0.22236   0.00000  Uiso   1.00
C469   C     0.50114   0.83286   0.16440   0.00000  Uiso   1.00
C470   C     0.49886   0.83380   0.33560   0.00000  Uiso   1.00
C471   C     0.50852   0.79438   0.40644   0.00000  Uiso   1.00
C472   C     0.49148   0.87229   0.09356   0.00000  Uiso   1.00
C473   C     0.49743   0.83491   0.38406   0.00000  Uiso   1.00
C474   C     0.57927   0.83333   0.25005   0.00000  Uiso   1.00
C475   C     0.50257   0.83176   0.11594   0.00000  Uiso   1.00
C476   C     0.48562   0.87525   0.40806   0.00000  Uiso   1.00
C477   C     0.51438   0.79142   0.09194   0.00000  Uiso   1.00
C478   C     0.48732   0.87489   0.45459   0.00000  Uiso   1.00
C479   C     0.51268   0.79178   0.04542   0.00000  Uiso   1.00
C480   C     0.49925   0.83365   0.47673   0.00000  Uiso   1.00
C481   C     0.50075   0.83302   0.02327   0.00000  Uiso   1.00
C482   C     0.50952   0.79299   0.45243   0.00000  Uiso   1.00
C483   C     0.49048   0.87368   0.04757   0.00000  Uiso   1.00
C484   C     0.47747   0.91499   0.47947   0.00000  Uiso   1.00
C485   C     0.47908   0.91477   0.02533   0.00000  Uiso   1.00
C486   C     0.52253   0.75168   0.02053   0.00000  Uiso   1.00
C487   C     0.47037   0.91635   0.38538   0.00000  Uiso   1.00
C488   C     0.52963   0.75031   0.11462   0.00000  Uiso   1.00
C489   C     0.46887   0.95753   0.04855   0.00000  Uiso   1.00
C490   C     0.53113   0.70914   0.45145   0.00000  Uiso   1.00
C491   C     0.44647   0.71547   0.19219   0.00000  Uiso   1.00
C492   C     0.55353   0.95119   0.30781   0.00000  Uiso   1.00
C493   C     0.55475   0.71690   0.30667   0.00000  Uiso   1.00
C494   C     0.44525   0.94977   0.19333   0.00000  Uiso   1.00
C495   C     0.52091   0.75190   0.47467   0.00000  Uiso   1.00
C496   C     0.35461   0.79096   0.24911   0.00000  Uiso   1.00
C497   C     0.64539   0.87570   0.25089   0.00000  Uiso   1.00
C498   C     0.64537   0.79096   0.24910   0.00000  Uiso   1.00
C499   C     0.35463   0.87571   0.25090   0.00000  Uiso   1.00
C500   C     0.62391   0.83333   0.25002   0.00000  Uiso   1.00
Cu501  Cu    0.50000   0.88022   0.25000   0.00000  Uiso   1.00
Cu502  Cu    0.50000   0.78645   0.25000   0.00000  Uiso   1.00
H503   H     0.51692   0.76366   0.38763   0.00000  Uiso   1.00
H504   H     0.48308   0.90301   0.11237   0.00000  Uiso   1.00
H505   H     0.46861   0.94714   0.46345   0.00000  Uiso   1.00
H506   H     0.53139   0.71953   0.03655   0.00000  Uiso   1.00
H507   H     0.37060   0.75782   0.24841   0.00000  Uiso   1.00
H508   H     0.62940   0.90884   0.25159   0.00000  Uiso   1.00
H509   H     0.62936   0.75782   0.24833   0.00000  Uiso   1.00
H510   H     0.37064   0.90885   0.25167   0.00000  Uiso   1.00
N511   N     0.50000   0.95069   0.25000   0.00000  Uiso   1.00
N512   N     0.42214   0.93017   0.16998   0.00000  Uiso   1.00
N513   N     0.50000   0.71598   0.25000   0.00000  Uiso   1.00
N514   N     0.45819   0.94914   0.36741   0.00000  Uiso   1.00
N515   N     0.54181   0.71753   0.13259   0.00000  Uiso   1.00
N516   N     0.46071   0.99171   0.06711   0.00000  Uiso   1.00
N517   N     0.53929   0.67496   0.43289   0.00000  Uiso   1.00
N518   N     0.42437   0.73461   0.16793   0.00000  Uiso   1.00
N519   N     0.57563   0.93206   0.33207   0.00000  Uiso   1.00
N520   N     0.57786   0.73650   0.33002   0.00000  Uiso   1.00
O521   O     0.43988   0.87291   0.24999   0.00000  Uiso   1.00
O522   O     0.56012   0.79375   0.25001   0.00000  Uiso   1.00
O523   O     0.56012   0.87291   0.25001   0.00000  Uiso   1.00
O524   O     0.43988   0.79375   0.25000   0.00000  Uiso   1.00
O525   O     0.49999   0.87293   0.18513   0.00000  Uiso   1.00
O526   O     0.50001   0.79373   0.31487   0.00000  Uiso   1.00
O527   O     0.50001   0.87293   0.31487   0.00000  Uiso   1.00
O528   O     0.49999   0.79373   0.18513   0.00000  Uiso   1.00
C529   C     0.75406   0.83334   0.24995   0.00000  Uiso   1.00
C530   C     0.70943   0.83334   0.24998   0.00000  Uiso   1.00
C531   C     0.80725   0.69112   0.22223   0.00000  Uiso   1.00
C532   C     0.85942   0.97555   0.27777   0.00000  Uiso   1.00
C533   C     0.85956   0.69186   0.27764   0.00000  Uiso   1.00
C534   C     0.80710   0.97480   0.22236   0.00000  Uiso   1.00
C535   C     0.83447   0.83286   0.16440   0.00000  Uiso   1.00
C536   C     0.83220   0.83380   0.33560   0.00000  Uiso   1.00
C537   C     0.84186   0.79438   0.40644   0.00000  Uiso   1.00
C538   C     0.82481   0.87229   0.09356   0.00000  Uiso   1.00
C539   C     0.83076   0.83491   0.38406   0.00000  Uiso   1.00
C540   C     0.91260   0.83333   0.25005   0.00000  Uiso   1.00
C541   C     0.83590   0.83176   0.11594   0.00000  Uiso   1.00
C542   C     0.81895   0.87525   0.40806   0.00000  Uiso   1.00
C543   C     0.84772   0.79142   0.09194   0.00000  Uiso   1.00
C544   C     0.82065   0.87489   0.45459   0.00000  Uiso   1.00
C545   C     0.84602   0.79178   0.04542   0.00000  Uiso   1.00
C546   C     0.83259   0.83365   0.47673   0.00000  Uiso   1.00
C547   C     0.83408   0.83302   0.02327   0.00000  Uiso   1.00
C548   C     0.84285   0.79299   0.45243   0.00000  Uiso   1.00
C549   C     0.82382   0.87368   0.04757   0.00000  Uiso   1.00
C550   C     0.81081   0.91499   0.47947   0.00000  Uiso   1.00
C551   C     0.81242   0.91477   0.02533   0.00000  Uiso   1.00
C552   C     0.85586   0.75168   0.02053   0.00000  Uiso   1.00
C553   C     0.80371   0.91635   0.38538   0.00000  Uiso   1.00
C554   C     0.86296   0.75031   0.11462   0.00000  Uiso   1.00
C555   C     0.80221   0.95753   0.04855   0.00000  Uiso   1.00
C556   C     0.86446   0.70914   0.45145   0.00000  Uiso   1.00
C557   C     0.77980   0.71547   0.19219   0.00000  Uiso   1.00
C558   C     0.88687   0.95119   0.30781   0.00000  Uiso   1.00
C559   C     0.88808   0.71690   0.30667   0.00000  Uiso   1.00
C560   C     0.77858   0.94977   0.19333   0.00000  Uiso   1.00
C561   C     0.85425   0.75190   0.47467   0.00000  Uiso   1.00
C562   C     0.68795   0.79096   0.24911   0.00000  Uiso   1.00
C563   C     0.97872   0.87570   0.25089   0.00000  Uiso   1.00
C564   C     0.97870   0.79096   0.24910   0.00000  Uiso   1.00
C565   C     0.68797   0.87571   0.25090   0.00000  Uiso   1.00
C566   C     0.95724   0.83333   0.25002   0.00000  Uiso   1.00
Cu567  Cu    0.83333   0.88022   0.25000   0.00000  Uiso   1.00
Cu568  Cu    0.83333   0.78645   0.25000   0.00000  Uiso   1.00
H569   H     0.85025   0.76366   0.38763   0.00000  Uiso   1.00
H570   H     0.81641   0.90301   0.11237   0.00000  Uiso   1.00
H571   H     0.80195   0.94714   0.46345   0.00000  Uiso   1.00
H572   H     0.86472   0.71953   0.03655   0.00000  Uiso   1.00
H573   H     0.70393   0.75782   0.24841   0.00000  Uiso   1.00
H574   H     0.96273   0.90884   0.25159   0.00000  Uiso   1.00
H575   H     0.96269   0.75782   0.24833   0.00000  Uiso   1.00
H576   H     0.70397   0.90885   0.25167   0.00000  Uiso   1.00
N577   N     0.83333   0.95069   0.25000   0.00000  Uiso   1.00
N578   N     0.75547   0.93017   0.16998   0.00000  Uiso   1.00
N579   N     0.83333   0.71598   0.25000   0.00000  Uiso   1.00
N580   N     0.79153   0.94914   0.36741   0.00000  Uiso   1.00
N581   N     0.87514   0.71753   0.13259   0.00000  Uiso   1.00
N582   N     0.79404   0.99171   0.06711   0.00000  Uiso   1.00
N583   N     0.87262   0.67496   0.43289   0.00000  Uiso   1.00
N584   N     0.75770   0.73461   0.16793   0.00000  Uiso   1.00
N585   N     0.90896   0.93206   0.33207   0.00000  Uiso   1.00
N586   N     0.91119   0.73650   0.33002   0.00000  Uiso   1.00
O587   O     0.77321   0.87291   0.24999   0.00000  Uiso   1.00
O588   O     0.89345   0.79375   0.25001   0.00000  Uiso   1.00
O589   O     0.89345   0.87291   0.25001   0.00000  Uiso   1.00
O590   O     0.77321   0.79375   0.25000   0.00000  Uiso   1.00
O591   O     0.83332   0.87293   0.18513   0.00000  Uiso   1.00
O592   O     0.83334   0.79373   0.31487   0.00000  Uiso   1.00
O593   O     0.83334   0.87293   0.31487   0.00000  Uiso   1.00
O594   O     0.83332   0.79373   0.18513   0.00000  Uiso   1.00
C595   C     0.08740   0.16667   0.74995   0.00000  Uiso   1.00
C596   C     0.04276   0.16667   0.74998   0.00000  Uiso   1.00
C597   C     0.14058   0.02445   0.72223   0.00000  Uiso   1.00
C598   C     0.19275   0.30888   0.77777   0.00000  Uiso   1.00
C599   C     0.19290   0.02520   0.77764   0.00000  Uiso   1.00
C600   C     0.14044   0.30814   0.72236   0.00000  Uiso   1.00
C601   C     0.16780   0.16620   0.66440   0.00000  Uiso   1.00
C602   C     0.16553   0.16714   0.83560   0.00000  Uiso   1.00
C603   C     0.17519   0.12771   0.90644   0.00000  Uiso   1.00
C604   C     0.15814   0.20562   0.59356   0.00000  Uiso   1.00
C605   C     0.16410   0.16824   0.88406   0.00000  Uiso   1.00
C606   C     0.24594   0.16666   0.75005   0.00000  Uiso   1.00
C607   C     0.16924   0.16509   0.61594   0.00000  Uiso   1.00
C608   C     0.15228   0.20858   0.90806   0.00000  Uiso   1.00
C609   C     0.18105   0.12475   0.59194   0.00000  Uiso   1.00
C610   C     0.15398   0.20822   0.95459   0.00000  Uiso   1.00
C611   C     0.17935   0.12511   0.54542   0.00000  Uiso   1.00
C612   C     0.16592   0.16698   0.97673   0.00000  Uiso   1.00
C613   C     0.16741   0.16635   0.52327   0.00000  Uiso   1.00
C614   C     0.17618   0.12632   0.95243   0.00000  Uiso   1.00
C615   C     0.15715   0.20701   0.54757   0.00000  Uiso   1.00
C616   C     0.14414   0.24832   0.97947   0.00000  Uiso   1.00
C617   C     0.14575   0.24810   0.52533   0.00000  Uiso   1.00
C618   C     0.18919   0.08501   0.52053   0.00000  Uiso   1.00
C619   C     0.13704   0.24969   0.88538   0.00000  Uiso   1.00
C620   C     0.19629   0.08365   0.61462   0.00000  Uiso   1.00
C621   C     0.13554   0.29086   0.54855   0.00000  Uiso   1.00
C622   C     0.19779   0.04247   0.95145   0.00000  Uiso   1.00
C623   C     0.11313   0.04881   0.69219   0.00000  Uiso   1.00
C624   C     0.22020   0.28453   0.80781   0.00000  Uiso   1.00
C625   C     0.22142   0.05023   0.80667   0.00000  Uiso   1.00
C626   C     0.11192   0.28311   0.69333   0.00000  Uiso   1.00
C627   C     0.18758   0.08523   0.97467   0.00000  Uiso   1.00
C628   C     0.02128   0.12430   0.74911   0.00000  Uiso   1.00
C629   C     0.31205   0.20904   0.75089   0.00000  Uiso   1.00
C630   C     0.31203   0.12429   0.74910   0.00000  Uiso   1.00
C631   C     0.02130   0.20904   0.75090   0.00000  Uiso   1.00
C632   C     0.29057   0.16666   0.75002   0.00000  Uiso   1.00
Cu633  Cu    0.16667   0.21355   0.75000   0.00000  Uiso   1.00
Cu634  Cu    0.16667   0.11978   0.75000   0.00000  Uiso   1.00
H635   H     0.18359   0.09699   0.88763   0.00000  Uiso   1.00
H636   H     0.14975   0.23634   0.61237   0.00000  Uiso   1.00
H637   H     0.13528   0.28047   0.96345   0.00000  Uiso   1.00
H638   H     0.19805   0.05287   0.53655   0.00000  Uiso   1.00
H639   H     0.03727   0.09116   0.74841   0.00000  Uiso   1.00
H640   H     0.29607   0.24218   0.75159   0.00000  Uiso   1.00
H641   H     0.29603   0.09115   0.74833   0.00000  Uiso   1.00
H642   H     0.03731   0.24218   0.75167   0.00000  Uiso   1.00
N643   N     0.16667   0.28402   0.75000   0.00000  Uiso   1.00
N644   N     0.08881   0.26350   0.66998   0.00000  Uiso   1.00
N645   N     0.16667   0.04931   0.75000   0.00000  Uiso   1.00
N646   N     0.12486   0.28247   0.86741   0.00000  Uiso   1.00
N647   N     0.20848   0.05086   0.63259   0.00000  Uiso   1.00
N648   N     0.12738   0.32504   0.56711   0.00000  Uiso   1.00
N649   N     0.20595   0.00829   0.93289   0.00000  Uiso   1.00
N650   N     0.09104   0.06794   0.66793   0.00000  Uiso   1.00
N651   N     0.24230   0.26539   0.83207   0.00000  Uiso   1.00
N652   N     0.24453   0.06983   0.83002   0.00000  Uiso   1.00
O653   O     0.10655   0.20625   0.74999   0.00000  Uiso   1.00
O654   O     0.22679   0.12709   0.75001   0.00000  Uiso   1.00
O655   O     0.22679   0.20625   0.75001   0.00000  Uiso   1.00
O656   O     0.10655   0.12709   0.75000   0.00000  Uiso   1.00
O657   O     0.16666   0.20627   0.68513   0.00000  Uiso   1.00
O658   O     0.16668   0.12707   0.81487   0.00000  Uiso   1.00
O659   O     0.16668   0.20627   0.81487   0.00000  Uiso   1.00
O660   O     0.16666   0.12707   0.68513   0.00000  Uiso   1.00
C661   C     0.42073   0.16667   0.74995   0.00000  Uiso   1.00
C662   C     0.37609   0.16667   0.74998   0.00000  Uiso   1.00
C663   C     0.47392   0.02445   0.72223   0.00000  Uiso   1.00
C664   C     0.52608   0.30888   0.77777   0.00000  Uiso   1.00
C665   C     0.52623   0.02520   0.77764   0.00000  Uiso   1.00
C666   C     0.47377   0.30814   0.72236   0.00000  Uiso   1.00
C667   C     0.50114   0.16620   0.66440   0.00000  Uiso   1.00
C668   C     0.49886   0.16714   0.83560   0.00000  Uiso   1.00
C669   C     0.50852   0.12771   0.90644   0.00000  Uiso   1.00
C670   C     0.49148   0.20562   0.59356   0.00000  Uiso   1.00
C671   C     0.49743   0.16824   0.88406   0.00000  Uiso   1.00
C672   C     0.57927   0.16666   0.75005   0.00000  Uiso   1.00
C673   C     0.50257   0.16509   0.61594   0.00000  Uiso   1.00
C674   C     0.48562   0.20858   0.90806   0.00000  Uiso   1.00
C675   C     0.51438   0.12475   0.59194   0.00000  Uiso   1.00
C676   C     0.48732   0.20822   0.95459   0.00000  Uiso   1.00
C677   C     0.51268   0.12511   0.54542   0.00000  Uiso   1.00
C678   C     0.49925   0.16698   0.97673   0.00000  Uiso   1.00
C679   C     0.50075   0.16635   0.52327   0.00000  Uiso   1.00
C680   C     0.50952   0.12632   0.95243   0.00000  Uiso   1.00
C681   C     0.49048   0.20701   0.54757   0.00000  Uiso   1.00
C682   C     0.47747   0.24832   0.97947   0.00000  Uiso   1.00
C683   C     0.47908   0.24810   0.52533   0.00000  Uiso   1.00
C684   C     0.52253   0.08501   0.52053   0.00000  Uiso   1.00
C685   C     0.47037   0.24969   0.88538   0.00000  Uiso   1.00
C686   C     0.52963   0.08365   0.61462   0.00000  Uiso   1.00
C687   C     0.46887   0.29086   0.54855   0.00000  Uiso   1.00
C688   C     0.53113   0.04247   0.95145   0.00000  Uiso   1.00
C689   C     0.44647   0.04881   0.69219   0.00000  Uiso   1.00
C690   C     0.55353   0.28453   0.80781   0.00000  Uiso   1.00
C691   C     0.55475   0.05023   0.80667   0.00000  Uiso   1.00
C692   C     0.44525   0.28311   0.69333   0.00000  Uiso   1.00
C693   C     0.52091   0.08523   0.97467   0.00000  Uiso   1.00
C694   C     0.35461   0.12430   0.74911   0.00000  Uiso   1.00
C695   C     0.64539   0.20904   0.75089   0.00000  Uiso   1.00
C696   C     0.64537   0.12429   0.74910   0.00000  Uiso   1.00
C697   C     0.35463   0.20904   0.75090   0.00000  Uiso   1.00
C698   C     0.62391   0.16666   0.75002   0.00000  Uiso   1.00
Cu699  Cu    0.50000   0.21355   0.75000   0.00000  Uiso   1.00
Cu700  Cu    0.50000   0.11978   0.75000   0.00000  Uiso   1.00
H701   H     0.51692   0.09699   0.88763   0.00000  Uiso   1.00
H702   H     0.48308   0.23634   0.61237   0.00000  Uiso   1.00
H703   H     0.46861   0.28047   0.96345   0.00000  Uiso   1.00
H704   H     0.53139   0.05287   0.53655   0.00000  Uiso   1.00
H705   H     0.37060   0.09116   0.74841   0.00000  Uiso   1.00
H706   H     0.62940   0.24218   0.75159   0.00000  Uiso   1.00
H707   H     0.62936   0.09115   0.74833   0.00000  Uiso   1.00
H708   H     0.37064   0.24218   0.75167   0.00000  Uiso   1.00
N709   N     0.50000   0.28402   0.75000   0.00000  Uiso   1.00
N710   N     0.42214   0.26350   0.66998   0.00000  Uiso   1.00
N711   N     0.50000   0.04931   0.75000   0.00000  Uiso   1.00
N712   N     0.45819   0.28247   0.86741   0.00000  Uiso   1.00
N713   N     0.54181   0.05086   0.63259   0.00000  Uiso   1.00
N714   N     0.46071   0.32504   0.56711   0.00000  Uiso   1.00
N715   N     0.53929   0.00829   0.93289   0.00000  Uiso   1.00
N716   N     0.42437   0.06794   0.66793   0.00000  Uiso   1.00
N717   N     0.57563   0.26539   0.83207   0.00000  Uiso   1.00
N718   N     0.57786   0.06983   0.83002   0.00000  Uiso   1.00
O719   O     0.43988   0.20625   0.74999   0.00000  Uiso   1.00
O720   O     0.56012   0.12709   0.75001   0.00000  Uiso   1.00
O721   O     0.56012   0.20625   0.75001   0.00000  Uiso   1.00
O722   O     0.43988   0.12709   0.75000   0.00000  Uiso   1.00
O723   O     0.49999   0.20627   0.68513   0.00000  Uiso   1.00
O724   O     0.50001   0.12707   0.81487   0.00000  Uiso   1.00
O725   O     0.50001   0.20627   0.81487   0.00000  Uiso   1.00
O726   O     0.49999   0.12707   0.68513   0.00000  Uiso   1.00
C727   C     0.75406   0.16667   0.74995   0.00000  Uiso   1.00
C728   C     0.70943   0.16667   0.74998   0.00000  Uiso   1.00
C729   C     0.80725   0.02445   0.72223   0.00000  Uiso   1.00
C730   C     0.85942   0.30888   0.77777   0.00000  Uiso   1.00
C731   C     0.85956   0.02520   0.77764   0.00000  Uiso   1.00
C732   C     0.80710   0.30814   0.72236   0.00000  Uiso   1.00
C733   C     0.83447   0.16620   0.66440   0.00000  Uiso   1.00
C734   C     0.83220   0.16714   0.83560   0.00000  Uiso   1.00
C735   C     0.84186   0.12771   0.90644   0.00000  Uiso   1.00
C736   C     0.82481   0.20562   0.59356   0.00000  Uiso   1.00
C737   C     0.83076   0.16824   0.88406   0.00000  Uiso   1.00
C738   C     0.91260   0.16666   0.75005   0.00000  Uiso   1.00
C739   C     0.83590   0.16509   0.61594   0.00000  Uiso   1.00
C740   C     0.81895   0.20858   0.90806   0.00000  Uiso   1.00
C741   C     0.84772   0.12475   0.59194   0.00000  Uiso   1.00
C742   C     0.82065   0.20822   0.95459   0.00000  Uiso   1.00
C743   C     0.84602   0.12511   0.54542   0.00000  Uiso   1.00
C744   C     0.83259   0.16698   0.97673   0.00000  Uiso   1.00
C745   C     0.83408   0.16635   0.52327   0.00000  Uiso   1.00
C746   C     0.84285   0.12632   0.95243   0.00000  Uiso   1.00
C747   C     0.82382   0.20701   0.54757   0.00000  Uiso   1.00
C748   C     0.81081   0.24832   0.97947   0.00000  Uiso   1.00
C749   C     0.81242   0.24810   0.52533   0.00000  Uiso   1.00
C750   C     0.85586   0.08501   0.52053   0.00000  Uiso   1.00
C751   C     0.80371   0.24969   0.88538   0.00000  Uiso   1.00
C752   C     0.86296   0.08365   0.61462   0.00000  Uiso   1.00
C753   C     0.80221   0.29086   0.54855   0.00000  Uiso   1.00
C754   C     0.86446   0.04247   0.95145   0.00000  Uiso   1.00
C755   C     0.77980   0.04881   0.69219   0.00000  Uiso   1.00
C756   C     0.88687   0.28453   0.80781   0.00000  Uiso   1.00
C757   C     0.88808   0.05023   0.80667   0.00000  Uiso   1.00
C758   C     0.77858   0.28311   0.69333   0.00000  Uiso   1.00
C759   C     0.85425   0.08523   0.97467   0.00000  Uiso   1.00
C760   C     0.68795   0.12430   0.74911   0.00000  Uiso   1.00
C761   C     0.97872   0.20904   0.75089   0.00000  Uiso   1.00
C762   C     0.97870   0.12429   0.74910   0.00000  Uiso   1.00
C763   C     0.68797   0.20904   0.75090   0.00000  Uiso   1.00
C764   C     0.95724   0.16666   0.75002   0.00000  Uiso   1.00
Cu765  Cu    0.83333   0.21355   0.75000   0.00000  Uiso   1.00
Cu766  Cu    0.83333   0.11978   0.75000   0.00000  Uiso   1.00
H767   H     0.85025   0.09699   0.88763   0.00000  Uiso   1.00
H768   H     0.81641   0.23634   0.61237   0.00000  Uiso   1.00
H769   H     0.80195   0.28047   0.96345   0.00000  Uiso   1.00
H770   H     0.86472   0.05287   0.53655   0.00000  Uiso   1.00
H771   H     0.70393   0.09116   0.74841   0.00000  Uiso   1.00
H772   H     0.96273   0.24218   0.75159   0.00000  Uiso   1.00
H773   H     0.96269   0.09115   0.74833   0.00000  Uiso   1.00
H774   H     0.70397   0.24218   0.75167   0.00000  Uiso   1.00
N775   N     0.83333   0.28402   0.75000   0.00000  Uiso   1.00
N776   N     0.75547   0.26350   0.66998   0.00000  Uiso   1.00
N777   N     0.83333   0.04931   0.75000   0.00000  Uiso   1.00
N778   N     0.79153   0.28247   0.86741   0.00000  Uiso   1.00
N779   N     0.87514   0.05086   0.63259   0.00000  Uiso   1.00
N780   N     0.79404   0.32504   0.56711   0.00000  Uiso   1.00
N781   N     0.87262   0.00829   0.93289   0.00000  Uiso   1.00
N782   N     0.75770   0.06794   0.66793   0.00000  Uiso   1.00
N783   N     0.90896   0.26539   0.83207   0.00000  Uiso   1.00
N784   N     0.91119   0.06983   0.83002   0.00000  Uiso   1.00
O785   O     0.77321   0.20625   0.74999   0.00000  Uiso   1.00
O786   O     0.89345   0.12709   0.75001   0.00000  Uiso   1.00
O787   O     0.89345   0.20625   0.75001   0.00000  Uiso   1.00
O788   O     0.77321   0.12709   0.75000   0.00000  Uiso   1.00
O789   O     0.83332   0.20627   0.68513   0.00000  Uiso   1.00
O790   O     0.83334   0.12707   0.81487   0.00000  Uiso   1.00
O791   O     0.83334   0.20627   0.81487   0.00000  Uiso   1.00
O792   O     0.83332   0.12707   0.68513   0.00000  Uiso   1.00
C793   C     0.08740   0.50000   0.74995   0.00000  Uiso   1.00
C794   C     0.04276   0.50001   0.74998   0.00000  Uiso   1.00
C795   C     0.14058   0.35778   0.72223   0.00000  Uiso   1.00
C796   C     0.19275   0.64222   0.77777   0.00000  Uiso   1.00
C797   C     0.19290   0.35853   0.77764   0.00000  Uiso   1.00
C798   C     0.14044   0.64147   0.72236   0.00000  Uiso   1.00
C799   C     0.16780   0.49953   0.66440   0.00000  Uiso   1.00
C800   C     0.16553   0.50047   0.83560   0.00000  Uiso   1.00
C801   C     0.17519   0.46104   0.90644   0.00000  Uiso   1.00
C802   C     0.15814   0.53896   0.59356   0.00000  Uiso   1.00
C803   C     0.16410   0.50158   0.88406   0.00000  Uiso   1.00
C804   C     0.24594   0.50000   0.75005   0.00000  Uiso   1.00
C805   C     0.16924   0.49843   0.61594   0.00000  Uiso   1.00
C806   C     0.15228   0.54192   0.90806   0.00000  Uiso   1.00
C807   C     0.18105   0.45808   0.59194   0.00000  Uiso   1.00
C808   C     0.15398   0.54155   0.95459   0.00000  Uiso   1.00
C809   C     0.17935   0.45845   0.54542   0.00000  Uiso   1.00
C810   C     0.16592   0.50032   0.97673   0.00000  Uiso   1.00
C811   C     0.16741   0.49969   0.52327   0.00000  Uiso   1.00
C812   C     0.17618   0.45965   0.95243   0.00000  Uiso   1.00
C813   C     0.15715   0.54035   0.54757   0.00000  Uiso   1.00
C814   C     0.14414   0.58166   0.97947   0.00000  Uiso   1.00
C815   C     0.14575   0.58143   0.52533   0.00000  Uiso   1.00
C816   C     0.18919   0.41834   0.52053   0.00000  Uiso   1.00
C817   C     0.13704   0.58302   0.88538   0.00000  Uiso   1.00
C818   C     0.19629   0.41698   0.61462   0.00000  Uiso   1.00
C819   C     0.13554   0.62419   0.54855   0.00000  Uiso   1.00
C820   C     0.19779   0.37581   0.95145   0.00000  Uiso   1.00
C821   C     0.11313   0.38214   0.69219   0.00000  Uiso   1.00
C822   C     0.22020   0.61786   0.80781   0.00000  Uiso   1.00
C823   C     0.22142   0.38356   0.80667   0.00000  Uiso   1.00
C824   C     0.11192   0.61644   0.69333   0.00000  Uiso   1.00
C825   C     0.18758   0.41857   0.97467   0.00000  Uiso   1.00
C826   C     0.02128   0.45763   0.74911   0.00000  Uiso   1.00
C827   C     0.31205   0.54237   0.75089   0.00000  Uiso   1.00
C828   C     0.31203   0.45762   0.74910   0.00000  Uiso   1.00
C829   C     0.02130   0.54238   0.75090   0.00000  Uiso   1.00
C830   C     0.29057   0.49999   0.75002   0.00000  Uiso   1.00
Cu831  Cu    0.16667   0.54689   0.75000   0.00000  Uiso   1.00
Cu832  Cu    0.16667   0.45311   0.75000   0.00000  Uiso   1.00
H833   H     0.18359   0.43033   0.88763   0.00000  Uiso   1.00
H834   H     0.14975   0.56967   0.61237   0.00000  Uiso   1.00
H835   H     0.13528   0.61380   0.96345   0.00000  Uiso   1.00
H836   H     0.19805   0.38620   0.53655   0.00000  Uiso   1.00
H837   H     0.03727   0.42449   0.74841   0.00000  Uiso   1.00
H838   H     0.29607   0.57551   0.75159   0.00000  Uiso   1.00
H839   H     0.29603   0.42449   0.74833   0.00000  Uiso   1.00
H840   H     0.03731   0.57551   0.75167   0.00000  Uiso   1.00
N841   N     0.16667   0.61736   0.75000   0.00000  Uiso   1.00
N842   N     0.08881   0.59684   0.66998   0.00000  Uiso   1.00
N843   N     0.16667   0.38264   0.75000   0.00000  Uiso   1.00
N844   N     0.12486   0.61580   0.86741   0.00000  Uiso   1.00
N845   N     0.20848   0.38420   0.63259   0.00000  Uiso   1.00
N846   N     0.12738   0.65837   0.56711   0.00000  Uiso   1.00
N847   N     0.20595   0.34163   0.93289   0.00000  Uiso   1.00
N848   N     0.09104   0.40127   0.66793   0.00000  Uiso   1.00
N849   N     0.24230   0.59873   0.83207   0.00000  Uiso   1.00
N850   N     0.24453   0.40316   0.83002   0.00000  Uiso   1.00
O851   O     0.10655   0.53958   0.74999   0.00000  Uiso   1.00
O852   O     0.22679   0.46042   0.75001   0.00000  Uiso   1.00
O853   O     0.22679   0.53958   0.75001   0.00000  Uiso   1.00
O854   O     0.10655   0.46042   0.75000   0.00000  Uiso   1.00
O855   O     0.16666   0.53960   0.68513   0.00000  Uiso   1.00
O856   O     0.16668   0.46040   0.81487   0.00000  Uiso   1.00
O857   O     0.16668   0.53960   0.81487   0.00000  Uiso   1.00
O858   O     0.16666   0.46040   0.68513   0.00000  Uiso   1.00
C859   C     0.42073   0.50000   0.74995   0.00000  Uiso   1.00
C860   C     0.37609   0.50001   0.74998   0.00000  Uiso   1.00
C861   C     0.47392   0.35778   0.72223   0.00000  Uiso   1.00
C862   C     0.52608   0.64222   0.77777   0.00000  Uiso   1.00
C863   C     0.52623   0.35853   0.77764   0.00000  Uiso   1.00
C864   C     0.47377   0.64147   0.72236   0.00000  Uiso   1.00
C865   C     0.50114   0.49953   0.66440   0.00000  Uiso   1.00
C866   C     0.49886   0.50047   0.83560   0.00000  Uiso   1.00
C867   C     0.50852   0.46104   0.90644   0.00000  Uiso   1.00
C868   C     0.49148   0.53896   0.59356   0.00000  Uiso   1.00
C869   C     0.49743   0.50158   0.88406   0.00000  Uiso   1.00
C870   C     0.57927   0.50000   0.75005   0.00000  Uiso   1.00
C871   C     0.50257   0.49843   0.61594   0.00000  Uiso   1.00
C872   C     0.48562   0.54192   0.90806   0.00000  Uiso   1.00
C873   C     0.51438   0.45808   0.59194   0.00000  Uiso   1.00
C874   C     0.48732   0.54155   0.95459   0.00000  Uiso   1.00
C875   C     0.51268   0.45845   0.54542   0.00000  Uiso   1.00
C876   C     0.49925   0.50032   0.97673   0.00000  Uiso   1.00
C877   C     0.50075   0.49969   0.52327   0.00000  Uiso   1.00
C878   C     0.50952   0.45965   0.95243   0.00000  Uiso   1.00
C879   C     0.49048   0.54035   0.54757   0.00000  Uiso   1.00
C880   C     0.47747   0.58166   0.97947   0.00000  Uiso   1.00
C881   C     0.47908   0.58143   0.52533   0.00000  Uiso   1.00
C882   C     0.52253   0.41834   0.52053   0.00000  Uiso   1.00
C883   C     0.47037   0.58302   0.88538   0.00000  Uiso   1.00
C884   C     0.52963   0.41698   0.61462   0.00000  Uiso   1.00
C885   C     0.46887   0.62419   0.54855   0.00000  Uiso   1.00
C886   C     0.53113   0.37581   0.95145   0.00000  Uiso   1.00
C887   C     0.44647   0.38214   0.69219   0.00000  Uiso   1.00
C888   C     0.55353   0.61786   0.80781   0.00000  Uiso   1.00
C889   C     0.55475   0.38356   0.80667   0.00000  Uiso   1.00
C890   C     0.44525   0.61644   0.69333   0.00000  Uiso   1.00
C891   C     0.52091   0.41857   0.97467   0.00000  Uiso   1.00
C892   C     0.35461   0.45763   0.74911   0.00000  Uiso   1.00
C893   C     0.64539   0.54237   0.75089   0.00000  Uiso   1.00
C894   C     0.64537   0.45762   0.74910   0.00000  Uiso   1.00
C895   C     0.35463   0.54238   0.75090   0.00000  Uiso   1.00
C896   C     0.62391   0.49999   0.75002   0.00000  Uiso   1.00
Cu897  Cu    0.50000   0.54689   0.75000   0.00000  Uiso   1.00
Cu898  Cu    0.50000   0.45311   0.75000   0.00000  Uiso   1.00
H899   H     0.51692   0.43033   0.88763   0.00000  Uiso   1.00
H900   H     0.48308   0.56967   0.61237   0.00000  Uiso   1.00
H901   H     0.46861   0.61380   0.96345   0.00000  Uiso   1.00
H902   H     0.53139   0.38620   0.53655   0.00000  Uiso   1.00
H903   H     0.37060   0.42449   0.74841   0.00000  Uiso   1.00
H904   H     0.62940   0.57551   0.75159   0.00000  Uiso   1.00
H905   H     0.62936   0.42449   0.74833   0.00000  Uiso   1.00
H906   H     0.37064   0.57551   0.75167   0.00000  Uiso   1.00
N907   N     0.50000   0.61736   0.75000   0.00000  Uiso   1.00
N908   N     0.42214   0.59684   0.66998   0.00000  Uiso   1.00
N909   N     0.50000   0.38264   0.75000   0.00000  Uiso   1.00
N910   N     0.45819   0.61580   0.86741   0.00000  Uiso   1.00
N911   N     0.54181   0.38420   0.63259   0.00000  Uiso   1.00
N912   N     0.46071   0.65837   0.56711   0.00000  Uiso   1.00
N913   N     0.53929   0.34163   0.93289   0.00000  Uiso   1.00
N914   N     0.42437   0.40127   0.66793   0.00000  Uiso   1.00
N915   N     0.57563   0.59873   0.83207   0.00000  Uiso   1.00
N916   N     0.57786   0.40316   0.83002   0.00000  Uiso   1.00
O917   O     0.43988   0.53958   0.74999   0.00000  Uiso   1.00
O918   O     0.56012   0.46042   0.75001   0.00000  Uiso   1.00
O919   O     0.56012   0.53958   0.75001   0.00000  Uiso   1.00
O920   O     0.43988   0.46042   0.75000   0.00000  Uiso   1.00
O921   O     0.49999   0.53960   0.68513   0.00000  Uiso   1.00
O922   O     0.50001   0.46040   0.81487   0.00000  Uiso   1.00
O923   O     0.50001   0.53960   0.81487   0.00000  Uiso   1.00
O924   O     0.49999   0.46040   0.68513   0.00000  Uiso   1.00
C925   C     0.75406   0.50000   0.74995   0.00000  Uiso   1.00
C926   C     0.70943   0.50001   0.74998   0.00000  Uiso   1.00
C927   C     0.80725   0.35778   0.72223   0.00000  Uiso   1.00
C928   C     0.85942   0.64222   0.77777   0.00000  Uiso   1.00
C929   C     0.85956   0.35853   0.77764   0.00000  Uiso   1.00
C930   C     0.80710   0.64147   0.72236   0.00000  Uiso   1.00
C931   C     0.83447   0.49953   0.66440   0.00000  Uiso   1.00
C932   C     0.83220   0.50047   0.83560   0.00000  Uiso   1.00
C933   C     0.84186   0.46104   0.90644   0.00000  Uiso   1.00
C934   C     0.82481   0.53896   0.59356   0.00000  Uiso   1.00
C935   C     0.83076   0.50158   0.88406   0.00000  Uiso   1.00
C936   C     0.91260   0.50000   0.75005   0.00000  Uiso   1.00
C937   C     0.83590   0.49843   0.61594   0.00000  Uiso   1.00
C938   C     0.81895   0.54192   0.90806   0.00000  Uiso   1.00
C939   C     0.84772   0.45808   0.59194   0.00000  Uiso   1.00
C940   C     0.82065   0.54155   0.95459   0.00000  Uiso   1.00
C941   C     0.84602   0.45845   0.54542   0.00000  Uiso   1.00
C942   C     0.83259   0.50032   0.97673   0.00000  Uiso   1.00
C943   C     0.83408   0.49969   0.52327   0.00000  Uiso   1.00
C944   C     0.84285   0.45965   0.95243   0.00000  Uiso   1.00
C945   C     0.82382   0.54035   0.54757   0.00000  Uiso   1.00
C946   C     0.81081   0.58166   0.97947   0.00000  Uiso   1.00
C947   C     0.81242   0.58143   0.52533   0.00000  Uiso   1.00
C948   C     0.85586   0.41834   0.52053   0.00000  Uiso   1.00
C949   C     0.80371   0.58302   0.88538   0.00000  Uiso   1.00
C950   C     0.86296   0.41698   0.61462   0.00000  Uiso   1.00
C951   C     0.80221   0.62419   0.54855   0.00000  Uiso   1.00
C952   C     0.86446   0.37581   0.95145   0.00000  Uiso   1.00
C953   C     0.77980   0.38214   0.69219   0.00000  Uiso   1.00
C954   C     0.88687   0.61786   0.80781   0.00000  Uiso   1.00
C955   C     0.88808   0.38356   0.80667   0.00000  Uiso   1.00
C956   C     0.77858   0.61644   0.69333   0.00000  Uiso   1.00
C957   C     0.85425   0.41857   0.97467   0.00000  Uiso   1.00
C958   C     0.68795   0.45763   0.74911   0.00000  Uiso   1.00
C959   C     0.97872   0.54237   0.75089   0.00000  Uiso   1.00
C960   C     0.97870   0.45762   0.74910   0.00000  Uiso   1.00
C961   C     0.68797   0.54238   0.75090   0.00000  Uiso   1.00
C962   C     0.95724   0.49999   0.75002   0.00000  Uiso   1.00
Cu963  Cu    0.83333   0.54689   0.75000   0.00000  Uiso   1.00
Cu964  Cu    0.83333   0.45311   0.75000   0.00000  Uiso   1.00
H965   H     0.85025   0.43033   0.88763   0.00000  Uiso   1.00
H966   H     0.81641   0.56967   0.61237   0.00000  Uiso   1.00
H967   H     0.80195   0.61380   0.96345   0.00000  Uiso   1.00
H968   H     0.86472   0.38620   0.53655   0.00000  Uiso   1.00
H969   H     0.70393   0.42449   0.74841   0.00000  Uiso   1.00
H970   H     0.96273   0.57551   0.75159   0.00000  Uiso   1.00
H971   H     0.96269   0.42449   0.74833   0.00000  Uiso   1.00
H972   H     0.70397   0.57551   0.75167   0.00000  Uiso   1.00
N973   N     0.83333   0.61736   0.75000   0.00000  Uiso   1.00
N974   N     0.75547   0.59684   0.66998   0.00000  Uiso   1.00
N975   N     0.83333   0.38264   0.75000   0.00000  Uiso   1.00
N976   N     0.79153   0.61580   0.86741   0.00000  Uiso   1.00
N977   N     0.87514   0.38420   0.63259   0.00000  Uiso   1.00
N978   N     0.79404   0.65837   0.56711   0.00000  Uiso   1.00
N979   N     0.87262   0.34163   0.93289   0.00000  Uiso   1.00
N980   N     0.75770   0.40127   0.66793   0.00000  Uiso   1.00
N981   N     0.90896   0.59873   0.83207   0.00000  Uiso   1.00
N982   N     0.91119   0.40316   0.83002   0.00000  Uiso   1.00
O983   O     0.77321   0.53958   0.74999   0.00000  Uiso   1.00
O984   O     0.89345   0.46042   0.75001   0.00000  Uiso   1.00
O985   O     0.89345   0.53958   0.75001   0.00000  Uiso   1.00
O986   O     0.77321   0.46042   0.75000   0.00000  Uiso   1.00
O987   O     0.83332   0.53960   0.68513   0.00000  Uiso   1.00
O988   O     0.83334   0.46040   0.81487   0.00000  Uiso   1.00
O989   O     0.83334   0.53960   0.81487   0.00000  Uiso   1.00
O990   O     0.83332   0.46040   0.68513   0.00000  Uiso   1.00
C991   C     0.08740   0.83334   0.74995   0.00000  Uiso   1.00
C992   C     0.04276   0.83334   0.74998   0.00000  Uiso   1.00
C993   C     0.14058   0.69112   0.72223   0.00000  Uiso   1.00
C994   C     0.19275   0.97555   0.77777   0.00000  Uiso   1.00
C995   C     0.19290   0.69186   0.77764   0.00000  Uiso   1.00
C996   C     0.14044   0.97480   0.72236   0.00000  Uiso   1.00
C997   C     0.16780   0.83286   0.66440   0.00000  Uiso   1.00
C998   C     0.16553   0.83380   0.83560   0.00000  Uiso   1.00
C999   C     0.17519   0.79438   0.90644   0.00000  Uiso   1.00
C1000  C     0.15814   0.87229   0.59356   0.00000  Uiso   1.00
C1001  C     0.16410   0.83491   0.88406   0.00000  Uiso   1.00
C1002  C     0.24594   0.83333   0.75005   0.00000  Uiso   1.00
C1003  C     0.16924   0.83176   0.61594   0.00000  Uiso   1.00
C1004  C     0.15228   0.87525   0.90806   0.00000  Uiso   1.00
C1005  C     0.18105   0.79142   0.59194   0.00000  Uiso   1.00
C1006  C     0.15398   0.87489   0.95459   0.00000  Uiso   1.00
C1007  C     0.17935   0.79178   0.54542   0.00000  Uiso   1.00
C1008  C     0.16592   0.83365   0.97673   0.00000  Uiso   1.00
C1009  C     0.16741   0.83302   0.52327   0.00000  Uiso   1.00
C1010  C     0.17618   0.79299   0.95243   0.00000  Uiso   1.00
C1011  C     0.15715   0.87368   0.54757   0.00000  Uiso   1.00
C1012  C     0.14414   0.91499   0.97947   0.00000  Uiso   1.00
C1013  C     0.14575   0.91477   0.52533   0.00000  Uiso   1.00
C1014  C     0.18919   0.75168   0.52053   0.00000  Uiso   1.00
C1015  C     0.13704   0.91635   0.88538   0.00000  Uiso   1.00
C1016  C     0.19629   0.75031   0.61462   0.00000  Uiso   1.00
C1017  C     0.13554   0.95753   0.54855   0.00000  Uiso   1.00
C1018  C     0.19779   0.70914   0.95145   0.00000  Uiso   1.00
C1019  C     0.11313   0.71547   0.69219   0.00000  Uiso   1.00
C1020  C     0.22020   0.95119   0.80781   0.00000  Uiso   1.00
C1021  C     0.22142   0.71690   0.80667   0.00000  Uiso   1.00
C1022  C     0.11192   0.94977   0.69333   0.00000  Uiso   1.00
C1023  C     0.18758   0.75190   0.97467   0.00000  Uiso   1.00
C1024  C     0.02128   0.79096   0.74911   0.00000  Uiso   1.00
C1025  C     0.31205   0.87570   0.75089   0.00000  Uiso   1.00
C1026  C     0.31203   0.79096   0.74910   0.00000  Uiso   1.00
C1027  C     0.02130   0.87571   0.75090   0.00000  Uiso   1.00
C1028  C     0.29057   0.83333   0.75002   0.00000  Uiso   1.00
Cu1029 Cu    0.16667   0.88022   0.75000   0.00000  Uiso   1.00
Cu1030 Cu    0.16667   0.78645   0.75000   0.00000  Uiso   1.00
H1031  H     0.18359   0.76366   0.88763   0.00000  Uiso   1.00
H1032  H     0.14975   0.90301   0.61237   0.00000  Uiso   1.00
H1033  H     0.13528   0.94714   0.96345   0.00000  Uiso   1.00
H1034  H     0.19805   0.71953   0.53655   0.00000  Uiso   1.00
H1035  H     0.03727   0.75782   0.74841   0.00000  Uiso   1.00
H1036  H     0.29607   0.90884   0.75159   0.00000  Uiso   1.00
H1037  H     0.29603   0.75782   0.74833   0.00000  Uiso   1.00
H1038  H     0.03731   0.90885   0.75167   0.00000  Uiso   1.00
N1039  N     0.16667   0.95069   0.75000   0.00000  Uiso   1.00
N1040  N     0.08881   0.93017   0.66998   0.00000  Uiso   1.00
N1041  N     0.16667   0.71598   0.75000   0.00000  Uiso   1.00
N1042  N     0.12486   0.94914   0.86741   0.00000  Uiso   1.00
N1043  N     0.20848   0.71753   0.63259   0.00000  Uiso   1.00
N1044  N     0.12738   0.99171   0.56711   0.00000  Uiso   1.00
N1045  N     0.20595   0.67496   0.93289   0.00000  Uiso   1.00
N1046  N     0.09104   0.73461   0.66793   0.00000  Uiso   1.00
N1047  N     0.24230   0.93206   0.83207   0.00000  Uiso   1.00
N1048  N     0.24453   0.73650   0.83002   0.00000  Uiso   1.00
O1049  O     0.10655   0.87291   0.74999   0.00000  Uiso   1.00
O1050  O     0.22679   0.79375   0.75001   0.00000  Uiso   1.00
O1051  O     0.22679   0.87291   0.75001   0.00000  Uiso   1.00
O1052  O     0.10655   0.79375   0.75000   0.00000  Uiso   1.00
O1053  O     0.16666   0.87293   0.68513   0.00000  Uiso   1.00
O1054  O     0.16668   0.79373   0.81487   0.00000  Uiso   1.00
O1055  O     0.16668   0.87293   0.81487   0.00000  Uiso   1.00
O1056  O     0.16666   0.79373   0.68513   0.00000  Uiso   1.00
C1057  C     0.42073   0.83334   0.74995   0.00000  Uiso   1.00
C1058  C     0.37609   0.83334   0.74998   0.00000  Uiso   1.00
C1059  C     0.47392   0.69112   0.72223   0.00000  Uiso   1.00
C1060  C     0.52608   0.97555   0.77777   0.00000  Uiso   1.00
C1061  C     0.52623   0.69186   0.77764   0.00000  Uiso   1.00
C1062  C     0.47377   0.97480   0.72236   0.00000  Uiso   1.00
C1063  C     0.50114   0.83286   0.66440   0.00000  Uiso   1.00
C1064  C     0.49886   0.83380   0.83560   0.00000  Uiso   1.00
C1065  C     0.50852   0.79438   0.90644   0.00000  Uiso   1.00
C1066  C     0.49148   0.87229   0.59356   0.00000  Uiso   1.00
C1067  C     0.49743   0.83491   0.88406   0.00000  Uiso   1.00
C1068  C     0.57927   0.83333   0.75005   0.00000  Uiso   1.00
C1069  C     0.50257   0.83176   0.61594   0.00000  Uiso   1.00
C1070  C     0.48562   0.87525   0.90806   0.00000  Uiso   1.00
C1071  C     0.51438   0.79142   0.59194   0.00000  Uiso   1.00
C1072  C     0.48732   0.87489   0.95459   0.00000  Uiso   1.00
C1073  C     0.51268   0.79178   0.54542   0.00000  Uiso   1.00
C1074  C     0.49925   0.83365   0.97673   0.00000  Uiso   1.00
C1075  C     0.50075   0.83302   0.52327   0.00000  Uiso   1.00
C1076  C     0.50952   0.79299   0.95243   0.00000  Uiso   1.00
C1077  C     0.49048   0.87368   0.54757   0.00000  Uiso   1.00
C1078  C     0.47747   0.91499   0.97947   0.00000  Uiso   1.00
C1079  C     0.47908   0.91477   0.52533   0.00000  Uiso   1.00
C1080  C     0.52253   0.75168   0.52053   0.00000  Uiso   1.00
C1081  C     0.47037   0.91635   0.88538   0.00000  Uiso   1.00
C1082  C     0.52963   0.75031   0.61462   0.00000  Uiso   1.00
C1083  C     0.46887   0.95753   0.54855   0.00000  Uiso   1.00
C1084  C     0.53113   0.70914   0.95145   0.00000  Uiso   1.00
C1085  C     0.44647   0.71547   0.69219   0.00000  Uiso   1.00
C1086  C     0.55353   0.95119   0.80781   0.00000  Uiso   1.00
C1087  C     0.55475   0.71690   0.80667   0.00000  Uiso   1.00
C1088  C     0.44525   0.94977   0.69333   0.00000  Uiso   1.00
C1089  C     0.52091   0.75190   0.97467   0.00000  Uiso   1.00
C1090  C     0.35461   0.79096   0.74911   0.00000  Uiso   1.00
C1091  C     0.64539   0.87570   0.75089   0.00000  Uiso   1.00
C1092  C     0.64537   0.79096   0.74910   0.00000  Uiso   1.00
C1093  C     0.35463   0.87571   0.75090   0.00000  Uiso   1.00
C1094  C     0.62391   0.83333   0.75002   0.00000  Uiso   1.00
Cu1095 Cu    0.50000   0.88022   0.75000   0.00000  Uiso   1.00
Cu1096 Cu    0.50000   0.78645   0.75000   0.00000  Uiso   1.00
H1097  H     0.51692   0.76366   0.88763   0.00000  Uiso   1.00
H1098  H     0.48308   0.90301   0.61237   0.00000  Uiso   1.00
H1099  H     0.46861   0.94714   0.96345   0.00000  Uiso   1.00
H1100  H     0.53139   0.71953   0.53655   0.00000  Uiso   1.00
H1101  H     0.37060   0.75782   0.74841   0.00000  Uiso   1.00
H1102  H     0.62940   0.90884   0.75159   0.00000  Uiso   1.00
H1103  H     0.62936   0.75782   0.74833   0.00000  Uiso   1.00
H1104  H     0.37064   0.90885   0.75167   0.00000  Uiso   1.00
N1105  N     0.50000   0.95069   0.75000   0.00000  Uiso   1.00
N1106  N     0.42214   0.93017   0.66998   0.00000  Uiso   1.00
N1107  N     0.50000   0.71598   0.75000   0.00000  Uiso   1.00
N1108  N     0.45819   0.94914   0.86741   0.00000  Uiso   1.00
N1109  N     0.54181   0.71753   0.63259   0.00000  Uiso   1.00
N1110  N     0.46071   0.99171   0.56711   0.00000  Uiso   1.00
N1111  N     0.53929   0.67496   0.93289   0.00000  Uiso   1.00
N1112  N     0.42437   0.73461   0.66793   0.00000  Uiso   1.00
N1113  N     0.57563   0.93206   0.83207   0.00000  Uiso   1.00
N1114  N     0.57786   0.73650   0.83002   0.00000  Uiso   1.00
O1115  O     0.43988   0.87291   0.74999   0.00000  Uiso   1.00
O1116  O     0.56012   0.79375   0.75001   0.00000  Uiso   1.00
O1117  O     0.56012   0.87291   0.75001   0.00000  Uiso   1.00
O1118  O     0.43988   0.79375   0.75000   0.00000  Uiso   1.00
O1119  O     0.49999   0.87293   0.68513   0.00000  Uiso   1.00
O1120  O     0.50001   0.79373   0.81487   0.00000  Uiso   1.00
O1121  O     0.50001   0.87293   0.81487   0.00000  Uiso   1.00
O1122  O     0.49999   0.79373   0.68513   0.00000  Uiso   1.00
C1123  C     0.75406   0.83334   0.74995   0.00000  Uiso   1.00
C1124  C     0.70943   0.83334   0.74998   0.00000  Uiso   1.00
C1125  C     0.80725   0.69112   0.72223   0.00000  Uiso   1.00
C1126  C     0.85942   0.97555   0.77777   0.00000  Uiso   1.00
C1127  C     0.85956   0.69186   0.77764   0.00000  Uiso   1.00
C1128  C     0.80710   0.97480   0.72236   0.00000  Uiso   1.00
C1129  C     0.83447   0.83286   0.66440   0.00000  Uiso   1.00
C1130  C     0.83220   0.83380   0.83560   0.00000  Uiso   1.00
C1131  C     0.84186   0.79438   0.90644   0.00000  Uiso   1.00
C1132  C     0.82481   0.87229   0.59356   0.00000  Uiso   1.00
C1133  C     0.83076   0.83491   0.88406   0.00000  Uiso   1.00
C1134  C     0.91260   0.83333   0.75005   0.00000  Uiso   1.00
C1135  C     0.83590   0.83176   0.61594   0.00000  Uiso   1.00
C1136  C     0.81895   0.87525   0.90806   0.00000  Uiso   1.00
C1137  C     0.84772   0.79142   0.59194   0.00000  Uiso   1.00
C1138  C     0.82065   0.87489   0.95459   0.00000  Uiso   1.00
C1139  C     0.84602   0.79178   0.54542   0.00000  Uiso   1.00
C1140  C     0.83259   0.83365   0.97673   0.00000  Uiso   1.00
C1141  C     0.83408   0.83302   0.52327   0.00000  Uiso   1.00
C1142  C     0.84285   0.79299   0.95243   0.00000  Uiso   1.00
C1143  C     0.82382   0.87368   0.54757   0.00000  Uiso   1.00
C1144  C     0.81081   0.91499   0.97947   0.00000  Uiso   1.00
C1145  C     0.81242   0.91477   0.52533   0.00000  Uiso   1.00
C1146  C     0.85586   0.75168   0.52053   0.00000  Uiso   1.00
C1147  C     0.80371   0.91635   0.88538   0.00000  Uiso   1.00
C1148  C     0.86296   0.75031   0.61462   0.00000  Uiso   1.00
C1149  C     0.80221   0.95753   0.54855   0.00000  Uiso   1.00
C1150  C     0.86446   0.70914   0.95145   0.00000  Uiso   1.00
C1151  C     0.77980   0.71547   0.69219   0.00000  Uiso   1.00
C1152  C     0.88687   0.95119   0.80781   0.00000  Uiso   1.00
C1153  C     0.88808   0.71690   0.80667   0.00000  Uiso   1.00
C1154  C     0.77858   0.94977   0.69333   0.00000  Uiso   1.00
C1155  C     0.85425   0.75190   0.97467   0.00000  Uiso   1.00
C1156  C     0.68795   0.79096   0.74911   0.00000  Uiso   1.00
C1157  C     0.97872   0.87570   0.75089   0.00000  Uiso   1.00
C1158  C     0.97870   0.79096   0.74910   0.00000  Uiso   1.00
C1159  C     0.68797   0.87571   0.75090   0.00000  Uiso   1.00
C1160  C     0.95724   0.83333   0.75002   0.00000  Uiso   1.00
Cu1161 Cu    0.83333   0.88022   0.75000   0.00000  Uiso   1.00
Cu1162 Cu    0.83333   0.78645   0.75000   0.00000  Uiso   1.00
H1163  H     0.85025   0.76366   0.88763   0.00000  Uiso   1.00
H1164  H     0.81641   0.90301   0.61237   0.00000  Uiso   1.00
H1165  H     0.80195   0.94714   0.96345   0.00000  Uiso   1.00
H1166  H     0.86472   0.71953   0.53655   0.00000  Uiso   1.00
H1167  H     0.70393   0.75782   0.74841   0.00000  Uiso   1.00
H1168  H     0.96273   0.90884   0.75159   0.00000  Uiso   1.00
H1169  H     0.96269   0.75782   0.74833   0.00000  Uiso   1.00
H1170  H     0.70397   0.90885   0.75167   0.00000  Uiso   1.00
N1171  N     0.83333   0.95069   0.75000   0.00000  Uiso   1.00
N1172  N     0.75547   0.93017   0.66998   0.00000  Uiso   1.00
N1173  N     0.83333   0.71598   0.75000   0.00000  Uiso   1.00
N1174  N     0.79153   0.94914   0.86741   0.00000  Uiso   1.00
N1175  N     0.87514   0.71753   0.63259   0.00000  Uiso   1.00
N1176  N     0.79404   0.99171   0.56711   0.00000  Uiso   1.00
N1177  N     0.87262   0.67496   0.93289   0.00000  Uiso   1.00
N1178  N     0.75770   0.73461   0.66793   0.00000  Uiso   1.00
N1179  N     0.90896   0.93206   0.83207   0.00000  Uiso   1.00
N1180  N     0.91119   0.73650   0.83002   0.00000  Uiso   1.00
O1181  O     0.77321   0.87291   0.74999   0.00000  Uiso   1.00
O1182  O     0.89345   0.79375   0.75001   0.00000  Uiso   1.00
O1183  O     0.89345   0.87291   0.75001   0.00000  Uiso   1.00
O1184  O     0.77321   0.79375   0.75000   0.00000  Uiso   1.00
O1185  O     0.83332   0.87293   0.68513   0.00000  Uiso   1.00
O1186  O     0.83334   0.79373   0.81487   0.00000  Uiso   1.00
O1187  O     0.83334   0.87293   0.81487   0.00000  Uiso   1.00
O1188  O     0.83332   0.79373   0.68513   0.00000  Uiso   1.00
loop_
_geom_bond_atom_site_label_1
_geom_bond_atom_site_label_2
_geom_bond_distance
_geom_bond_site_symmetry_2
_ccdc_geom_bond_type
C1     O62     1.294   .     A
C1     O59     1.295   .     A
C1     C2      1.450   .     S
C2     C34     1.401   .     A
C2     C37     1.401   .     A
C3     N51     1.371   .     A
C3     C29     1.444   .     S
C3     C402    1.424   1_545 S
C4     N49     1.371   .     A
C4     C30     1.444   .     S
C4     C203    1.424   .     S
C5     C31     1.444   .     S
C5     N51     1.373   .     A
C5     C400    1.424   1_545 S
C6     C32     1.444   .     S
C6     N49     1.373   .     A
C6     C201    1.424   .     S
C7     O66     1.295   .     A
C7     C13     1.471   .     S
C7     O63     1.303   .     A
C8     O65     1.295   .     A
C8     O64     1.303   .     A
C8     C11     1.471   .     S
C9     C11     1.397   .     A
C9     C20     1.395   .     A
C9     H41     1.081   .     S
C10    H42     1.081   .     S
C10    C21     1.395   .     A
C10    C13     1.397   .     A
C11    C14     1.416   .     A
C12    O61     1.294   .     A
C12    C38     1.450   .     S
C12    O60     1.295   .     A
C13    C15     1.416   .     A
C14    C25     1.454   .     S
C14    C16     1.410   .     A
C15    C26     1.454   .     S
C15    C17     1.410   .     A
C16    C18     1.417   .     A
C16    C22     1.408   .     A
C17    C24     1.408   .     A
C17    C19     1.417   .     A
C18    C20     1.415   .     A
C18    C613    1.411   .     S
C19    C21     1.415   .     A
C19    C612    1.411   1_554 S
C20    C33     1.411   .     A
C21    C23     1.411   .     A
C22    H43     1.084   .     S
C22    C617    1.390   .     S
C23    C27     1.448   .     S
C23    C616    1.390   1_554 S
C24    H44     1.084   .     S
C24    C627    1.390   1_554 S
C25    N52     1.158   .     T
C26    N53     1.158   .     T
C27    N54     1.157   .     T
C28    C33     1.448   .     S
C28    N55     1.157   .     T
C29    N56     1.158   .     T
C30    N57     1.158   .     T
C31    N58     1.158   .     T
C32    N50     1.158   .     T
C33    C618    1.390   .     S
C34    H45     1.083   .     S
C34    C168    1.383   1_455 S
C35    C38     1.401   .     A
C35    H46     1.083   .     S
C35    C103    1.383   .     S
C36    C38     1.401   .     A
C36    H47     1.083   .     S
C36    C100    1.383   .     S
C37    H48     1.083   .     S
C37    C167    1.383   1_455 S
Cu39   O59     1.964   .     S
Cu39   O65     1.981   .     S
Cu39   O61     1.964   .     S
Cu39   O63     1.975   .     S
Cu39   Cu40    2.689   .     S
Cu39   N49     2.021   .     S
Cu40   O60     1.964   .     S
Cu40   N51     2.021   .     S
Cu40   O64     1.975   .     S
Cu40   O62     1.964   .     S
Cu40   O66     1.981   .     S
C67    O128    1.294   .     A
C67    O125    1.295   .     A
C67    C68     1.450   .     S
C68    C100    1.401   .     A
C68    C103    1.401   .     A
C69    N117    1.371   .     A
C69    C95     1.444   .     S
C69    C468    1.424   1_545 S
C70    N115    1.371   .     A
C70    C96     1.444   .     S
C70    C269    1.424   .     S
C71    C97     1.444   .     S
C71    N117    1.373   .     A
C71    C466    1.424   1_545 S
C72    C98     1.444   .     S
C72    N115    1.373   .     A
C72    C267    1.424   .     S
C73    O132    1.295   .     A
C73    C79     1.471   .     S
C73    O129    1.303   .     A
C74    O131    1.295   .     A
C74    O130    1.303   .     A
C74    C77     1.471   .     S
C75    C77     1.397   .     A
C75    C86     1.395   .     A
C75    H107    1.081   .     S
C76    H108    1.081   .     S
C76    C87     1.395   .     A
C76    C79     1.397   .     A
C77    C80     1.416   .     A
C78    O127    1.294   .     A
C78    C104    1.450   .     S
C78    O126    1.295   .     A
C79    C81     1.416   .     A
C80    C91     1.454   .     S
C80    C82     1.410   .     A
C81    C92     1.454   .     S
C81    C83     1.410   .     A
C82    C84     1.417   .     A
C82    C88     1.408   .     A
C83    C90     1.408   .     A
C83    C85     1.417   .     A
C84    C86     1.415   .     A
C84    C679    1.411   .     S
C85    C87     1.415   .     A
C85    C678    1.411   1_554 S
C86    C99     1.411   .     A
C87    C89     1.411   .     A
C88    H109    1.084   .     S
C88    C683    1.390   .     S
C89    C93     1.448   .     S
C89    C682    1.390   1_554 S
C90    H110    1.084   .     S
C90    C693    1.390   1_554 S
C91    N118    1.158   .     T
C92    N119    1.158   .     T
C93    N120    1.157   .     T
C94    C99     1.448   .     S
C94    N121    1.157   .     T
C95    N122    1.158   .     T
C96    N123    1.158   .     T
C97    N124    1.158   .     T
C98    N116    1.158   .     T
C99    C684    1.390   .     S
C100   H111    1.083   .     S
C101   C104    1.401   .     A
C101   H112    1.083   .     S
C101   C169    1.383   .     S
C102   C104    1.401   .     A
C102   H113    1.083   .     S
C102   C166    1.383   .     S
C103   H114    1.083   .     S
Cu105  O125    1.964   .     S
Cu105  O131    1.981   .     S
Cu105  O127    1.964   .     S
Cu105  O129    1.975   .     S
Cu105  Cu106   2.689   .     S
Cu105  N115    2.021   .     S
Cu106  O126    1.964   .     S
Cu106  N117    2.021   .     S
Cu106  O130    1.975   .     S
Cu106  O128    1.964   .     S
Cu106  O132    1.981   .     S
C133   O194    1.294   .     A
C133   O191    1.295   .     A
C133   C134    1.450   .     S
C134   C166    1.401   .     A
C134   C169    1.401   .     A
C135   N183    1.371   .     A
C135   C161    1.444   .     S
C135   C534    1.424   1_545 S
C136   N181    1.371   .     A
C136   C162    1.444   .     S
C136   C335    1.424   .     S
C137   C163    1.444   .     S
C137   N183    1.373   .     A
C137   C532    1.424   1_545 S
C138   C164    1.444   .     S
C138   N181    1.373   .     A
C138   C333    1.424   .     S
C139   O198    1.295   .     A
C139   C145    1.471   .     S
C139   O195    1.303   .     A
C140   O197    1.295   .     A
C140   O196    1.303   .     A
C140   C143    1.471   .     S
C141   C143    1.397   .     A
C141   C152    1.395   .     A
C141   H173    1.081   .     S
C142   H174    1.081   .     S
C142   C153    1.395   .     A
C142   C145    1.397   .     A
C143   C146    1.416   .     A
C144   O193    1.294   .     A
C144   C170    1.450   .     S
C144   O192    1.295   .     A
C145   C147    1.416   .     A
C146   C157    1.454   .     S
C146   C148    1.410   .     A
C147   C158    1.454   .     S
C147   C149    1.410   .     A
C148   C150    1.417   .     A
C148   C154    1.408   .     A
C149   C156    1.408   .     A
C149   C151    1.417   .     A
C150   C152    1.415   .     A
C150   C745    1.411   .     S
C151   C153    1.415   .     A
C151   C744    1.411   1_554 S
C152   C165    1.411   .     A
C153   C155    1.411   .     A
C154   H175    1.084   .     S
C154   C749    1.390   .     S
C155   C159    1.448   .     S
C155   C748    1.390   1_554 S
C156   H176    1.084   .     S
C156   C759    1.390   1_554 S
C157   N184    1.158   .     T
C158   N185    1.158   .     T
C159   N186    1.157   .     T
C160   C165    1.448   .     S
C160   N187    1.157   .     T
C161   N188    1.158   .     T
C162   N189    1.158   .     T
C163   N190    1.158   .     T
C164   N182    1.158   .     T
C165   C750    1.390   .     S
C166   H177    1.083   .     S
C167   C170    1.401   .     A
C167   H178    1.083   .     S
C167   C37     1.383   1_655 S
C168   C170    1.401   .     A
C168   H179    1.083   .     S
C168   C34     1.383   1_655 S
C169   H180    1.083   .     S
Cu171  O191    1.964   .     S
Cu171  O197    1.981   .     S
Cu171  O193    1.964   .     S
Cu171  O195    1.975   .     S
Cu171  Cu172   2.689   .     S
Cu171  N181    2.021   .     S
Cu172  O192    1.964   .     S
Cu172  N183    2.021   .     S
Cu172  O196    1.975   .     S
Cu172  O194    1.964   .     S
Cu172  O198    1.981   .     S
C199   O260    1.294   .     A
C199   O257    1.295   .     A
C199   C200    1.450   .     S
C200   C232    1.401   .     A
C200   C235    1.401   .     A
C201   N249    1.371   .     A
C201   C227    1.444   .     S
C202   N247    1.371   .     A
C202   C228    1.444   .     S
C202   C401    1.424   .     S
C203   C229    1.444   .     S
C203   N249    1.373   .     A
C204   C230    1.444   .     S
C204   N247    1.373   .     A
C204   C399    1.424   .     S
C205   O264    1.295   .     A
C205   C211    1.471   .     S
C205   O261    1.303   .     A
C206   O263    1.295   .     A
C206   O262    1.303   .     A
C206   C209    1.471   .     S
C207   C209    1.397   .     A
C207   C218    1.395   .     A
C207   H239    1.081   .     S
C208   H240    1.081   .     S
C208   C219    1.395   .     A
C208   C211    1.397   .     A
C209   C212    1.416   .     A
C210   O259    1.294   .     A
C210   C236    1.450   .     S
C210   O258    1.295   .     A
C211   C213    1.416   .     A
C212   C223    1.454   .     S
C212   C214    1.410   .     A
C213   C224    1.454   .     S
C213   C215    1.410   .     A
C214   C216    1.417   .     A
C214   C220    1.408   .     A
C215   C222    1.408   .     A
C215   C217    1.417   .     A
C216   C218    1.415   .     A
C216   C811    1.411   .     S
C217   C219    1.415   .     A
C217   C810    1.411   1_554 S
C218   C231    1.411   .     A
C219   C221    1.411   .     A
C220   H241    1.084   .     S
C220   C815    1.390   .     S
C221   C225    1.448   .     S
C221   C814    1.390   1_554 S
C222   H242    1.084   .     S
C222   C825    1.390   1_554 S
C223   N250    1.158   .     T
C224   N251    1.158   .     T
C225   N252    1.157   .     T
C226   C231    1.448   .     S
C226   N253    1.157   .     T
C227   N254    1.158   .     T
C228   N255    1.158   .     T
C229   N256    1.158   .     T
C230   N248    1.158   .     T
C231   C816    1.390   .     S
C232   H243    1.083   .     S
C232   C366    1.383   1_455 S
C233   C236    1.401   .     A
C233   H244    1.083   .     S
C233   C301    1.383   .     S
C234   C236    1.401   .     A
C234   H245    1.083   .     S
C234   C298    1.383   .     S
C235   H246    1.083   .     S
C235   C365    1.383   1_455 S
Cu237  O257    1.964   .     S
Cu237  O263    1.981   .     S
Cu237  O259    1.964   .     S
Cu237  O261    1.975   .     S
Cu237  Cu238   2.689   .     S
Cu237  N247    2.021   .     S
Cu238  O258    1.964   .     S
Cu238  N249    2.021   .     S
Cu238  O262    1.975   .     S
Cu238  O260    1.964   .     S
Cu238  O264    1.981   .     S
C265   O326    1.294   .     A
C265   O323    1.295   .     A
C265   C266    1.450   .     S
C266   C298    1.401   .     A
C266   C301    1.401   .     A
C267   N315    1.371   .     A
C267   C293    1.444   .     S
C268   N313    1.371   .     A
C268   C294    1.444   .     S
C268   C467    1.424   .     S
C269   C295    1.444   .     S
C269   N315    1.373   .     A
C270   C296    1.444   .     S
C270   N313    1.373   .     A
C270   C465    1.424   .     S
C271   O330    1.295   .     A
C271   C277    1.471   .     S
C271   O327    1.303   .     A
C272   O329    1.295   .     A
C272   O328    1.303   .     A
C272   C275    1.471   .     S
C273   C275    1.397   .     A
C273   C284    1.395   .     A
C273   H305    1.081   .     S
C274   H306    1.081   .     S
C274   C285    1.395   .     A
C274   C277    1.397   .     A
C275   C278    1.416   .     A
C276   O325    1.294   .     A
C276   C302    1.450   .     S
C276   O324    1.295   .     A
C277   C279    1.416   .     A
C278   C289    1.454   .     S
C278   C280    1.410   .     A
C279   C290    1.454   .     S
C279   C281    1.410   .     A
C280   C282    1.417   .     A
C280   C286    1.408   .     A
C281   C288    1.408   .     A
C281   C283    1.417   .     A
C282   C284    1.415   .     A
C282   C877    1.411   .     S
C283   C285    1.415   .     A
C283   C876    1.411   1_554 S
C284   C297    1.411   .     A
C285   C287    1.411   .     A
C286   H307    1.084   .     S
C286   C881    1.390   .     S
C287   C291    1.448   .     S
C287   C880    1.390   1_554 S
C288   H308    1.084   .     S
C288   C891    1.390   1_554 S
C289   N316    1.158   .     T
C290   N317    1.158   .     T
C291   N318    1.157   .     T
C292   C297    1.448   .     S
C292   N319    1.157   .     T
C293   N320    1.158   .     T
C294   N321    1.158   .     T
C295   N322    1.158   .     T
C296   N314    1.158   .     T
C297   C882    1.390   .     S
C298   H309    1.083   .     S
C299   C302    1.401   .     A
C299   H310    1.083   .     S
C299   C367    1.383   .     S
C300   C302    1.401   .     A
C300   H311    1.083   .     S
C300   C364    1.383   .     S
C301   H312    1.083   .     S
Cu303  O323    1.964   .     S
Cu303  O329    1.981   .     S
Cu303  O325    1.964   .     S
Cu303  O327    1.975   .     S
Cu303  Cu304   2.689   .     S
Cu303  N313    2.021   .     S
Cu304  O324    1.964   .     S
Cu304  N315    2.021   .     S
Cu304  O328    1.975   .     S
Cu304  O326    1.964   .     S
Cu304  O330    1.981   .     S
C331   O392    1.294   .     A
C331   O389    1.295   .     A
C331   C332    1.450   .     S
C332   C364    1.401   .     A
C332   C367    1.401   .     A
C333   N381    1.371   .     A
C333   C359    1.444   .     S
C334   N379    1.371   .     A
C334   C360    1.444   .     S
C334   C533    1.424   .     S
C335   C361    1.444   .     S
C335   N381    1.373   .     A
C336   C362    1.444   .     S
C336   N379    1.373   .     A
C336   C531    1.424   .     S
C337   O396    1.295   .     A
C337   C343    1.471   .     S
C337   O393    1.303   .     A
C338   O395    1.295   .     A
C338   O394    1.303   .     A
C338   C341    1.471   .     S
C339   C341    1.397   .     A
C339   C350    1.395   .     A
C339   H371    1.081   .     S
C340   H372    1.081   .     S
C340   C351    1.395   .     A
C340   C343    1.397   .     A
C341   C344    1.416   .     A
C342   O391    1.294   .     A
C342   C368    1.450   .     S
C342   O390    1.295   .     A
C343   C345    1.416   .     A
C344   C355    1.454   .     S
C344   C346    1.410   .     A
C345   C356    1.454   .     S
C345   C347    1.410   .     A
C346   C348    1.417   .     A
C346   C352    1.408   .     A
C347   C354    1.408   .     A
C347   C349    1.417   .     A
C348   C350    1.415   .     A
C348   C943    1.411   .     S
C349   C351    1.415   .     A
C349   C942    1.411   1_554 S
C350   C363    1.411   .     A
C351   C353    1.411   .     A
C352   H373    1.084   .     S
C352   C947    1.390   .     S
C353   C357    1.448   .     S
C353   C946    1.390   1_554 S
C354   H374    1.084   .     S
C354   C957    1.390   1_554 S
C355   N382    1.158   .     T
C356   N383    1.158   .     T
C357   N384    1.157   .     T
C358   C363    1.448   .     S
C358   N385    1.157   .     T
C359   N386    1.158   .     T
C360   N387    1.158   .     T
C361   N388    1.158   .     T
C362   N380    1.158   .     T
C363   C948    1.390   .     S
C364   H375    1.083   .     S
C365   C368    1.401   .     A
C365   H376    1.083   .     S
C365   C235    1.383   1_655 S
C366   C368    1.401   .     A
C366   H377    1.083   .     S
C366   C232    1.383   1_655 S
C367   H378    1.083   .     S
Cu369  O389    1.964   .     S
Cu369  O395    1.981   .     S
Cu369  O391    1.964   .     S
Cu369  O393    1.975   .     S
Cu369  Cu370   2.689   .     S
Cu369  N379    2.021   .     S
Cu370  O390    1.964   .     S
Cu370  N381    2.021   .     S
Cu370  O394    1.975   .     S
Cu370  O392    1.964   .     S
Cu370  O396    1.981   .     S
C397   O458    1.294   .     A
C397   O455    1.295   .     A
C397   C398    1.450   .     S
C398   C430    1.401   .     A
C398   C433    1.401   .     A
C399   N447    1.371   .     A
C399   C425    1.444   .     S
C400   N445    1.371   .     A
C400   C426    1.444   .     S
C400   C5      1.424   1_565 S
C401   C427    1.444   .     S
C401   N447    1.373   .     A
C402   C428    1.444   .     S
C402   N445    1.373   .     A
C402   C3      1.424   1_565 S
C403   O462    1.295   .     A
C403   C409    1.471   .     S
C403   O459    1.303   .     A
C404   O461    1.295   .     A
C404   O460    1.303   .     A
C404   C407    1.471   .     S
C405   C407    1.397   .     A
C405   C416    1.395   .     A
C405   H437    1.081   .     S
C406   H438    1.081   .     S
C406   C417    1.395   .     A
C406   C409    1.397   .     A
C407   C410    1.416   .     A
C408   O457    1.294   .     A
C408   C434    1.450   .     S
C408   O456    1.295   .     A
C409   C411    1.416   .     A
C410   C421    1.454   .     S
C410   C412    1.410   .     A
C411   C422    1.454   .     S
C411   C413    1.410   .     A
C412   C414    1.417   .     A
C412   C418    1.408   .     A
C413   C420    1.408   .     A
C413   C415    1.417   .     A
C414   C416    1.415   .     A
C414   C1009   1.411   .     S
C415   C417    1.415   .     A
C415   C1008   1.411   1_554 S
C416   C429    1.411   .     A
C417   C419    1.411   .     A
C418   H439    1.084   .     S
C418   C1013   1.390   .     S
C419   C423    1.448   .     S
C419   C1012   1.390   1_554 S
C420   H440    1.084   .     S
C420   C1023   1.390   1_554 S
C421   N448    1.158   .     T
C422   N449    1.158   .     T
C423   N450    1.157   .     T
C424   C429    1.448   .     S
C424   N451    1.157   .     T
C425   N452    1.158   .     T
C426   N453    1.158   .     T
C427   N454    1.158   .     T
C428   N446    1.158   .     T
C429   C1014   1.390   .     S
C430   H441    1.083   .     S
C430   C564    1.383   1_455 S
C431   C434    1.401   .     A
C431   H442    1.083   .     S
C431   C499    1.383   .     S
C432   C434    1.401   .     A
C432   H443    1.083   .     S
C432   C496    1.383   .     S
C433   H444    1.083   .     S
C433   C563    1.383   1_455 S
Cu435  O455    1.964   .     S
Cu435  O461    1.981   .     S
Cu435  O457    1.964   .     S
Cu435  O459    1.975   .     S
Cu435  Cu436   2.689   .     S
Cu435  N445    2.021   .     S
Cu436  O456    1.964   .     S
Cu436  N447    2.021   .     S
Cu436  O460    1.975   .     S
Cu436  O458    1.964   .     S
Cu436  O462    1.981   .     S
C463   O524    1.294   .     A
C463   O521    1.295   .     A
C463   C464    1.450   .     S
C464   C496    1.401   .     A
C464   C499    1.401   .     A
C465   N513    1.371   .     A
C465   C491    1.444   .     S
C466   N511    1.371   .     A
C466   C492    1.444   .     S
C466   C71     1.424   1_565 S
C467   C493    1.444   .     S
C467   N513    1.373   .     A
C468   C494    1.444   .     S
C468   N511    1.373   .     A
C468   C69     1.424   1_565 S
C469   O528    1.295   .     A
C469   C475    1.471   .     S
C469   O525    1.303   .     A
C470   O527    1.295   .     A
C470   O526    1.303   .     A
C470   C473    1.471   .     S
C471   C473    1.397   .     A
C471   C482    1.395   .     A
C471   H503    1.081   .     S
C472   H504    1.081   .     S
C472   C483    1.395   .     A
C472   C475    1.397   .     A
C473   C476    1.416   .     A
C474   O523    1.294   .     A
C474   C500    1.450   .     S
C474   O522    1.295   .     A
C475   C477    1.416   .     A
C476   C487    1.454   .     S
C476   C478    1.410   .     A
C477   C488    1.454   .     S
C477   C479    1.410   .     A
C478   C480    1.417   .     A
C478   C484    1.408   .     A
C479   C486    1.408   .     A
C479   C481    1.417   .     A
C480   C482    1.415   .     A
C480   C1075   1.411   .     S
C481   C483    1.415   .     A
C481   C1074   1.411   1_554 S
C482   C495    1.411   .     A
C483   C485    1.411   .     A
C484   H505    1.084   .     S
C484   C1079   1.390   .     S
C485   C489    1.448   .     S
C485   C1078   1.390   1_554 S
C486   H506    1.084   .     S
C486   C1089   1.390   1_554 S
C487   N514    1.158   .     T
C488   N515    1.158   .     T
C489   N516    1.157   .     T
C490   C495    1.448   .     S
C490   N517    1.157   .     T
C491   N518    1.158   .     T
C492   N519    1.158   .     T
C493   N520    1.158   .     T
C494   N512    1.158   .     T
C495   C1080   1.390   .     S
C496   H507    1.083   .     S
C497   C500    1.401   .     A
C497   H508    1.083   .     S
C497   C565    1.383   .     S
C498   C500    1.401   .     A
C498   H509    1.083   .     S
C498   C562    1.383   .     S
C499   H510    1.083   .     S
Cu501  O521    1.964   .     S
Cu501  O527    1.981   .     S
Cu501  O523    1.964   .     S
Cu501  O525    1.975   .     S
Cu501  Cu502   2.689   .     S
Cu501  N511    2.021   .     S
Cu502  O522    1.964   .     S
Cu502  N513    2.021   .     S
Cu502  O526    1.975   .     S
Cu502  O524    1.964   .     S
Cu502  O528    1.981   .     S
C529   O590    1.294   .     A
C529   O587    1.295   .     A
C529   C530    1.450   .     S
C530   C562    1.401   .     A
C530   C565    1.401   .     A
C531   N579    1.371   .     A
C531   C557    1.444   .     S
C532   N577    1.371   .     A
C532   C558    1.444   .     S
C532   C137    1.424   1_565 S
C533   C559    1.444   .     S
C533   N579    1.373   .     A
C534   C560    1.444   .     S
C534   N577    1.373   .     A
C534   C135    1.424   1_565 S
C535   O594    1.295   .     A
C535   C541    1.471   .     S
C535   O591    1.303   .     A
C536   O593    1.295   .     A
C536   O592    1.303   .     A
C536   C539    1.471   .     S
C537   C539    1.397   .     A
C537   C548    1.395   .     A
C537   H569    1.081   .     S
C538   H570    1.081   .     S
C538   C549    1.395   .     A
C538   C541    1.397   .     A
C539   C542    1.416   .     A
C540   O589    1.294   .     A
C540   C566    1.450   .     S
C540   O588    1.295   .     A
C541   C543    1.416   .     A
C542   C553    1.454   .     S
C542   C544    1.410   .     A
C543   C554    1.454   .     S
C543   C545    1.410   .     A
C544   C546    1.417   .     A
C544   C550    1.408   .     A
C545   C552    1.408   .     A
C545   C547    1.417   .     A
C546   C548    1.415   .     A
C546   C1141   1.411   .     S
C547   C549    1.415   .     A
C547   C1140   1.411   1_554 S
C548   C561    1.411   .     A
C549   C551    1.411   .     A
C550   H571    1.084   .     S
C550   C1145   1.390   .     S
C551   C555    1.448   .     S
C551   C1144   1.390   1_554 S
C552   H572    1.084   .     S
C552   C1155   1.390   1_554 S
C553   N580    1.158   .     T
C554   N581    1.158   .     T
C555   N582    1.157   .     T
C556   C561    1.448   .     S
C556   N583    1.157   .     T
C557   N584    1.158   .     T
C558   N585    1.158   .     T
C559   N586    1.158   .     T
C560   N578    1.158   .     T
C561   C1146   1.390   .     S
C562   H573    1.083   .     S
C563   C566    1.401   .     A
C563   H574    1.083   .     S
C563   C433    1.383   1_655 S
C564   C566    1.401   .     A
C564   H575    1.083   .     S
C564   C430    1.383   1_655 S
C565   H576    1.083   .     S
Cu567  O587    1.964   .     S
Cu567  O593    1.981   .     S
Cu567  O589    1.964   .     S
Cu567  O591    1.975   .     S
Cu567  Cu568   2.689   .     S
Cu567  N577    2.021   .     S
Cu568  O588    1.964   .     S
Cu568  N579    2.021   .     S
Cu568  O592    1.975   .     S
Cu568  O590    1.964   .     S
Cu568  O594    1.981   .     S
C595   O656    1.294   .     A
C595   O653    1.295   .     A
C595   C596    1.450   .     S
C596   C628    1.401   .     A
C596   C631    1.401   .     A
C597   N645    1.371   .     A
C597   C623    1.444   .     S
C597   C996    1.424   1_545 S
C598   N643    1.371   .     A
C598   C624    1.444   .     S
C598   C797    1.424   .     S
C599   C625    1.444   .     S
C599   N645    1.373   .     A
C599   C994    1.424   1_545 S
C600   C626    1.444   .     S
C600   N643    1.373   .     A
C600   C795    1.424   .     S
C601   O660    1.295   .     A
C601   C607    1.471   .     S
C601   O657    1.303   .     A
C602   O659    1.295   .     A
C602   O658    1.303   .     A
C602   C605    1.471   .     S
C603   C605    1.397   .     A
C603   C614    1.395   .     A
C603   H635    1.081   .     S
C604   H636    1.081   .     S
C604   C615    1.395   .     A
C604   C607    1.397   .     A
C605   C608    1.416   .     A
C606   O655    1.294   .     A
C606   C632    1.450   .     S
C606   O654    1.295   .     A
C607   C609    1.416   .     A
C608   C619    1.454   .     S
C608   C610    1.410   .     A
C609   C620    1.454   .     S
C609   C611    1.410   .     A
C610   C612    1.417   .     A
C610   C616    1.408   .     A
C611   C618    1.408   .     A
C611   C613    1.417   .     A
C612   C614    1.415   .     A
C612   C19     1.411   1_556 S
C613   C615    1.415   .     A
C614   C627    1.411   .     A
C615   C617    1.411   .     A
C616   H637    1.084   .     S
C616   C23     1.390   1_556 S
C617   C621    1.448   .     S
C618   H638    1.084   .     S
C619   N646    1.158   .     T
C620   N647    1.158   .     T
C621   N648    1.157   .     T
C622   C627    1.448   .     S
C622   N649    1.157   .     T
C623   N650    1.158   .     T
C624   N651    1.158   .     T
C625   N652    1.158   .     T
C626   N644    1.158   .     T
C627   C24     1.390   1_556 S
C628   H639    1.083   .     S
C628   C762    1.383   1_455 S
C629   C632    1.401   .     A
C629   H640    1.083   .     S
C629   C697    1.383   .     S
C630   C632    1.401   .     A
C630   H641    1.083   .     S
C630   C694    1.383   .     S
C631   H642    1.083   .     S
C631   C761    1.383   1_455 S
Cu633  O653    1.964   .     S
Cu633  O659    1.981   .     S
Cu633  O655    1.964   .     S
Cu633  O657    1.975   .     S
Cu633  Cu634   2.689   .     S
Cu633  N643    2.021   .     S
Cu634  O654    1.964   .     S
Cu634  N645    2.021   .     S
Cu634  O658    1.975   .     S
Cu634  O656    1.964   .     S
Cu634  O660    1.981   .     S
C661   O722    1.294   .     A
C661   O719    1.295   .     A
C661   C662    1.450   .     S
C662   C694    1.401   .     A
C662   C697    1.401   .     A
C663   N711    1.371   .     A
C663   C689    1.444   .     S
C663   C1062   1.424   1_545 S
C664   N709    1.371   .     A
C664   C690    1.444   .     S
C664   C863    1.424   .     S
C665   C691    1.444   .     S
C665   N711    1.373   .     A
C665   C1060   1.424   1_545 S
C666   C692    1.444   .     S
C666   N709    1.373   .     A
C666   C861    1.424   .     S
C667   O726    1.295   .     A
C667   C673    1.471   .     S
C667   O723    1.303   .     A
C668   O725    1.295   .     A
C668   O724    1.303   .     A
C668   C671    1.471   .     S
C669   C671    1.397   .     A
C669   C680    1.395   .     A
C669   H701    1.081   .     S
C670   H702    1.081   .     S
C670   C681    1.395   .     A
C670   C673    1.397   .     A
C671   C674    1.416   .     A
C672   O721    1.294   .     A
C672   C698    1.450   .     S
C672   O720    1.295   .     A
C673   C675    1.416   .     A
C674   C685    1.454   .     S
C674   C676    1.410   .     A
C675   C686    1.454   .     S
C675   C677    1.410   .     A
C676   C678    1.417   .     A
C676   C682    1.408   .     A
C677   C684    1.408   .     A
C677   C679    1.417   .     A
C678   C680    1.415   .     A
C678   C85     1.411   1_556 S
C679   C681    1.415   .     A
C680   C693    1.411   .     A
C681   C683    1.411   .     A
C682   H703    1.084   .     S
C682   C89     1.390   1_556 S
C683   C687    1.448   .     S
C684   H704    1.084   .     S
C685   N712    1.158   .     T
C686   N713    1.158   .     T
C687   N714    1.157   .     T
C688   C693    1.448   .     S
C688   N715    1.157   .     T
C689   N716    1.158   .     T
C690   N717    1.158   .     T
C691   N718    1.158   .     T
C692   N710    1.158   .     T
C693   C90     1.390   1_556 S
C694   H705    1.083   .     S
C695   C698    1.401   .     A
C695   H706    1.083   .     S
C695   C763    1.383   .     S
C696   C698    1.401   .     A
C696   H707    1.083   .     S
C696   C760    1.383   .     S
C697   H708    1.083   .     S
Cu699  O719    1.964   .     S
Cu699  O725    1.981   .     S
Cu699  O721    1.964   .     S
Cu699  O723    1.975   .     S
Cu699  Cu700   2.689   .     S
Cu699  N709    2.021   .     S
Cu700  O720    1.964   .     S
Cu700  N711    2.021   .     S
Cu700  O724    1.975   .     S
Cu700  O722    1.964   .     S
Cu700  O726    1.981   .     S
C727   O788    1.294   .     A
C727   O785    1.295   .     A
C727   C728    1.450   .     S
C728   C760    1.401   .     A
C728   C763    1.401   .     A
C729   N777    1.371   .     A
C729   C755    1.444   .     S
C729   C1128   1.424   1_545 S
C730   N775    1.371   .     A
C730   C756    1.444   .     S
C730   C929    1.424   .     S
C731   C757    1.444   .     S
C731   N777    1.373   .     A
C731   C1126   1.424   1_545 S
C732   C758    1.444   .     S
C732   N775    1.373   .     A
C732   C927    1.424   .     S
C733   O792    1.295   .     A
C733   C739    1.471   .     S
C733   O789    1.303   .     A
C734   O791    1.295   .     A
C734   O790    1.303   .     A
C734   C737    1.471   .     S
C735   C737    1.397   .     A
C735   C746    1.395   .     A
C735   H767    1.081   .     S
C736   H768    1.081   .     S
C736   C747    1.395   .     A
C736   C739    1.397   .     A
C737   C740    1.416   .     A
C738   O787    1.294   .     A
C738   C764    1.450   .     S
C738   O786    1.295   .     A
C739   C741    1.416   .     A
C740   C751    1.454   .     S
C740   C742    1.410   .     A
C741   C752    1.454   .     S
C741   C743    1.410   .     A
C742   C744    1.417   .     A
C742   C748    1.408   .     A
C743   C750    1.408   .     A
C743   C745    1.417   .     A
C744   C746    1.415   .     A
C744   C151    1.411   1_556 S
C745   C747    1.415   .     A
C746   C759    1.411   .     A
C747   C749    1.411   .     A
C748   H769    1.084   .     S
C748   C155    1.390   1_556 S
C749   C753    1.448   .     S
C750   H770    1.084   .     S
C751   N778    1.158   .     T
C752   N779    1.158   .     T
C753   N780    1.157   .     T
C754   C759    1.448   .     S
C754   N781    1.157   .     T
C755   N782    1.158   .     T
C756   N783    1.158   .     T
C757   N784    1.158   .     T
C758   N776    1.158   .     T
C759   C156    1.390   1_556 S
C760   H771    1.083   .     S
C761   C764    1.401   .     A
C761   H772    1.083   .     S
C761   C631    1.383   1_655 S
C762   C764    1.401   .     A
C762   H773    1.083   .     S
C762   C628    1.383   1_655 S
C763   H774    1.083   .     S
Cu765  O785    1.964   .     S
Cu765  O791    1.981   .     S
Cu765  O787    1.964   .     S
Cu765  O789    1.975   .     S
Cu765  Cu766   2.689   .     S
Cu765  N775    2.021   .     S
Cu766  O786    1.964   .     S
Cu766  N777    2.021   .     S
Cu766  O790    1.975   .     S
Cu766  O788    1.964   .     S
Cu766  O792    1.981   .     S
C793   O854    1.294   .     A
C793   O851    1.295   .     A
C793   C794    1.450   .     S
C794   C826    1.401   .     A
C794   C829    1.401   .     A
C795   N843    1.371   .     A
C795   C821    1.444   .     S
C796   N841    1.371   .     A
C796   C822    1.444   .     S
C796   C995    1.424   .     S
C797   C823    1.444   .     S
C797   N843    1.373   .     A
C798   C824    1.444   .     S
C798   N841    1.373   .     A
C798   C993    1.424   .     S
C799   O858    1.295   .     A
C799   C805    1.471   .     S
C799   O855    1.303   .     A
C800   O857    1.295   .     A
C800   O856    1.303   .     A
C800   C803    1.471   .     S
C801   C803    1.397   .     A
C801   C812    1.395   .     A
C801   H833    1.081   .     S
C802   H834    1.081   .     S
C802   C813    1.395   .     A
C802   C805    1.397   .     A
C803   C806    1.416   .     A
C804   O853    1.294   .     A
C804   C830    1.450   .     S
C804   O852    1.295   .     A
C805   C807    1.416   .     A
C806   C817    1.454   .     S
C806   C808    1.410   .     A
C807   C818    1.454   .     S
C807   C809    1.410   .     A
C808   C810    1.417   .     A
C808   C814    1.408   .     A
C809   C816    1.408   .     A
C809   C811    1.417   .     A
C810   C812    1.415   .     A
C810   C217    1.411   1_556 S
C811   C813    1.415   .     A
C812   C825    1.411   .     A
C813   C815    1.411   .     A
C814   H835    1.084   .     S
C814   C221    1.390   1_556 S
C815   C819    1.448   .     S
C816   H836    1.084   .     S
C817   N844    1.158   .     T
C818   N845    1.158   .     T
C819   N846    1.157   .     T
C820   C825    1.448   .     S
C820   N847    1.157   .     T
C821   N848    1.158   .     T
C822   N849    1.158   .     T
C823   N850    1.158   .     T
C824   N842    1.158   .     T
C825   C222    1.390   1_556 S
C826   H837    1.083   .     S
C826   C960    1.383   1_455 S
C827   C830    1.401   .     A
C827   H838    1.083   .     S
C827   C895    1.383   .     S
C828   C830    1.401   .     A
C828   H839    1.083   .     S
C828   C892    1.383   .     S
C829   H840    1.083   .     S
C829   C959    1.383   1_455 S
Cu831  O851    1.964   .     S
Cu831  O857    1.981   .     S
Cu831  O853    1.964   .     S
Cu831  O855    1.975   .     S
Cu831  Cu832   2.689   .     S
Cu831  N841    2.021   .     S
Cu832  O852    1.964   .     S
Cu832  N843    2.021   .     S
Cu832  O856    1.975   .     S
Cu832  O854    1.964   .     S
Cu832  O858    1.981   .     S
C859   O920    1.294   .     A
C859   O917    1.295   .     A
C859   C860    1.450   .     S
C860   C892    1.401   .     A
C860   C895    1.401   .     A
C861   N909    1.371   .     A
C861   C887    1.444   .     S
C862   N907    1.371   .     A
C862   C888    1.444   .     S
C862   C1061   1.424   .     S
C863   C889    1.444   .     S
C863   N909    1.373   .     A
C864   C890    1.444   .     S
C864   N907    1.373   .     A
C864   C1059   1.424   .     S
C865   O924    1.295   .     A
C865   C871    1.471   .     S
C865   O921    1.303   .     A
C866   O923    1.295   .     A
C866   O922    1.303   .     A
C866   C869    1.471   .     S
C867   C869    1.397   .     A
C867   C878    1.395   .     A
C867   H899    1.081   .     S
C868   H900    1.081   .     S
C868   C879    1.395   .     A
C868   C871    1.397   .     A
C869   C872    1.416   .     A
C870   O919    1.294   .     A
C870   C896    1.450   .     S
C870   O918    1.295   .     A
C871   C873    1.416   .     A
C872   C883    1.454   .     S
C872   C874    1.410   .     A
C873   C884    1.454   .     S
C873   C875    1.410   .     A
C874   C876    1.417   .     A
C874   C880    1.408   .     A
C875   C882    1.408   .     A
C875   C877    1.417   .     A
C876   C878    1.415   .     A
C876   C283    1.411   1_556 S
C877   C879    1.415   .     A
C878   C891    1.411   .     A
C879   C881    1.411   .     A
C880   H901    1.084   .     S
C880   C287    1.390   1_556 S
C881   C885    1.448   .     S
C882   H902    1.084   .     S
C883   N910    1.158   .     T
C884   N911    1.158   .     T
C885   N912    1.157   .     T
C886   C891    1.448   .     S
C886   N913    1.157   .     T
C887   N914    1.158   .     T
C888   N915    1.158   .     T
C889   N916    1.158   .     T
C890   N908    1.158   .     T
C891   C288    1.390   1_556 S
C892   H903    1.083   .     S
C893   C896    1.401   .     A
C893   H904    1.083   .     S
C893   C961    1.383   .     S
C894   C896    1.401   .     A
C894   H905    1.083   .     S
C894   C958    1.383   .     S
C895   H906    1.083   .     S
Cu897  O917    1.964   .     S
Cu897  O923    1.981   .     S
Cu897  O919    1.964   .     S
Cu897  O921    1.975   .     S
Cu897  Cu898   2.689   .     S
Cu897  N907    2.021   .     S
Cu898  O918    1.964   .     S
Cu898  N909    2.021   .     S
Cu898  O922    1.975   .     S
Cu898  O920    1.964   .     S
Cu898  O924    1.981   .     S
C925   O986    1.294   .     A
C925   O983    1.295   .     A
C925   C926    1.450   .     S
C926   C958    1.401   .     A
C926   C961    1.401   .     A
C927   N975    1.371   .     A
C927   C953    1.444   .     S
C928   N973    1.371   .     A
C928   C954    1.444   .     S
C928   C1127   1.424   .     S
C929   C955    1.444   .     S
C929   N975    1.373   .     A
C930   C956    1.444   .     S
C930   N973    1.373   .     A
C930   C1125   1.424   .     S
C931   O990    1.295   .     A
C931   C937    1.471   .     S
C931   O987    1.303   .     A
C932   O989    1.295   .     A
C932   O988    1.303   .     A
C932   C935    1.471   .     S
C933   C935    1.397   .     A
C933   C944    1.395   .     A
C933   H965    1.081   .     S
C934   H966    1.081   .     S
C934   C945    1.395   .     A
C934   C937    1.397   .     A
C935   C938    1.416   .     A
C936   O985    1.294   .     A
C936   C962    1.450   .     S
C936   O984    1.295   .     A
C937   C939    1.416   .     A
C938   C949    1.454   .     S
C938   C940    1.410   .     A
C939   C950    1.454   .     S
C939   C941    1.410   .     A
C940   C942    1.417   .     A
C940   C946    1.408   .     A
C941   C948    1.408   .     A
C941   C943    1.417   .     A
C942   C944    1.415   .     A
C942   C349    1.411   1_556 S
C943   C945    1.415   .     A
C944   C957    1.411   .     A
C945   C947    1.411   .     A
C946   H967    1.084   .     S
C946   C353    1.390   1_556 S
C947   C951    1.448   .     S
C948   H968    1.084   .     S
C949   N976    1.158   .     T
C950   N977    1.158   .     T
C951   N978    1.157   .     T
C952   C957    1.448   .     S
C952   N979    1.157   .     T
C953   N980    1.158   .     T
C954   N981    1.158   .     T
C955   N982    1.158   .     T
C956   N974    1.158   .     T
C957   C354    1.390   1_556 S
C958   H969    1.083   .     S
C959   C962    1.401   .     A
C959   H970    1.083   .     S
C959   C829    1.383   1_655 S
C960   C962    1.401   .     A
C960   H971    1.083   .     S
C960   C826    1.383   1_655 S
C961   H972    1.083   .     S
Cu963  O983    1.964   .     S
Cu963  O989    1.981   .     S
Cu963  O985    1.964   .     S
Cu963  O987    1.975   .     S
Cu963  Cu964   2.689   .     S
Cu963  N973    2.021   .     S
Cu964  O984    1.964   .     S
Cu964  N975    2.021   .     S
Cu964  O988    1.975   .     S
Cu964  O986    1.964   .     S
Cu964  O990    1.981   .     S
C991   O1052   1.294   .     A
C991   O1049   1.295   .     A
C991   C992    1.450   .     S
C992   C1024   1.401   .     A
C992   C1027   1.401   .     A
C993   N1041   1.371   .     A
C993   C1019   1.444   .     S
C994   N1039   1.371   .     A
C994   C1020   1.444   .     S
C994   C599    1.424   1_565 S
C995   C1021   1.444   .     S
C995   N1041   1.373   .     A
C996   C1022   1.444   .     S
C996   N1039   1.373   .     A
C996   C597    1.424   1_565 S
C997   O1056   1.295   .     A
C997   C1003   1.471   .     S
C997   O1053   1.303   .     A
C998   O1055   1.295   .     A
C998   O1054   1.303   .     A
C998   C1001   1.471   .     S
C999   C1001   1.397   .     A
C999   C1010   1.395   .     A
C999   H1031   1.081   .     S
C1000  H1032   1.081   .     S
C1000  C1011   1.395   .     A
C1000  C1003   1.397   .     A
C1001  C1004   1.416   .     A
C1002  O1051   1.294   .     A
C1002  C1028   1.450   .     S
C1002  O1050   1.295   .     A
C1003  C1005   1.416   .     A
C1004  C1015   1.454   .     S
C1004  C1006   1.410   .     A
C1005  C1016   1.454   .     S
C1005  C1007   1.410   .     A
C1006  C1008   1.417   .     A
C1006  C1012   1.408   .     A
C1007  C1014   1.408   .     A
C1007  C1009   1.417   .     A
C1008  C1010   1.415   .     A
C1008  C415    1.411   1_556 S
C1009  C1011   1.415   .     A
C1010  C1023   1.411   .     A
C1011  C1013   1.411   .     A
C1012  H1033   1.084   .     S
C1012  C419    1.390   1_556 S
C1013  C1017   1.448   .     S
C1014  H1034   1.084   .     S
C1015  N1042   1.158   .     T
C1016  N1043   1.158   .     T
C1017  N1044   1.157   .     T
C1018  C1023   1.448   .     S
C1018  N1045   1.157   .     T
C1019  N1046   1.158   .     T
C1020  N1047   1.158   .     T
C1021  N1048   1.158   .     T
C1022  N1040   1.158   .     T
C1023  C420    1.390   1_556 S
C1024  H1035   1.083   .     S
C1024  C1158   1.383   1_455 S
C1025  C1028   1.401   .     A
C1025  H1036   1.083   .     S
C1025  C1093   1.383   .     S
C1026  C1028   1.401   .     A
C1026  H1037   1.083   .     S
C1026  C1090   1.383   .     S
C1027  H1038   1.083   .     S
C1027  C1157   1.383   1_455 S
Cu1029 O1049   1.964   .     S
Cu1029 O1055   1.981   .     S
Cu1029 O1051   1.964   .     S
Cu1029 O1053   1.975   .     S
Cu1029 Cu1030  2.689   .     S
Cu1029 N1039   2.021   .     S
Cu1030 O1050   1.964   .     S
Cu1030 N1041   2.021   .     S
Cu1030 O1054   1.975   .     S
Cu1030 O1052   1.964   .     S
Cu1030 O1056   1.981   .     S
C1057  O1118   1.294   .     A
C1057  O1115   1.295   .     A
C1057  C1058   1.450   .     S
C1058  C1090   1.401   .     A
C1058  C1093   1.401   .     A
C1059  N1107   1.371   .     A
C1059  C1085   1.444   .     S
C1060  N1105   1.371   .     A
C1060  C1086   1.444   .     S
C1060  C665    1.424   1_565 S
C1061  C1087   1.444   .     S
C1061  N1107   1.373   .     A
C1062  C1088   1.444   .     S
C1062  N1105   1.373   .     A
C1062  C663    1.424   1_565 S
C1063  O1122   1.295   .     A
C1063  C1069   1.471   .     S
C1063  O1119   1.303   .     A
C1064  O1121   1.295   .     A
C1064  O1120   1.303   .     A
C1064  C1067   1.471   .     S
C1065  C1067   1.397   .     A
C1065  C1076   1.395   .     A
C1065  H1097   1.081   .     S
C1066  H1098   1.081   .     S
C1066  C1077   1.395   .     A
C1066  C1069   1.397   .     A
C1067  C1070   1.416   .     A
C1068  O1117   1.294   .     A
C1068  C1094   1.450   .     S
C1068  O1116   1.295   .     A
C1069  C1071   1.416   .     A
C1070  C1081   1.454   .     S
C1070  C1072   1.410   .     A
C1071  C1082   1.454   .     S
C1071  C1073   1.410   .     A
C1072  C1074   1.417   .     A
C1072  C1078   1.408   .     A
C1073  C1080   1.408   .     A
C1073  C1075   1.417   .     A
C1074  C1076   1.415   .     A
C1074  C481    1.411   1_556 S
C1075  C1077   1.415   .     A
C1076  C1089   1.411   .     A
C1077  C1079   1.411   .     A
C1078  H1099   1.084   .     S
C1078  C485    1.390   1_556 S
C1079  C1083   1.448   .     S
C1080  H1100   1.084   .     S
C1081  N1108   1.158   .     T
C1082  N1109   1.158   .     T
C1083  N1110   1.157   .     T
C1084  C1089   1.448   .     S
C1084  N1111   1.157   .     T
C1085  N1112   1.158   .     T
C1086  N1113   1.158   .     T
C1087  N1114   1.158   .     T
C1088  N1106   1.158   .     T
C1089  C486    1.390   1_556 S
C1090  H1101   1.083   .     S
C1091  C1094   1.401   .     A
C1091  H1102   1.083   .     S
C1091  C1159   1.383   .     S
C1092  C1094   1.401   .     A
C1092  H1103   1.083   .     S
C1092  C1156   1.383   .     S
C1093  H1104   1.083   .     S
Cu1095 O1115   1.964   .     S
Cu1095 O1121   1.981   .     S
Cu1095 O1117   1.964   .     S
Cu1095 O1119   1.975   .     S
Cu1095 Cu1096  2.689   .     S
Cu1095 N1105   2.021   .     S
Cu1096 O1116   1.964   .     S
Cu1096 N1107   2.021   .     S
Cu1096 O1120   1.975   .     S
Cu1096 O1118   1.964   .     S
Cu1096 O1122   1.981   .     S
C1123  O1184   1.294   .     A
C1123  O1181   1.295   .     A
C1123  C1124   1.450   .     S
C1124  C1156   1.401   .     A
C1124  C1159   1.401   .     A
C1125  N1173   1.371   .     A
C1125  C1151   1.444   .     S
C1126  N1171   1.371   .     A
C1126  C1152   1.444   .     S
C1126  C731    1.424   1_565 S
C1127  C1153   1.444   .     S
C1127  N1173   1.373   .     A
C1128  C1154   1.444   .     S
C1128  N1171   1.373   .     A
C1128  C729    1.424   1_565 S
C1129  O1188   1.295   .     A
C1129  C1135   1.471   .     S
C1129  O1185   1.303   .     A
C1130  O1187   1.295   .     A
C1130  O1186   1.303   .     A
C1130  C1133   1.471   .     S
C1131  C1133   1.397   .     A
C1131  C1142   1.395   .     A
C1131  H1163   1.081   .     S
C1132  H1164   1.081   .     S
C1132  C1143   1.395   .     A
C1132  C1135   1.397   .     A
C1133  C1136   1.416   .     A
C1134  O1183   1.294   .     A
C1134  C1160   1.450   .     S
C1134  O1182   1.295   .     A
C1135  C1137   1.416   .     A
C1136  C1147   1.454   .     S
C1136  C1138   1.410   .     A
C1137  C1148   1.454   .     S
C1137  C1139   1.410   .     A
C1138  C1140   1.417   .     A
C1138  C1144   1.408   .     A
C1139  C1146   1.408   .     A
C1139  C1141   1.417   .     A
C1140  C1142   1.415   .     A
C1140  C547    1.411   1_556 S
C1141  C1143   1.415   .     A
C1142  C1155   1.411   .     A
C1143  C1145   1.411   .     A
C1144  H1165   1.084   .     S
C1144  C551    1.390   1_556 S
C1145  C1149   1.448   .     S
C1146  H1166   1.084   .     S
C1147  N1174   1.158   .     T
C1148  N1175   1.158   .     T
C1149  N1176   1.157   .     T
C1150  C1155   1.448   .     S
C1150  N1177   1.157   .     T
C1151  N1178   1.158   .     T
C1152  N1179   1.158   .     T
C1153  N1180   1.158   .     T
C1154  N1172   1.158   .     T
C1155  C552    1.390   1_556 S
C1156  H1167   1.083   .     S
C1157  C1160   1.401   .     A
C1157  H1168   1.083   .     S
C1157  C1027   1.383   1_655 S
C1158  C1160   1.401   .     A
C1158  H1169   1.083   .     S
C1158  C1024   1.383   1_655 S
C1159  H1170   1.083   .     S
Cu1161 O1181   1.964   .     S
Cu1161 O1187   1.981   .     S
Cu1161 O1183   1.964   .     S
Cu1161 O1185   1.975   .     S
Cu1161 Cu1162  2.689   .     S
Cu1161 N1171   2.021   .     S
Cu1162 O1182   1.964   .     S
Cu1162 N1173   2.021   .     S
Cu1162 O1186   1.975   .     S
Cu1162 O1184   1.964   .     S
Cu1162 O1188   1.981   .     S
