data_str_m2_o10_o18_pcu_sym.128
_audit_creation_date              2020-01-03
_audit_creation_method            'Materials Studio'
_symmetry_space_group_name_H-M    'P1'
_symmetry_Int_Tables_number       1
_symmetry_cell_setting            triclinic
loop_
_symmetry_equiv_pos_as_xyz
  x,y,z
_cell_length_a                    22.3673
_cell_length_b                    26.7737
_cell_length_c                    31.8210
_cell_angle_alpha                 95.8538
_cell_angle_beta                  75.9146
_cell_angle_gamma                 104.3388
loop_
_atom_site_label
_atom_site_type_symbol
_atom_site_fract_x
_atom_site_fract_y
_atom_site_fract_z
_atom_site_U_iso_or_equiv
_atom_site_adp_type
_atom_site_occupancy
C1     C     0.18212   0.26679   0.25114   0.00000  Uiso   1.00
C2     C     0.15158   0.06653   0.24819   0.00000  Uiso   1.00
C3     C     0.09668   0.13172   0.03694   0.00000  Uiso   1.00
C4     C     0.24611   0.19399   0.45924   0.00000  Uiso   1.00
C5     C     0.05986   0.10677   0.00746   0.00000  Uiso   1.00
C6     C     0.28958   0.19923   0.48575   0.00000  Uiso   1.00
C7     C     0.19067   0.32296   0.25223   0.00000  Uiso   1.00
C8     C     0.14385   0.01037   0.24583   0.00000  Uiso   1.00
C9     C     0.12849   0.16277   0.33290   0.00000  Uiso   1.00
C10    C     0.20530   0.17382   0.16732   0.00000  Uiso   1.00
C11    C     0.10543   0.15321   0.37940   0.00000  Uiso   1.00
C12    C     0.22883   0.18405   0.12055   0.00000  Uiso   1.00
C13    C     0.03853   0.09741   0.43542   0.00000  Uiso   1.00
C14    C     0.31288   0.19998   0.05649   0.00000  Uiso   1.00
C15    C     0.05182   0.11375   0.39319   0.00000  Uiso   1.00
C16    C     0.29358   0.19545   0.10111   0.00000  Uiso   1.00
C17    C     0.14214   0.17887   0.40912   0.00000  Uiso   1.00
C18    C     0.18550   0.18528   0.09513   0.00000  Uiso   1.00
C19    C     0.13509   0.15691   0.44924   0.00000  Uiso   1.00
C20    C     0.20306   0.18057   0.04934   0.00000  Uiso   1.00
C21    C     0.07874   0.11903   0.46377   0.00000  Uiso   1.00
C22    C     0.26861   0.19328   0.03040   0.00000  Uiso   1.00
C23    C     0.18002   0.17282   0.47637   0.00000  Uiso   1.00
C24    C     0.15883   0.16322   0.02173   0.00000  Uiso   1.00
Cu25   Cu    0.10737   0.16108   0.24516   0.00000  Uiso   1.00
Cu26   Cu    0.22596   0.17225   0.25483   0.00000  Uiso   1.00
H27    H     0.33000   0.06708   0.44535   0.00000  Uiso   1.00
H28    H     0.02983   0.20790   0.04268   0.00000  Uiso   1.00
H29    H     0.00602   0.21331   0.27570   0.00000  Uiso   1.00
H30    H     0.32847   0.12199   0.22123   0.00000  Uiso   1.00
N31    N     0.31506   0.18068   0.26212   0.00000  Uiso   1.00
N32    N     0.01827   0.15265   0.23788   0.00000  Uiso   1.00
O33    O     0.12815   0.23809   0.24686   0.00000  Uiso   1.00
O34    O     0.20518   0.09524   0.25314   0.00000  Uiso   1.00
O35    O     0.22829   0.24753   0.25503   0.00000  Uiso   1.00
O36    O     0.10504   0.08580   0.24497   0.00000  Uiso   1.00
O37    O     0.08851   0.15930   0.30854   0.00000  Uiso   1.00
O38    O     0.24482   0.17403   0.19146   0.00000  Uiso   1.00
O39    O     0.18866   0.16874   0.31671   0.00000  Uiso   1.00
O40    O     0.14468   0.16460   0.18329   0.00000  Uiso   1.00
O41    O     0.00056   0.07642   0.02328   0.00000  Uiso   1.00
H42    H     0.33218   0.04234   0.00756   0.00000  Uiso   1.00
O43    O     0.01983   0.20749   0.46668   0.00000  Uiso   1.00
H44    H     0.04162   0.23909   0.48091   0.00000  Uiso   1.00
O45    O     0.13199   0.20268   0.11390   0.00000  Uiso   1.00
H46    H     0.14073   0.22704   0.13840   0.00000  Uiso   1.00
O47    O     0.17606   0.22917   0.40307   0.00000  Uiso   1.00
H48    H     0.16621   0.24296   0.37845   0.00000  Uiso   1.00
O49    O     0.00549   0.20034   0.12498   0.00000  Uiso   1.00
C50    C     0.02080   0.25138   0.14233   0.00000  Uiso   1.00
H51    H     0.04194   0.24986   0.17020   0.00000  Uiso   1.00
H52    H     0.31135   0.26681   0.15636   0.00000  Uiso   1.00
C53    C     0.06852   0.28726   0.10836   0.00000  Uiso   1.00
H54    H     0.09699   0.26547   0.08320   0.00000  Uiso   1.00
H55    H     0.04200   0.30456   0.09103   0.00000  Uiso   1.00
C56    C     0.11400   0.32919   0.12891   0.00000  Uiso   1.00
H57    H     0.08755   0.01717   0.15574   0.00000  Uiso   1.00
H58    H     0.14454   0.02308   0.10402   0.00000  Uiso   1.00
H59    H     0.14504   0.31191   0.14234   0.00000  Uiso   1.00
O60    O     0.01664   0.08791   0.36379   0.00000  Uiso   1.00
C61    C     0.28551   0.09036   0.37755   0.00000  Uiso   1.00
H62    H     0.27539   0.11459   0.35496   0.00000  Uiso   1.00
H63    H     0.27242   0.10729   0.41094   0.00000  Uiso   1.00
C64    C     0.24335   0.03618   0.37597   0.00000  Uiso   1.00
H65    H     0.25408   0.01815   0.34287   0.00000  Uiso   1.00
H66    H     0.25313   0.01249   0.39889   0.00000  Uiso   1.00
C67    C     0.17340   0.03702   0.38898   0.00000  Uiso   1.00
H68    H     0.16214   0.05522   0.42197   0.00000  Uiso   1.00
H69    H     0.14431   0.33026   0.38965   0.00000  Uiso   1.00
H70    H     0.16126   0.05855   0.36542   0.00000  Uiso   1.00
O71    O     0.06806   0.13223   0.08062   0.00000  Uiso   1.00
C72    C     0.04640   0.08332   0.09859   0.00000  Uiso   1.00
H73    H     0.07567   0.08266   0.12186   0.00000  Uiso   1.00
H74    H     0.05097   0.05069   0.07448   0.00000  Uiso   1.00
C75    C     0.31103   0.07823   0.12403   0.00000  Uiso   1.00
H76    H     0.30972   0.10903   0.14999   0.00000  Uiso   1.00
H77    H     0.28086   0.08324   0.10250   0.00000  Uiso   1.00
C78    C     0.28281   0.02683   0.14529   0.00000  Uiso   1.00
H79    H     0.27863   0.32822   0.12029   0.00000  Uiso   1.00
H80    H     0.23481   0.02719   0.16511   0.00000  Uiso   1.00
H81    H     0.31200   0.02105   0.16718   0.00000  Uiso   1.00
O82    O     0.26980   0.19947   0.41497   0.00000  Uiso   1.00
C83    C     0.30578   0.25049   0.40607   0.00000  Uiso   1.00
H84    H     0.01783   0.25931   0.41627   0.00000  Uiso   1.00
H85    H     0.27876   0.27950   0.42229   0.00000  Uiso   1.00
C86    C     0.32347   0.25603   0.35730   0.00000  Uiso   1.00
H87    H     0.01125   0.22317   0.34273   0.00000  Uiso   1.00
H88    H     0.28044   0.25395   0.34508   0.00000  Uiso   1.00
C89    C     0.03855   0.30631   0.34416   0.00000  Uiso   1.00
H90    H     0.03772   0.00226   0.37140   0.00000  Uiso   1.00
H91    H     0.02797   0.32209   0.31661   0.00000  Uiso   1.00
H92    H     0.08688   0.29907   0.33410   0.00000  Uiso   1.00
O93    O     0.24651   0.02141   0.26008   0.00000  Uiso   1.00
H94    H     0.27607   0.00064   0.26302   0.00000  Uiso   1.00
O95    O     0.08917   0.31193   0.23620   0.00000  Uiso   1.00
H96    H     0.05978   0.33266   0.23288   0.00000  Uiso   1.00
C97    C     0.51546   0.26679   0.25114   0.00000  Uiso   1.00
C98    C     0.48491   0.06653   0.24819   0.00000  Uiso   1.00
C99    C     0.43001   0.13172   0.03694   0.00000  Uiso   1.00
C100   C     0.57944   0.19399   0.45924   0.00000  Uiso   1.00
C101   C     0.39319   0.10677   0.00746   0.00000  Uiso   1.00
C102   C     0.62291   0.19923   0.48575   0.00000  Uiso   1.00
C103   C     0.52401   0.32296   0.25223   0.00000  Uiso   1.00
C104   C     0.47718   0.01037   0.24583   0.00000  Uiso   1.00
C105   C     0.46183   0.16277   0.33290   0.00000  Uiso   1.00
C106   C     0.53863   0.17382   0.16732   0.00000  Uiso   1.00
C107   C     0.43876   0.15321   0.37940   0.00000  Uiso   1.00
C108   C     0.56217   0.18405   0.12055   0.00000  Uiso   1.00
C109   C     0.37187   0.09741   0.43542   0.00000  Uiso   1.00
C110   C     0.64621   0.19998   0.05649   0.00000  Uiso   1.00
C111   C     0.38516   0.11375   0.39319   0.00000  Uiso   1.00
C112   C     0.62692   0.19545   0.10111   0.00000  Uiso   1.00
C113   C     0.47547   0.17887   0.40912   0.00000  Uiso   1.00
C114   C     0.51883   0.18528   0.09513   0.00000  Uiso   1.00
C115   C     0.46843   0.15691   0.44924   0.00000  Uiso   1.00
C116   C     0.53640   0.18057   0.04934   0.00000  Uiso   1.00
C117   C     0.41208   0.11903   0.46377   0.00000  Uiso   1.00
C118   C     0.60194   0.19328   0.03040   0.00000  Uiso   1.00
C119   C     0.51336   0.17282   0.47637   0.00000  Uiso   1.00
C120   C     0.49217   0.16322   0.02173   0.00000  Uiso   1.00
Cu121  Cu    0.44071   0.16108   0.24516   0.00000  Uiso   1.00
Cu122  Cu    0.55929   0.17225   0.25483   0.00000  Uiso   1.00
H123   H     0.66334   0.06708   0.44535   0.00000  Uiso   1.00
H124   H     0.36317   0.20790   0.04268   0.00000  Uiso   1.00
H125   H     0.33935   0.21331   0.27570   0.00000  Uiso   1.00
H126   H     0.66180   0.12199   0.22123   0.00000  Uiso   1.00
N127   N     0.64839   0.18068   0.26212   0.00000  Uiso   1.00
N128   N     0.35161   0.15265   0.23788   0.00000  Uiso   1.00
O129   O     0.46148   0.23809   0.24686   0.00000  Uiso   1.00
O130   O     0.53852   0.09524   0.25314   0.00000  Uiso   1.00
O131   O     0.56163   0.24753   0.25503   0.00000  Uiso   1.00
O132   O     0.43837   0.08580   0.24497   0.00000  Uiso   1.00
O133   O     0.42185   0.15930   0.30854   0.00000  Uiso   1.00
O134   O     0.57815   0.17403   0.19146   0.00000  Uiso   1.00
O135   O     0.52199   0.16874   0.31671   0.00000  Uiso   1.00
O136   O     0.47801   0.16460   0.18329   0.00000  Uiso   1.00
O137   O     0.33389   0.07642   0.02328   0.00000  Uiso   1.00
H138   H     0.66552   0.04234   0.00756   0.00000  Uiso   1.00
O139   O     0.35316   0.20749   0.46668   0.00000  Uiso   1.00
H140   H     0.37495   0.23909   0.48091   0.00000  Uiso   1.00
O141   O     0.46533   0.20268   0.11390   0.00000  Uiso   1.00
H142   H     0.47406   0.22704   0.13840   0.00000  Uiso   1.00
O143   O     0.50939   0.22917   0.40307   0.00000  Uiso   1.00
H144   H     0.49954   0.24296   0.37845   0.00000  Uiso   1.00
O145   O     0.33882   0.20034   0.12498   0.00000  Uiso   1.00
C146   C     0.35414   0.25138   0.14233   0.00000  Uiso   1.00
H147   H     0.37527   0.24986   0.17020   0.00000  Uiso   1.00
H148   H     0.64469   0.26681   0.15636   0.00000  Uiso   1.00
C149   C     0.40185   0.28726   0.10836   0.00000  Uiso   1.00
H150   H     0.43033   0.26547   0.08320   0.00000  Uiso   1.00
H151   H     0.37534   0.30456   0.09103   0.00000  Uiso   1.00
C152   C     0.44734   0.32919   0.12891   0.00000  Uiso   1.00
H153   H     0.42088   0.01717   0.15574   0.00000  Uiso   1.00
H154   H     0.47787   0.02308   0.10402   0.00000  Uiso   1.00
H155   H     0.47838   0.31191   0.14234   0.00000  Uiso   1.00
O156   O     0.34997   0.08791   0.36379   0.00000  Uiso   1.00
C157   C     0.61884   0.09036   0.37755   0.00000  Uiso   1.00
H158   H     0.60873   0.11459   0.35496   0.00000  Uiso   1.00
H159   H     0.60575   0.10729   0.41094   0.00000  Uiso   1.00
C160   C     0.57668   0.03618   0.37597   0.00000  Uiso   1.00
H161   H     0.58741   0.01815   0.34287   0.00000  Uiso   1.00
H162   H     0.58647   0.01249   0.39889   0.00000  Uiso   1.00
C163   C     0.50674   0.03702   0.38898   0.00000  Uiso   1.00
H164   H     0.49547   0.05522   0.42197   0.00000  Uiso   1.00
H165   H     0.47764   0.33026   0.38965   0.00000  Uiso   1.00
H166   H     0.49459   0.05855   0.36542   0.00000  Uiso   1.00
O167   O     0.40139   0.13223   0.08062   0.00000  Uiso   1.00
C168   C     0.37974   0.08332   0.09859   0.00000  Uiso   1.00
H169   H     0.40900   0.08266   0.12186   0.00000  Uiso   1.00
H170   H     0.38430   0.05069   0.07448   0.00000  Uiso   1.00
C171   C     0.64437   0.07823   0.12403   0.00000  Uiso   1.00
H172   H     0.64305   0.10903   0.14999   0.00000  Uiso   1.00
H173   H     0.61419   0.08324   0.10250   0.00000  Uiso   1.00
C174   C     0.61614   0.02683   0.14529   0.00000  Uiso   1.00
H175   H     0.61196   0.32822   0.12029   0.00000  Uiso   1.00
H176   H     0.56814   0.02719   0.16511   0.00000  Uiso   1.00
H177   H     0.64534   0.02105   0.16718   0.00000  Uiso   1.00
O178   O     0.60314   0.19947   0.41497   0.00000  Uiso   1.00
C179   C     0.63912   0.25049   0.40607   0.00000  Uiso   1.00
H180   H     0.35117   0.25931   0.41627   0.00000  Uiso   1.00
H181   H     0.61210   0.27950   0.42229   0.00000  Uiso   1.00
C182   C     0.65681   0.25603   0.35730   0.00000  Uiso   1.00
H183   H     0.34459   0.22317   0.34273   0.00000  Uiso   1.00
H184   H     0.61378   0.25395   0.34508   0.00000  Uiso   1.00
C185   C     0.37189   0.30631   0.34416   0.00000  Uiso   1.00
H186   H     0.37105   0.00226   0.37140   0.00000  Uiso   1.00
H187   H     0.36130   0.32209   0.31661   0.00000  Uiso   1.00
H188   H     0.42022   0.29907   0.33410   0.00000  Uiso   1.00
O189   O     0.57984   0.02141   0.26008   0.00000  Uiso   1.00
H190   H     0.60941   0.00064   0.26302   0.00000  Uiso   1.00
O191   O     0.42250   0.31193   0.23620   0.00000  Uiso   1.00
H192   H     0.39311   0.33266   0.23288   0.00000  Uiso   1.00
C193   C     0.84879   0.26679   0.25114   0.00000  Uiso   1.00
C194   C     0.81825   0.06653   0.24819   0.00000  Uiso   1.00
C195   C     0.76335   0.13172   0.03694   0.00000  Uiso   1.00
C196   C     0.91277   0.19399   0.45924   0.00000  Uiso   1.00
C197   C     0.72652   0.10677   0.00746   0.00000  Uiso   1.00
C198   C     0.95624   0.19923   0.48575   0.00000  Uiso   1.00
C199   C     0.85734   0.32296   0.25223   0.00000  Uiso   1.00
C200   C     0.81052   0.01037   0.24583   0.00000  Uiso   1.00
C201   C     0.79516   0.16277   0.33290   0.00000  Uiso   1.00
C202   C     0.87196   0.17382   0.16732   0.00000  Uiso   1.00
C203   C     0.77209   0.15321   0.37940   0.00000  Uiso   1.00
C204   C     0.89550   0.18405   0.12055   0.00000  Uiso   1.00
C205   C     0.70520   0.09741   0.43542   0.00000  Uiso   1.00
C206   C     0.97954   0.19998   0.05649   0.00000  Uiso   1.00
C207   C     0.71849   0.11375   0.39319   0.00000  Uiso   1.00
C208   C     0.96025   0.19545   0.10111   0.00000  Uiso   1.00
C209   C     0.80880   0.17887   0.40912   0.00000  Uiso   1.00
C210   C     0.85217   0.18528   0.09513   0.00000  Uiso   1.00
C211   C     0.80176   0.15691   0.44924   0.00000  Uiso   1.00
C212   C     0.86973   0.18057   0.04934   0.00000  Uiso   1.00
C213   C     0.74541   0.11903   0.46377   0.00000  Uiso   1.00
C214   C     0.93527   0.19328   0.03040   0.00000  Uiso   1.00
C215   C     0.84669   0.17282   0.47637   0.00000  Uiso   1.00
C216   C     0.82550   0.16322   0.02173   0.00000  Uiso   1.00
Cu217  Cu    0.77404   0.16108   0.24516   0.00000  Uiso   1.00
Cu218  Cu    0.89263   0.17225   0.25483   0.00000  Uiso   1.00
H219   H     0.99667   0.06708   0.44535   0.00000  Uiso   1.00
H220   H     0.69650   0.20790   0.04268   0.00000  Uiso   1.00
H221   H     0.67268   0.21331   0.27570   0.00000  Uiso   1.00
H222   H     0.99514   0.12199   0.22123   0.00000  Uiso   1.00
N223   N     0.98173   0.18068   0.26212   0.00000  Uiso   1.00
N224   N     0.68494   0.15265   0.23788   0.00000  Uiso   1.00
O225   O     0.79482   0.23809   0.24686   0.00000  Uiso   1.00
O226   O     0.87185   0.09524   0.25314   0.00000  Uiso   1.00
O227   O     0.89496   0.24753   0.25503   0.00000  Uiso   1.00
O228   O     0.77171   0.08580   0.24497   0.00000  Uiso   1.00
O229   O     0.75518   0.15930   0.30854   0.00000  Uiso   1.00
O230   O     0.91149   0.17403   0.19146   0.00000  Uiso   1.00
O231   O     0.85532   0.16874   0.31671   0.00000  Uiso   1.00
O232   O     0.81134   0.16460   0.18329   0.00000  Uiso   1.00
O233   O     0.66723   0.07642   0.02328   0.00000  Uiso   1.00
H234   H     0.99885   0.04234   0.00756   0.00000  Uiso   1.00
O235   O     0.68649   0.20749   0.46668   0.00000  Uiso   1.00
H236   H     0.70829   0.23909   0.48091   0.00000  Uiso   1.00
O237   O     0.79866   0.20268   0.11390   0.00000  Uiso   1.00
H238   H     0.80740   0.22704   0.13840   0.00000  Uiso   1.00
O239   O     0.84273   0.22917   0.40307   0.00000  Uiso   1.00
H240   H     0.83287   0.24296   0.37845   0.00000  Uiso   1.00
O241   O     0.67216   0.20034   0.12498   0.00000  Uiso   1.00
C242   C     0.68747   0.25138   0.14233   0.00000  Uiso   1.00
H243   H     0.70860   0.24986   0.17020   0.00000  Uiso   1.00
H244   H     0.97802   0.26681   0.15636   0.00000  Uiso   1.00
C245   C     0.73518   0.28726   0.10836   0.00000  Uiso   1.00
H246   H     0.76366   0.26547   0.08320   0.00000  Uiso   1.00
H247   H     0.70867   0.30456   0.09103   0.00000  Uiso   1.00
C248   C     0.78067   0.32919   0.12891   0.00000  Uiso   1.00
H249   H     0.75421   0.01717   0.15574   0.00000  Uiso   1.00
H250   H     0.81120   0.02308   0.10402   0.00000  Uiso   1.00
H251   H     0.81171   0.31191   0.14234   0.00000  Uiso   1.00
O252   O     0.68331   0.08791   0.36379   0.00000  Uiso   1.00
C253   C     0.95217   0.09036   0.37755   0.00000  Uiso   1.00
H254   H     0.94206   0.11459   0.35496   0.00000  Uiso   1.00
H255   H     0.93909   0.10729   0.41094   0.00000  Uiso   1.00
C256   C     0.91001   0.03618   0.37597   0.00000  Uiso   1.00
H257   H     0.92075   0.01815   0.34287   0.00000  Uiso   1.00
H258   H     0.91980   0.01249   0.39889   0.00000  Uiso   1.00
C259   C     0.84007   0.03702   0.38898   0.00000  Uiso   1.00
H260   H     0.82880   0.05522   0.42197   0.00000  Uiso   1.00
H261   H     0.81098   0.33026   0.38965   0.00000  Uiso   1.00
H262   H     0.82793   0.05855   0.36542   0.00000  Uiso   1.00
O263   O     0.73472   0.13223   0.08062   0.00000  Uiso   1.00
C264   C     0.71307   0.08332   0.09859   0.00000  Uiso   1.00
H265   H     0.74234   0.08266   0.12186   0.00000  Uiso   1.00
H266   H     0.71764   0.05069   0.07448   0.00000  Uiso   1.00
C267   C     0.97770   0.07823   0.12403   0.00000  Uiso   1.00
H268   H     0.97639   0.10903   0.14999   0.00000  Uiso   1.00
H269   H     0.94752   0.08324   0.10250   0.00000  Uiso   1.00
C270   C     0.94948   0.02683   0.14529   0.00000  Uiso   1.00
H271   H     0.94529   0.32822   0.12029   0.00000  Uiso   1.00
H272   H     0.90148   0.02719   0.16511   0.00000  Uiso   1.00
H273   H     0.97867   0.02105   0.16718   0.00000  Uiso   1.00
O274   O     0.93647   0.19947   0.41497   0.00000  Uiso   1.00
C275   C     0.97245   0.25049   0.40607   0.00000  Uiso   1.00
H276   H     0.68450   0.25931   0.41627   0.00000  Uiso   1.00
H277   H     0.94543   0.27950   0.42229   0.00000  Uiso   1.00
C278   C     0.99014   0.25603   0.35730   0.00000  Uiso   1.00
H279   H     0.67792   0.22317   0.34273   0.00000  Uiso   1.00
H280   H     0.94711   0.25395   0.34508   0.00000  Uiso   1.00
C281   C     0.70522   0.30631   0.34416   0.00000  Uiso   1.00
H282   H     0.70439   0.00226   0.37140   0.00000  Uiso   1.00
H283   H     0.69464   0.32209   0.31661   0.00000  Uiso   1.00
H284   H     0.75355   0.29907   0.33410   0.00000  Uiso   1.00
O285   O     0.91317   0.02141   0.26008   0.00000  Uiso   1.00
H286   H     0.94274   0.00064   0.26302   0.00000  Uiso   1.00
O287   O     0.75584   0.31193   0.23620   0.00000  Uiso   1.00
H288   H     0.72644   0.33266   0.23288   0.00000  Uiso   1.00
C289   C     0.18212   0.60013   0.25114   0.00000  Uiso   1.00
C290   C     0.15158   0.39987   0.24819   0.00000  Uiso   1.00
C291   C     0.09668   0.46506   0.03694   0.00000  Uiso   1.00
C292   C     0.24611   0.52732   0.45924   0.00000  Uiso   1.00
C293   C     0.05986   0.44010   0.00746   0.00000  Uiso   1.00
C294   C     0.28958   0.53257   0.48575   0.00000  Uiso   1.00
C295   C     0.19067   0.65630   0.25223   0.00000  Uiso   1.00
C296   C     0.14385   0.34370   0.24583   0.00000  Uiso   1.00
C297   C     0.12849   0.49610   0.33290   0.00000  Uiso   1.00
C298   C     0.20530   0.50716   0.16732   0.00000  Uiso   1.00
C299   C     0.10543   0.48655   0.37940   0.00000  Uiso   1.00
C300   C     0.22883   0.51738   0.12055   0.00000  Uiso   1.00
C301   C     0.03853   0.43075   0.43542   0.00000  Uiso   1.00
C302   C     0.31288   0.53331   0.05649   0.00000  Uiso   1.00
C303   C     0.05182   0.44708   0.39319   0.00000  Uiso   1.00
C304   C     0.29358   0.52879   0.10111   0.00000  Uiso   1.00
C305   C     0.14214   0.51221   0.40912   0.00000  Uiso   1.00
C306   C     0.18550   0.51862   0.09513   0.00000  Uiso   1.00
C307   C     0.13509   0.49024   0.44924   0.00000  Uiso   1.00
C308   C     0.20306   0.51391   0.04934   0.00000  Uiso   1.00
C309   C     0.07874   0.45236   0.46377   0.00000  Uiso   1.00
C310   C     0.26861   0.52661   0.03040   0.00000  Uiso   1.00
C311   C     0.18002   0.50615   0.47637   0.00000  Uiso   1.00
C312   C     0.15883   0.49655   0.02173   0.00000  Uiso   1.00
Cu313  Cu    0.10737   0.49441   0.24516   0.00000  Uiso   1.00
Cu314  Cu    0.22596   0.50559   0.25483   0.00000  Uiso   1.00
H315   H     0.33000   0.40042   0.44535   0.00000  Uiso   1.00
H316   H     0.02983   0.54124   0.04268   0.00000  Uiso   1.00
H317   H     0.00602   0.54664   0.27570   0.00000  Uiso   1.00
H318   H     0.32847   0.45533   0.22123   0.00000  Uiso   1.00
N319   N     0.31506   0.51401   0.26212   0.00000  Uiso   1.00
N320   N     0.01827   0.48599   0.23788   0.00000  Uiso   1.00
O321   O     0.12815   0.57142   0.24686   0.00000  Uiso   1.00
O322   O     0.20518   0.42858   0.25314   0.00000  Uiso   1.00
O323   O     0.22829   0.58086   0.25503   0.00000  Uiso   1.00
O324   O     0.10504   0.41914   0.24497   0.00000  Uiso   1.00
O325   O     0.08851   0.49263   0.30854   0.00000  Uiso   1.00
O326   O     0.24482   0.50737   0.19146   0.00000  Uiso   1.00
O327   O     0.18866   0.50207   0.31671   0.00000  Uiso   1.00
O328   O     0.14468   0.49793   0.18329   0.00000  Uiso   1.00
O329   O     0.00056   0.40976   0.02328   0.00000  Uiso   1.00
H330   H     0.33218   0.37568   0.00756   0.00000  Uiso   1.00
O331   O     0.01983   0.54082   0.46668   0.00000  Uiso   1.00
H332   H     0.04162   0.57242   0.48091   0.00000  Uiso   1.00
O333   O     0.13199   0.53601   0.11390   0.00000  Uiso   1.00
H334   H     0.14073   0.56038   0.13840   0.00000  Uiso   1.00
O335   O     0.17606   0.56251   0.40307   0.00000  Uiso   1.00
H336   H     0.16621   0.57629   0.37845   0.00000  Uiso   1.00
O337   O     0.00549   0.53368   0.12498   0.00000  Uiso   1.00
C338   C     0.02080   0.58472   0.14233   0.00000  Uiso   1.00
H339   H     0.04194   0.58319   0.17020   0.00000  Uiso   1.00
H340   H     0.31135   0.60014   0.15636   0.00000  Uiso   1.00
C341   C     0.06852   0.62059   0.10836   0.00000  Uiso   1.00
H342   H     0.09699   0.59880   0.08320   0.00000  Uiso   1.00
H343   H     0.04200   0.63790   0.09103   0.00000  Uiso   1.00
C344   C     0.11400   0.66252   0.12891   0.00000  Uiso   1.00
H345   H     0.08755   0.35050   0.15574   0.00000  Uiso   1.00
H346   H     0.14454   0.35641   0.10402   0.00000  Uiso   1.00
H347   H     0.14504   0.64524   0.14234   0.00000  Uiso   1.00
O348   O     0.01664   0.42125   0.36379   0.00000  Uiso   1.00
C349   C     0.28551   0.42369   0.37755   0.00000  Uiso   1.00
H350   H     0.27539   0.44792   0.35496   0.00000  Uiso   1.00
H351   H     0.27242   0.44063   0.41094   0.00000  Uiso   1.00
C352   C     0.24335   0.36951   0.37597   0.00000  Uiso   1.00
H353   H     0.25408   0.35148   0.34287   0.00000  Uiso   1.00
H354   H     0.25313   0.34583   0.39889   0.00000  Uiso   1.00
C355   C     0.17340   0.37035   0.38898   0.00000  Uiso   1.00
H356   H     0.16214   0.38855   0.42197   0.00000  Uiso   1.00
H357   H     0.14431   0.66359   0.38965   0.00000  Uiso   1.00
H358   H     0.16126   0.39188   0.36542   0.00000  Uiso   1.00
O359   O     0.06806   0.46557   0.08062   0.00000  Uiso   1.00
C360   C     0.04640   0.41666   0.09859   0.00000  Uiso   1.00
H361   H     0.07567   0.41599   0.12186   0.00000  Uiso   1.00
H362   H     0.05097   0.38402   0.07448   0.00000  Uiso   1.00
C363   C     0.31103   0.41156   0.12403   0.00000  Uiso   1.00
H364   H     0.30972   0.44236   0.14999   0.00000  Uiso   1.00
H365   H     0.28086   0.41658   0.10250   0.00000  Uiso   1.00
C366   C     0.28281   0.36017   0.14529   0.00000  Uiso   1.00
H367   H     0.27863   0.66155   0.12029   0.00000  Uiso   1.00
H368   H     0.23481   0.36052   0.16511   0.00000  Uiso   1.00
H369   H     0.31200   0.35439   0.16718   0.00000  Uiso   1.00
O370   O     0.26980   0.53280   0.41497   0.00000  Uiso   1.00
C371   C     0.30578   0.58382   0.40607   0.00000  Uiso   1.00
H372   H     0.01783   0.59264   0.41627   0.00000  Uiso   1.00
H373   H     0.27876   0.61284   0.42229   0.00000  Uiso   1.00
C374   C     0.32347   0.58936   0.35730   0.00000  Uiso   1.00
H375   H     0.01125   0.55650   0.34273   0.00000  Uiso   1.00
H376   H     0.28044   0.58728   0.34508   0.00000  Uiso   1.00
C377   C     0.03855   0.63964   0.34416   0.00000  Uiso   1.00
H378   H     0.03772   0.33559   0.37140   0.00000  Uiso   1.00
H379   H     0.02797   0.65542   0.31661   0.00000  Uiso   1.00
H380   H     0.08688   0.63241   0.33410   0.00000  Uiso   1.00
O381   O     0.24651   0.35474   0.26008   0.00000  Uiso   1.00
H382   H     0.27607   0.33398   0.26302   0.00000  Uiso   1.00
O383   O     0.08917   0.64527   0.23620   0.00000  Uiso   1.00
H384   H     0.05978   0.66599   0.23288   0.00000  Uiso   1.00
C385   C     0.51546   0.60013   0.25114   0.00000  Uiso   1.00
C386   C     0.48491   0.39987   0.24819   0.00000  Uiso   1.00
C387   C     0.43001   0.46506   0.03694   0.00000  Uiso   1.00
C388   C     0.57944   0.52732   0.45924   0.00000  Uiso   1.00
C389   C     0.39319   0.44010   0.00746   0.00000  Uiso   1.00
C390   C     0.62291   0.53257   0.48575   0.00000  Uiso   1.00
C391   C     0.52401   0.65630   0.25223   0.00000  Uiso   1.00
C392   C     0.47718   0.34370   0.24583   0.00000  Uiso   1.00
C393   C     0.46183   0.49610   0.33290   0.00000  Uiso   1.00
C394   C     0.53863   0.50716   0.16732   0.00000  Uiso   1.00
C395   C     0.43876   0.48655   0.37940   0.00000  Uiso   1.00
C396   C     0.56217   0.51738   0.12055   0.00000  Uiso   1.00
C397   C     0.37187   0.43075   0.43542   0.00000  Uiso   1.00
C398   C     0.64621   0.53331   0.05649   0.00000  Uiso   1.00
C399   C     0.38516   0.44708   0.39319   0.00000  Uiso   1.00
C400   C     0.62692   0.52879   0.10111   0.00000  Uiso   1.00
C401   C     0.47547   0.51221   0.40912   0.00000  Uiso   1.00
C402   C     0.51883   0.51862   0.09513   0.00000  Uiso   1.00
C403   C     0.46843   0.49024   0.44924   0.00000  Uiso   1.00
C404   C     0.53640   0.51391   0.04934   0.00000  Uiso   1.00
C405   C     0.41208   0.45236   0.46377   0.00000  Uiso   1.00
C406   C     0.60194   0.52661   0.03040   0.00000  Uiso   1.00
C407   C     0.51336   0.50615   0.47637   0.00000  Uiso   1.00
C408   C     0.49217   0.49655   0.02173   0.00000  Uiso   1.00
Cu409  Cu    0.44071   0.49441   0.24516   0.00000  Uiso   1.00
Cu410  Cu    0.55929   0.50559   0.25483   0.00000  Uiso   1.00
H411   H     0.66334   0.40042   0.44535   0.00000  Uiso   1.00
H412   H     0.36317   0.54124   0.04268   0.00000  Uiso   1.00
H413   H     0.33935   0.54664   0.27570   0.00000  Uiso   1.00
H414   H     0.66180   0.45533   0.22123   0.00000  Uiso   1.00
N415   N     0.64839   0.51401   0.26212   0.00000  Uiso   1.00
N416   N     0.35161   0.48599   0.23788   0.00000  Uiso   1.00
O417   O     0.46148   0.57142   0.24686   0.00000  Uiso   1.00
O418   O     0.53852   0.42858   0.25314   0.00000  Uiso   1.00
O419   O     0.56163   0.58086   0.25503   0.00000  Uiso   1.00
O420   O     0.43837   0.41914   0.24497   0.00000  Uiso   1.00
O421   O     0.42185   0.49263   0.30854   0.00000  Uiso   1.00
O422   O     0.57815   0.50737   0.19146   0.00000  Uiso   1.00
O423   O     0.52199   0.50207   0.31671   0.00000  Uiso   1.00
O424   O     0.47801   0.49793   0.18329   0.00000  Uiso   1.00
O425   O     0.33389   0.40976   0.02328   0.00000  Uiso   1.00
H426   H     0.66552   0.37568   0.00756   0.00000  Uiso   1.00
O427   O     0.35316   0.54082   0.46668   0.00000  Uiso   1.00
H428   H     0.37495   0.57242   0.48091   0.00000  Uiso   1.00
O429   O     0.46533   0.53601   0.11390   0.00000  Uiso   1.00
H430   H     0.47406   0.56038   0.13840   0.00000  Uiso   1.00
O431   O     0.50939   0.56251   0.40307   0.00000  Uiso   1.00
H432   H     0.49954   0.57629   0.37845   0.00000  Uiso   1.00
O433   O     0.33882   0.53368   0.12498   0.00000  Uiso   1.00
C434   C     0.35414   0.58472   0.14233   0.00000  Uiso   1.00
H435   H     0.37527   0.58319   0.17020   0.00000  Uiso   1.00
H436   H     0.64469   0.60014   0.15636   0.00000  Uiso   1.00
C437   C     0.40185   0.62059   0.10836   0.00000  Uiso   1.00
H438   H     0.43033   0.59880   0.08320   0.00000  Uiso   1.00
H439   H     0.37534   0.63790   0.09103   0.00000  Uiso   1.00
C440   C     0.44734   0.66252   0.12891   0.00000  Uiso   1.00
H441   H     0.42088   0.35050   0.15574   0.00000  Uiso   1.00
H442   H     0.47787   0.35641   0.10402   0.00000  Uiso   1.00
H443   H     0.47838   0.64524   0.14234   0.00000  Uiso   1.00
O444   O     0.34997   0.42125   0.36379   0.00000  Uiso   1.00
C445   C     0.61884   0.42369   0.37755   0.00000  Uiso   1.00
H446   H     0.60873   0.44792   0.35496   0.00000  Uiso   1.00
H447   H     0.60575   0.44063   0.41094   0.00000  Uiso   1.00
C448   C     0.57668   0.36951   0.37597   0.00000  Uiso   1.00
H449   H     0.58741   0.35148   0.34287   0.00000  Uiso   1.00
H450   H     0.58647   0.34583   0.39889   0.00000  Uiso   1.00
C451   C     0.50674   0.37035   0.38898   0.00000  Uiso   1.00
H452   H     0.49547   0.38855   0.42197   0.00000  Uiso   1.00
H453   H     0.47764   0.66359   0.38965   0.00000  Uiso   1.00
H454   H     0.49459   0.39188   0.36542   0.00000  Uiso   1.00
O455   O     0.40139   0.46557   0.08062   0.00000  Uiso   1.00
C456   C     0.37974   0.41666   0.09859   0.00000  Uiso   1.00
H457   H     0.40900   0.41599   0.12186   0.00000  Uiso   1.00
H458   H     0.38430   0.38402   0.07448   0.00000  Uiso   1.00
C459   C     0.64437   0.41156   0.12403   0.00000  Uiso   1.00
H460   H     0.64305   0.44236   0.14999   0.00000  Uiso   1.00
H461   H     0.61419   0.41658   0.10250   0.00000  Uiso   1.00
C462   C     0.61614   0.36017   0.14529   0.00000  Uiso   1.00
H463   H     0.61196   0.66155   0.12029   0.00000  Uiso   1.00
H464   H     0.56814   0.36052   0.16511   0.00000  Uiso   1.00
H465   H     0.64534   0.35439   0.16718   0.00000  Uiso   1.00
O466   O     0.60314   0.53280   0.41497   0.00000  Uiso   1.00
C467   C     0.63912   0.58382   0.40607   0.00000  Uiso   1.00
H468   H     0.35117   0.59264   0.41627   0.00000  Uiso   1.00
H469   H     0.61210   0.61284   0.42229   0.00000  Uiso   1.00
C470   C     0.65681   0.58936   0.35730   0.00000  Uiso   1.00
H471   H     0.34459   0.55650   0.34273   0.00000  Uiso   1.00
H472   H     0.61378   0.58728   0.34508   0.00000  Uiso   1.00
C473   C     0.37189   0.63964   0.34416   0.00000  Uiso   1.00
H474   H     0.37105   0.33559   0.37140   0.00000  Uiso   1.00
H475   H     0.36130   0.65542   0.31661   0.00000  Uiso   1.00
H476   H     0.42022   0.63241   0.33410   0.00000  Uiso   1.00
O477   O     0.57984   0.35474   0.26008   0.00000  Uiso   1.00
H478   H     0.60941   0.33398   0.26302   0.00000  Uiso   1.00
O479   O     0.42250   0.64527   0.23620   0.00000  Uiso   1.00
H480   H     0.39311   0.66599   0.23288   0.00000  Uiso   1.00
C481   C     0.84879   0.60013   0.25114   0.00000  Uiso   1.00
C482   C     0.81825   0.39987   0.24819   0.00000  Uiso   1.00
C483   C     0.76335   0.46506   0.03694   0.00000  Uiso   1.00
C484   C     0.91277   0.52732   0.45924   0.00000  Uiso   1.00
C485   C     0.72652   0.44010   0.00746   0.00000  Uiso   1.00
C486   C     0.95624   0.53257   0.48575   0.00000  Uiso   1.00
C487   C     0.85734   0.65630   0.25223   0.00000  Uiso   1.00
C488   C     0.81052   0.34370   0.24583   0.00000  Uiso   1.00
C489   C     0.79516   0.49610   0.33290   0.00000  Uiso   1.00
C490   C     0.87196   0.50716   0.16732   0.00000  Uiso   1.00
C491   C     0.77209   0.48655   0.37940   0.00000  Uiso   1.00
C492   C     0.89550   0.51738   0.12055   0.00000  Uiso   1.00
C493   C     0.70520   0.43075   0.43542   0.00000  Uiso   1.00
C494   C     0.97954   0.53331   0.05649   0.00000  Uiso   1.00
C495   C     0.71849   0.44708   0.39319   0.00000  Uiso   1.00
C496   C     0.96025   0.52879   0.10111   0.00000  Uiso   1.00
C497   C     0.80880   0.51221   0.40912   0.00000  Uiso   1.00
C498   C     0.85217   0.51862   0.09513   0.00000  Uiso   1.00
C499   C     0.80176   0.49024   0.44924   0.00000  Uiso   1.00
C500   C     0.86973   0.51391   0.04934   0.00000  Uiso   1.00
C501   C     0.74541   0.45236   0.46377   0.00000  Uiso   1.00
C502   C     0.93527   0.52661   0.03040   0.00000  Uiso   1.00
C503   C     0.84669   0.50615   0.47637   0.00000  Uiso   1.00
C504   C     0.82550   0.49655   0.02173   0.00000  Uiso   1.00
Cu505  Cu    0.77404   0.49441   0.24516   0.00000  Uiso   1.00
Cu506  Cu    0.89263   0.50559   0.25483   0.00000  Uiso   1.00
H507   H     0.99667   0.40042   0.44535   0.00000  Uiso   1.00
H508   H     0.69650   0.54124   0.04268   0.00000  Uiso   1.00
H509   H     0.67268   0.54664   0.27570   0.00000  Uiso   1.00
H510   H     0.99514   0.45533   0.22123   0.00000  Uiso   1.00
N511   N     0.98173   0.51401   0.26212   0.00000  Uiso   1.00
N512   N     0.68494   0.48599   0.23788   0.00000  Uiso   1.00
O513   O     0.79482   0.57142   0.24686   0.00000  Uiso   1.00
O514   O     0.87185   0.42858   0.25314   0.00000  Uiso   1.00
O515   O     0.89496   0.58086   0.25503   0.00000  Uiso   1.00
O516   O     0.77171   0.41914   0.24497   0.00000  Uiso   1.00
O517   O     0.75518   0.49263   0.30854   0.00000  Uiso   1.00
O518   O     0.91149   0.50737   0.19146   0.00000  Uiso   1.00
O519   O     0.85532   0.50207   0.31671   0.00000  Uiso   1.00
O520   O     0.81134   0.49793   0.18329   0.00000  Uiso   1.00
O521   O     0.66723   0.40976   0.02328   0.00000  Uiso   1.00
H522   H     0.99885   0.37568   0.00756   0.00000  Uiso   1.00
O523   O     0.68649   0.54082   0.46668   0.00000  Uiso   1.00
H524   H     0.70829   0.57242   0.48091   0.00000  Uiso   1.00
O525   O     0.79866   0.53601   0.11390   0.00000  Uiso   1.00
H526   H     0.80740   0.56038   0.13840   0.00000  Uiso   1.00
O527   O     0.84273   0.56251   0.40307   0.00000  Uiso   1.00
H528   H     0.83287   0.57629   0.37845   0.00000  Uiso   1.00
O529   O     0.67216   0.53368   0.12498   0.00000  Uiso   1.00
C530   C     0.68747   0.58472   0.14233   0.00000  Uiso   1.00
H531   H     0.70860   0.58319   0.17020   0.00000  Uiso   1.00
H532   H     0.97802   0.60014   0.15636   0.00000  Uiso   1.00
C533   C     0.73518   0.62059   0.10836   0.00000  Uiso   1.00
H534   H     0.76366   0.59880   0.08320   0.00000  Uiso   1.00
H535   H     0.70867   0.63790   0.09103   0.00000  Uiso   1.00
C536   C     0.78067   0.66252   0.12891   0.00000  Uiso   1.00
H537   H     0.75421   0.35050   0.15574   0.00000  Uiso   1.00
H538   H     0.81120   0.35641   0.10402   0.00000  Uiso   1.00
H539   H     0.81171   0.64524   0.14234   0.00000  Uiso   1.00
O540   O     0.68331   0.42125   0.36379   0.00000  Uiso   1.00
C541   C     0.95217   0.42369   0.37755   0.00000  Uiso   1.00
H542   H     0.94206   0.44792   0.35496   0.00000  Uiso   1.00
H543   H     0.93909   0.44063   0.41094   0.00000  Uiso   1.00
C544   C     0.91001   0.36951   0.37597   0.00000  Uiso   1.00
H545   H     0.92075   0.35148   0.34287   0.00000  Uiso   1.00
H546   H     0.91980   0.34583   0.39889   0.00000  Uiso   1.00
C547   C     0.84007   0.37035   0.38898   0.00000  Uiso   1.00
H548   H     0.82880   0.38855   0.42197   0.00000  Uiso   1.00
H549   H     0.81098   0.66359   0.38965   0.00000  Uiso   1.00
H550   H     0.82793   0.39188   0.36542   0.00000  Uiso   1.00
O551   O     0.73472   0.46557   0.08062   0.00000  Uiso   1.00
C552   C     0.71307   0.41666   0.09859   0.00000  Uiso   1.00
H553   H     0.74234   0.41599   0.12186   0.00000  Uiso   1.00
H554   H     0.71764   0.38402   0.07448   0.00000  Uiso   1.00
C555   C     0.97770   0.41156   0.12403   0.00000  Uiso   1.00
H556   H     0.97639   0.44236   0.14999   0.00000  Uiso   1.00
H557   H     0.94752   0.41658   0.10250   0.00000  Uiso   1.00
C558   C     0.94948   0.36017   0.14529   0.00000  Uiso   1.00
H559   H     0.94529   0.66155   0.12029   0.00000  Uiso   1.00
H560   H     0.90148   0.36052   0.16511   0.00000  Uiso   1.00
H561   H     0.97867   0.35439   0.16718   0.00000  Uiso   1.00
O562   O     0.93647   0.53280   0.41497   0.00000  Uiso   1.00
C563   C     0.97245   0.58382   0.40607   0.00000  Uiso   1.00
H564   H     0.68450   0.59264   0.41627   0.00000  Uiso   1.00
H565   H     0.94543   0.61284   0.42229   0.00000  Uiso   1.00
C566   C     0.99014   0.58936   0.35730   0.00000  Uiso   1.00
H567   H     0.67792   0.55650   0.34273   0.00000  Uiso   1.00
H568   H     0.94711   0.58728   0.34508   0.00000  Uiso   1.00
C569   C     0.70522   0.63964   0.34416   0.00000  Uiso   1.00
H570   H     0.70439   0.33559   0.37140   0.00000  Uiso   1.00
H571   H     0.69464   0.65542   0.31661   0.00000  Uiso   1.00
H572   H     0.75355   0.63241   0.33410   0.00000  Uiso   1.00
O573   O     0.91317   0.35474   0.26008   0.00000  Uiso   1.00
H574   H     0.94274   0.33398   0.26302   0.00000  Uiso   1.00
O575   O     0.75584   0.64527   0.23620   0.00000  Uiso   1.00
H576   H     0.72644   0.66599   0.23288   0.00000  Uiso   1.00
C577   C     0.18212   0.93346   0.25114   0.00000  Uiso   1.00
C578   C     0.15158   0.73320   0.24819   0.00000  Uiso   1.00
C579   C     0.09668   0.79839   0.03694   0.00000  Uiso   1.00
C580   C     0.24611   0.86065   0.45924   0.00000  Uiso   1.00
C581   C     0.05986   0.77344   0.00746   0.00000  Uiso   1.00
C582   C     0.28958   0.86590   0.48575   0.00000  Uiso   1.00
C583   C     0.19067   0.98963   0.25223   0.00000  Uiso   1.00
C584   C     0.14385   0.67704   0.24583   0.00000  Uiso   1.00
C585   C     0.12849   0.82944   0.33290   0.00000  Uiso   1.00
C586   C     0.20530   0.84049   0.16732   0.00000  Uiso   1.00
C587   C     0.10543   0.81988   0.37940   0.00000  Uiso   1.00
C588   C     0.22883   0.85071   0.12055   0.00000  Uiso   1.00
C589   C     0.03853   0.76408   0.43542   0.00000  Uiso   1.00
C590   C     0.31288   0.86665   0.05649   0.00000  Uiso   1.00
C591   C     0.05182   0.78042   0.39319   0.00000  Uiso   1.00
C592   C     0.29358   0.86212   0.10111   0.00000  Uiso   1.00
C593   C     0.14214   0.84554   0.40912   0.00000  Uiso   1.00
C594   C     0.18550   0.85195   0.09513   0.00000  Uiso   1.00
C595   C     0.13509   0.82357   0.44924   0.00000  Uiso   1.00
C596   C     0.20306   0.84724   0.04934   0.00000  Uiso   1.00
C597   C     0.07874   0.78570   0.46377   0.00000  Uiso   1.00
C598   C     0.26861   0.85995   0.03040   0.00000  Uiso   1.00
C599   C     0.18002   0.83948   0.47637   0.00000  Uiso   1.00
C600   C     0.15883   0.82989   0.02173   0.00000  Uiso   1.00
Cu601  Cu    0.10737   0.82775   0.24516   0.00000  Uiso   1.00
Cu602  Cu    0.22596   0.83892   0.25483   0.00000  Uiso   1.00
H603   H     0.33000   0.73375   0.44535   0.00000  Uiso   1.00
H604   H     0.02983   0.87457   0.04268   0.00000  Uiso   1.00
H605   H     0.00602   0.87997   0.27570   0.00000  Uiso   1.00
H606   H     0.32847   0.78866   0.22123   0.00000  Uiso   1.00
N607   N     0.31506   0.84735   0.26212   0.00000  Uiso   1.00
N608   N     0.01827   0.81932   0.23788   0.00000  Uiso   1.00
O609   O     0.12815   0.90476   0.24686   0.00000  Uiso   1.00
O610   O     0.20518   0.76191   0.25314   0.00000  Uiso   1.00
O611   O     0.22829   0.91420   0.25503   0.00000  Uiso   1.00
O612   O     0.10504   0.75247   0.24497   0.00000  Uiso   1.00
O613   O     0.08851   0.82597   0.30854   0.00000  Uiso   1.00
O614   O     0.24482   0.84070   0.19146   0.00000  Uiso   1.00
O615   O     0.18866   0.83540   0.31671   0.00000  Uiso   1.00
O616   O     0.14468   0.83126   0.18329   0.00000  Uiso   1.00
O617   O     0.00056   0.74309   0.02328   0.00000  Uiso   1.00
H618   H     0.33218   0.70901   0.00756   0.00000  Uiso   1.00
O619   O     0.01983   0.87415   0.46668   0.00000  Uiso   1.00
H620   H     0.04162   0.90576   0.48091   0.00000  Uiso   1.00
O621   O     0.13199   0.86934   0.11390   0.00000  Uiso   1.00
H622   H     0.14073   0.89371   0.13840   0.00000  Uiso   1.00
O623   O     0.17606   0.89584   0.40307   0.00000  Uiso   1.00
H624   H     0.16621   0.90962   0.37845   0.00000  Uiso   1.00
O625   O     0.00549   0.86701   0.12498   0.00000  Uiso   1.00
C626   C     0.02080   0.91805   0.14233   0.00000  Uiso   1.00
H627   H     0.04194   0.91652   0.17020   0.00000  Uiso   1.00
H628   H     0.31135   0.93348   0.15636   0.00000  Uiso   1.00
C629   C     0.06852   0.95392   0.10836   0.00000  Uiso   1.00
H630   H     0.09699   0.93214   0.08320   0.00000  Uiso   1.00
H631   H     0.04200   0.97123   0.09103   0.00000  Uiso   1.00
C632   C     0.11400   0.99586   0.12891   0.00000  Uiso   1.00
H633   H     0.08755   0.68383   0.15574   0.00000  Uiso   1.00
H634   H     0.14454   0.68975   0.10402   0.00000  Uiso   1.00
H635   H     0.14504   0.97857   0.14234   0.00000  Uiso   1.00
O636   O     0.01664   0.75458   0.36379   0.00000  Uiso   1.00
C637   C     0.28551   0.75702   0.37755   0.00000  Uiso   1.00
H638   H     0.27539   0.78126   0.35496   0.00000  Uiso   1.00
H639   H     0.27242   0.77396   0.41094   0.00000  Uiso   1.00
C640   C     0.24335   0.70284   0.37597   0.00000  Uiso   1.00
H641   H     0.25408   0.68482   0.34287   0.00000  Uiso   1.00
H642   H     0.25313   0.67916   0.39889   0.00000  Uiso   1.00
C643   C     0.17340   0.70369   0.38898   0.00000  Uiso   1.00
H644   H     0.16214   0.72188   0.42197   0.00000  Uiso   1.00
H645   H     0.14431   0.99693   0.38965   0.00000  Uiso   1.00
H646   H     0.16126   0.72522   0.36542   0.00000  Uiso   1.00
O647   O     0.06806   0.79890   0.08062   0.00000  Uiso   1.00
C648   C     0.04640   0.74999   0.09859   0.00000  Uiso   1.00
H649   H     0.07567   0.74932   0.12186   0.00000  Uiso   1.00
H650   H     0.05097   0.71736   0.07448   0.00000  Uiso   1.00
C651   C     0.31103   0.74490   0.12403   0.00000  Uiso   1.00
H652   H     0.30972   0.77570   0.14999   0.00000  Uiso   1.00
H653   H     0.28086   0.74991   0.10250   0.00000  Uiso   1.00
C654   C     0.28281   0.69350   0.14529   0.00000  Uiso   1.00
H655   H     0.27863   0.99488   0.12029   0.00000  Uiso   1.00
H656   H     0.23481   0.69386   0.16511   0.00000  Uiso   1.00
H657   H     0.31200   0.68772   0.16718   0.00000  Uiso   1.00
O658   O     0.26980   0.86613   0.41497   0.00000  Uiso   1.00
C659   C     0.30578   0.91716   0.40607   0.00000  Uiso   1.00
H660   H     0.01783   0.92597   0.41627   0.00000  Uiso   1.00
H661   H     0.27876   0.94617   0.42229   0.00000  Uiso   1.00
C662   C     0.32347   0.92270   0.35730   0.00000  Uiso   1.00
H663   H     0.01125   0.88984   0.34273   0.00000  Uiso   1.00
H664   H     0.28044   0.92061   0.34508   0.00000  Uiso   1.00
C665   C     0.03855   0.97298   0.34416   0.00000  Uiso   1.00
H666   H     0.03772   0.66892   0.37140   0.00000  Uiso   1.00
H667   H     0.02797   0.98875   0.31661   0.00000  Uiso   1.00
H668   H     0.08688   0.96574   0.33410   0.00000  Uiso   1.00
O669   O     0.24651   0.68808   0.26008   0.00000  Uiso   1.00
H670   H     0.27607   0.66731   0.26302   0.00000  Uiso   1.00
O671   O     0.08917   0.97860   0.23620   0.00000  Uiso   1.00
H672   H     0.05978   0.99933   0.23288   0.00000  Uiso   1.00
C673   C     0.51546   0.93346   0.25114   0.00000  Uiso   1.00
C674   C     0.48491   0.73320   0.24819   0.00000  Uiso   1.00
C675   C     0.43001   0.79839   0.03694   0.00000  Uiso   1.00
C676   C     0.57944   0.86065   0.45924   0.00000  Uiso   1.00
C677   C     0.39319   0.77344   0.00746   0.00000  Uiso   1.00
C678   C     0.62291   0.86590   0.48575   0.00000  Uiso   1.00
C679   C     0.52401   0.98963   0.25223   0.00000  Uiso   1.00
C680   C     0.47718   0.67704   0.24583   0.00000  Uiso   1.00
C681   C     0.46183   0.82944   0.33290   0.00000  Uiso   1.00
C682   C     0.53863   0.84049   0.16732   0.00000  Uiso   1.00
C683   C     0.43876   0.81988   0.37940   0.00000  Uiso   1.00
C684   C     0.56217   0.85071   0.12055   0.00000  Uiso   1.00
C685   C     0.37187   0.76408   0.43542   0.00000  Uiso   1.00
C686   C     0.64621   0.86665   0.05649   0.00000  Uiso   1.00
C687   C     0.38516   0.78042   0.39319   0.00000  Uiso   1.00
C688   C     0.62692   0.86212   0.10111   0.00000  Uiso   1.00
C689   C     0.47547   0.84554   0.40912   0.00000  Uiso   1.00
C690   C     0.51883   0.85195   0.09513   0.00000  Uiso   1.00
C691   C     0.46843   0.82357   0.44924   0.00000  Uiso   1.00
C692   C     0.53640   0.84724   0.04934   0.00000  Uiso   1.00
C693   C     0.41208   0.78570   0.46377   0.00000  Uiso   1.00
C694   C     0.60194   0.85995   0.03040   0.00000  Uiso   1.00
C695   C     0.51336   0.83948   0.47637   0.00000  Uiso   1.00
C696   C     0.49217   0.82989   0.02173   0.00000  Uiso   1.00
Cu697  Cu    0.44071   0.82775   0.24516   0.00000  Uiso   1.00
Cu698  Cu    0.55929   0.83892   0.25483   0.00000  Uiso   1.00
H699   H     0.66334   0.73375   0.44535   0.00000  Uiso   1.00
H700   H     0.36317   0.87457   0.04268   0.00000  Uiso   1.00
H701   H     0.33935   0.87997   0.27570   0.00000  Uiso   1.00
H702   H     0.66180   0.78866   0.22123   0.00000  Uiso   1.00
N703   N     0.64839   0.84735   0.26212   0.00000  Uiso   1.00
N704   N     0.35161   0.81932   0.23788   0.00000  Uiso   1.00
O705   O     0.46148   0.90476   0.24686   0.00000  Uiso   1.00
O706   O     0.53852   0.76191   0.25314   0.00000  Uiso   1.00
O707   O     0.56163   0.91420   0.25503   0.00000  Uiso   1.00
O708   O     0.43837   0.75247   0.24497   0.00000  Uiso   1.00
O709   O     0.42185   0.82597   0.30854   0.00000  Uiso   1.00
O710   O     0.57815   0.84070   0.19146   0.00000  Uiso   1.00
O711   O     0.52199   0.83540   0.31671   0.00000  Uiso   1.00
O712   O     0.47801   0.83126   0.18329   0.00000  Uiso   1.00
O713   O     0.33389   0.74309   0.02328   0.00000  Uiso   1.00
H714   H     0.66552   0.70901   0.00756   0.00000  Uiso   1.00
O715   O     0.35316   0.87415   0.46668   0.00000  Uiso   1.00
H716   H     0.37495   0.90576   0.48091   0.00000  Uiso   1.00
O717   O     0.46533   0.86934   0.11390   0.00000  Uiso   1.00
H718   H     0.47406   0.89371   0.13840   0.00000  Uiso   1.00
O719   O     0.50939   0.89584   0.40307   0.00000  Uiso   1.00
H720   H     0.49954   0.90962   0.37845   0.00000  Uiso   1.00
O721   O     0.33882   0.86701   0.12498   0.00000  Uiso   1.00
C722   C     0.35414   0.91805   0.14233   0.00000  Uiso   1.00
H723   H     0.37527   0.91652   0.17020   0.00000  Uiso   1.00
H724   H     0.64469   0.93348   0.15636   0.00000  Uiso   1.00
C725   C     0.40185   0.95392   0.10836   0.00000  Uiso   1.00
H726   H     0.43033   0.93214   0.08320   0.00000  Uiso   1.00
H727   H     0.37534   0.97123   0.09103   0.00000  Uiso   1.00
C728   C     0.44734   0.99586   0.12891   0.00000  Uiso   1.00
H729   H     0.42088   0.68383   0.15574   0.00000  Uiso   1.00
H730   H     0.47787   0.68975   0.10402   0.00000  Uiso   1.00
H731   H     0.47838   0.97857   0.14234   0.00000  Uiso   1.00
O732   O     0.34997   0.75458   0.36379   0.00000  Uiso   1.00
C733   C     0.61884   0.75702   0.37755   0.00000  Uiso   1.00
H734   H     0.60873   0.78126   0.35496   0.00000  Uiso   1.00
H735   H     0.60575   0.77396   0.41094   0.00000  Uiso   1.00
C736   C     0.57668   0.70284   0.37597   0.00000  Uiso   1.00
H737   H     0.58741   0.68482   0.34287   0.00000  Uiso   1.00
H738   H     0.58647   0.67916   0.39889   0.00000  Uiso   1.00
C739   C     0.50674   0.70369   0.38898   0.00000  Uiso   1.00
H740   H     0.49547   0.72188   0.42197   0.00000  Uiso   1.00
H741   H     0.47764   0.99693   0.38965   0.00000  Uiso   1.00
H742   H     0.49459   0.72522   0.36542   0.00000  Uiso   1.00
O743   O     0.40139   0.79890   0.08062   0.00000  Uiso   1.00
C744   C     0.37974   0.74999   0.09859   0.00000  Uiso   1.00
H745   H     0.40900   0.74932   0.12186   0.00000  Uiso   1.00
H746   H     0.38430   0.71736   0.07448   0.00000  Uiso   1.00
C747   C     0.64437   0.74490   0.12403   0.00000  Uiso   1.00
H748   H     0.64305   0.77570   0.14999   0.00000  Uiso   1.00
H749   H     0.61419   0.74991   0.10250   0.00000  Uiso   1.00
C750   C     0.61614   0.69350   0.14529   0.00000  Uiso   1.00
H751   H     0.61196   0.99488   0.12029   0.00000  Uiso   1.00
H752   H     0.56814   0.69386   0.16511   0.00000  Uiso   1.00
H753   H     0.64534   0.68772   0.16718   0.00000  Uiso   1.00
O754   O     0.60314   0.86613   0.41497   0.00000  Uiso   1.00
C755   C     0.63912   0.91716   0.40607   0.00000  Uiso   1.00
H756   H     0.35117   0.92597   0.41627   0.00000  Uiso   1.00
H757   H     0.61210   0.94617   0.42229   0.00000  Uiso   1.00
C758   C     0.65681   0.92270   0.35730   0.00000  Uiso   1.00
H759   H     0.34459   0.88984   0.34273   0.00000  Uiso   1.00
H760   H     0.61378   0.92061   0.34508   0.00000  Uiso   1.00
C761   C     0.37189   0.97298   0.34416   0.00000  Uiso   1.00
H762   H     0.37105   0.66892   0.37140   0.00000  Uiso   1.00
H763   H     0.36130   0.98875   0.31661   0.00000  Uiso   1.00
H764   H     0.42022   0.96574   0.33410   0.00000  Uiso   1.00
O765   O     0.57984   0.68808   0.26008   0.00000  Uiso   1.00
H766   H     0.60941   0.66731   0.26302   0.00000  Uiso   1.00
O767   O     0.42250   0.97860   0.23620   0.00000  Uiso   1.00
H768   H     0.39311   0.99933   0.23288   0.00000  Uiso   1.00
C769   C     0.84879   0.93346   0.25114   0.00000  Uiso   1.00
C770   C     0.81825   0.73320   0.24819   0.00000  Uiso   1.00
C771   C     0.76335   0.79839   0.03694   0.00000  Uiso   1.00
C772   C     0.91277   0.86065   0.45924   0.00000  Uiso   1.00
C773   C     0.72652   0.77344   0.00746   0.00000  Uiso   1.00
C774   C     0.95624   0.86590   0.48575   0.00000  Uiso   1.00
C775   C     0.85734   0.98963   0.25223   0.00000  Uiso   1.00
C776   C     0.81052   0.67704   0.24583   0.00000  Uiso   1.00
C777   C     0.79516   0.82944   0.33290   0.00000  Uiso   1.00
C778   C     0.87196   0.84049   0.16732   0.00000  Uiso   1.00
C779   C     0.77209   0.81988   0.37940   0.00000  Uiso   1.00
C780   C     0.89550   0.85071   0.12055   0.00000  Uiso   1.00
C781   C     0.70520   0.76408   0.43542   0.00000  Uiso   1.00
C782   C     0.97954   0.86665   0.05649   0.00000  Uiso   1.00
C783   C     0.71849   0.78042   0.39319   0.00000  Uiso   1.00
C784   C     0.96025   0.86212   0.10111   0.00000  Uiso   1.00
C785   C     0.80880   0.84554   0.40912   0.00000  Uiso   1.00
C786   C     0.85217   0.85195   0.09513   0.00000  Uiso   1.00
C787   C     0.80176   0.82357   0.44924   0.00000  Uiso   1.00
C788   C     0.86973   0.84724   0.04934   0.00000  Uiso   1.00
C789   C     0.74541   0.78570   0.46377   0.00000  Uiso   1.00
C790   C     0.93527   0.85995   0.03040   0.00000  Uiso   1.00
C791   C     0.84669   0.83948   0.47637   0.00000  Uiso   1.00
C792   C     0.82550   0.82989   0.02173   0.00000  Uiso   1.00
Cu793  Cu    0.77404   0.82775   0.24516   0.00000  Uiso   1.00
Cu794  Cu    0.89263   0.83892   0.25483   0.00000  Uiso   1.00
H795   H     0.99667   0.73375   0.44535   0.00000  Uiso   1.00
H796   H     0.69650   0.87457   0.04268   0.00000  Uiso   1.00
H797   H     0.67268   0.87997   0.27570   0.00000  Uiso   1.00
H798   H     0.99514   0.78866   0.22123   0.00000  Uiso   1.00
N799   N     0.98173   0.84735   0.26212   0.00000  Uiso   1.00
N800   N     0.68494   0.81932   0.23788   0.00000  Uiso   1.00
O801   O     0.79482   0.90476   0.24686   0.00000  Uiso   1.00
O802   O     0.87185   0.76191   0.25314   0.00000  Uiso   1.00
O803   O     0.89496   0.91420   0.25503   0.00000  Uiso   1.00
O804   O     0.77171   0.75247   0.24497   0.00000  Uiso   1.00
O805   O     0.75518   0.82597   0.30854   0.00000  Uiso   1.00
O806   O     0.91149   0.84070   0.19146   0.00000  Uiso   1.00
O807   O     0.85532   0.83540   0.31671   0.00000  Uiso   1.00
O808   O     0.81134   0.83126   0.18329   0.00000  Uiso   1.00
O809   O     0.66723   0.74309   0.02328   0.00000  Uiso   1.00
H810   H     0.99885   0.70901   0.00756   0.00000  Uiso   1.00
O811   O     0.68649   0.87415   0.46668   0.00000  Uiso   1.00
H812   H     0.70829   0.90576   0.48091   0.00000  Uiso   1.00
O813   O     0.79866   0.86934   0.11390   0.00000  Uiso   1.00
H814   H     0.80740   0.89371   0.13840   0.00000  Uiso   1.00
O815   O     0.84273   0.89584   0.40307   0.00000  Uiso   1.00
H816   H     0.83287   0.90962   0.37845   0.00000  Uiso   1.00
O817   O     0.67216   0.86701   0.12498   0.00000  Uiso   1.00
C818   C     0.68747   0.91805   0.14233   0.00000  Uiso   1.00
H819   H     0.70860   0.91652   0.17020   0.00000  Uiso   1.00
H820   H     0.97802   0.93348   0.15636   0.00000  Uiso   1.00
C821   C     0.73518   0.95392   0.10836   0.00000  Uiso   1.00
H822   H     0.76366   0.93214   0.08320   0.00000  Uiso   1.00
H823   H     0.70867   0.97123   0.09103   0.00000  Uiso   1.00
C824   C     0.78067   0.99586   0.12891   0.00000  Uiso   1.00
H825   H     0.75421   0.68383   0.15574   0.00000  Uiso   1.00
H826   H     0.81120   0.68975   0.10402   0.00000  Uiso   1.00
H827   H     0.81171   0.97857   0.14234   0.00000  Uiso   1.00
O828   O     0.68331   0.75458   0.36379   0.00000  Uiso   1.00
C829   C     0.95217   0.75702   0.37755   0.00000  Uiso   1.00
H830   H     0.94206   0.78126   0.35496   0.00000  Uiso   1.00
H831   H     0.93909   0.77396   0.41094   0.00000  Uiso   1.00
C832   C     0.91001   0.70284   0.37597   0.00000  Uiso   1.00
H833   H     0.92075   0.68482   0.34287   0.00000  Uiso   1.00
H834   H     0.91980   0.67916   0.39889   0.00000  Uiso   1.00
C835   C     0.84007   0.70369   0.38898   0.00000  Uiso   1.00
H836   H     0.82880   0.72188   0.42197   0.00000  Uiso   1.00
H837   H     0.81098   0.99693   0.38965   0.00000  Uiso   1.00
H838   H     0.82793   0.72522   0.36542   0.00000  Uiso   1.00
O839   O     0.73472   0.79890   0.08062   0.00000  Uiso   1.00
C840   C     0.71307   0.74999   0.09859   0.00000  Uiso   1.00
H841   H     0.74234   0.74932   0.12186   0.00000  Uiso   1.00
H842   H     0.71764   0.71736   0.07448   0.00000  Uiso   1.00
C843   C     0.97770   0.74490   0.12403   0.00000  Uiso   1.00
H844   H     0.97639   0.77570   0.14999   0.00000  Uiso   1.00
H845   H     0.94752   0.74991   0.10250   0.00000  Uiso   1.00
C846   C     0.94948   0.69350   0.14529   0.00000  Uiso   1.00
H847   H     0.94529   0.99488   0.12029   0.00000  Uiso   1.00
H848   H     0.90148   0.69386   0.16511   0.00000  Uiso   1.00
H849   H     0.97867   0.68772   0.16718   0.00000  Uiso   1.00
O850   O     0.93647   0.86613   0.41497   0.00000  Uiso   1.00
C851   C     0.97245   0.91716   0.40607   0.00000  Uiso   1.00
H852   H     0.68450   0.92597   0.41627   0.00000  Uiso   1.00
H853   H     0.94543   0.94617   0.42229   0.00000  Uiso   1.00
C854   C     0.99014   0.92270   0.35730   0.00000  Uiso   1.00
H855   H     0.67792   0.88984   0.34273   0.00000  Uiso   1.00
H856   H     0.94711   0.92061   0.34508   0.00000  Uiso   1.00
C857   C     0.70522   0.97298   0.34416   0.00000  Uiso   1.00
H858   H     0.70439   0.66892   0.37140   0.00000  Uiso   1.00
H859   H     0.69464   0.98875   0.31661   0.00000  Uiso   1.00
H860   H     0.75355   0.96574   0.33410   0.00000  Uiso   1.00
O861   O     0.91317   0.68808   0.26008   0.00000  Uiso   1.00
H862   H     0.94274   0.66731   0.26302   0.00000  Uiso   1.00
O863   O     0.75584   0.97860   0.23620   0.00000  Uiso   1.00
H864   H     0.72644   0.99933   0.23288   0.00000  Uiso   1.00
C865   C     0.18212   0.26679   0.75114   0.00000  Uiso   1.00
C866   C     0.15158   0.06653   0.74819   0.00000  Uiso   1.00
C867   C     0.09668   0.13172   0.53694   0.00000  Uiso   1.00
C868   C     0.24611   0.19399   0.95924   0.00000  Uiso   1.00
C869   C     0.05986   0.10677   0.50746   0.00000  Uiso   1.00
C870   C     0.28958   0.19923   0.98575   0.00000  Uiso   1.00
C871   C     0.19067   0.32296   0.75223   0.00000  Uiso   1.00
C872   C     0.14385   0.01037   0.74583   0.00000  Uiso   1.00
C873   C     0.12849   0.16277   0.83290   0.00000  Uiso   1.00
C874   C     0.20530   0.17382   0.66732   0.00000  Uiso   1.00
C875   C     0.10543   0.15321   0.87940   0.00000  Uiso   1.00
C876   C     0.22883   0.18405   0.62055   0.00000  Uiso   1.00
C877   C     0.03853   0.09741   0.93542   0.00000  Uiso   1.00
C878   C     0.31288   0.19998   0.55649   0.00000  Uiso   1.00
C879   C     0.05182   0.11375   0.89319   0.00000  Uiso   1.00
C880   C     0.29358   0.19545   0.60111   0.00000  Uiso   1.00
C881   C     0.14214   0.17887   0.90912   0.00000  Uiso   1.00
C882   C     0.18550   0.18528   0.59513   0.00000  Uiso   1.00
C883   C     0.13509   0.15691   0.94924   0.00000  Uiso   1.00
C884   C     0.20306   0.18057   0.54934   0.00000  Uiso   1.00
C885   C     0.07874   0.11903   0.96377   0.00000  Uiso   1.00
C886   C     0.26861   0.19328   0.53040   0.00000  Uiso   1.00
C887   C     0.18002   0.17282   0.97637   0.00000  Uiso   1.00
C888   C     0.15883   0.16322   0.52173   0.00000  Uiso   1.00
Cu889  Cu    0.10737   0.16108   0.74516   0.00000  Uiso   1.00
Cu890  Cu    0.22596   0.17225   0.75483   0.00000  Uiso   1.00
H891   H     0.33000   0.06708   0.94535   0.00000  Uiso   1.00
H892   H     0.02983   0.20790   0.54268   0.00000  Uiso   1.00
H893   H     0.00602   0.21331   0.77570   0.00000  Uiso   1.00
H894   H     0.32847   0.12199   0.72123   0.00000  Uiso   1.00
N895   N     0.31506   0.18068   0.76212   0.00000  Uiso   1.00
N896   N     0.01827   0.15265   0.73788   0.00000  Uiso   1.00
O897   O     0.12815   0.23809   0.74686   0.00000  Uiso   1.00
O898   O     0.20518   0.09524   0.75314   0.00000  Uiso   1.00
O899   O     0.22829   0.24753   0.75503   0.00000  Uiso   1.00
O900   O     0.10504   0.08580   0.74497   0.00000  Uiso   1.00
O901   O     0.08851   0.15930   0.80854   0.00000  Uiso   1.00
O902   O     0.24482   0.17403   0.69146   0.00000  Uiso   1.00
O903   O     0.18866   0.16874   0.81671   0.00000  Uiso   1.00
O904   O     0.14468   0.16460   0.68329   0.00000  Uiso   1.00
O905   O     0.00056   0.07642   0.52328   0.00000  Uiso   1.00
H906   H     0.33218   0.04234   0.50756   0.00000  Uiso   1.00
O907   O     0.01983   0.20749   0.96668   0.00000  Uiso   1.00
H908   H     0.04162   0.23909   0.98091   0.00000  Uiso   1.00
O909   O     0.13199   0.20268   0.61390   0.00000  Uiso   1.00
H910   H     0.14073   0.22704   0.63840   0.00000  Uiso   1.00
O911   O     0.17606   0.22917   0.90307   0.00000  Uiso   1.00
H912   H     0.16621   0.24296   0.87845   0.00000  Uiso   1.00
O913   O     0.00549   0.20034   0.62498   0.00000  Uiso   1.00
C914   C     0.02080   0.25138   0.64233   0.00000  Uiso   1.00
H915   H     0.04194   0.24986   0.67020   0.00000  Uiso   1.00
H916   H     0.31135   0.26681   0.65636   0.00000  Uiso   1.00
C917   C     0.06852   0.28726   0.60836   0.00000  Uiso   1.00
H918   H     0.09699   0.26547   0.58320   0.00000  Uiso   1.00
H919   H     0.04200   0.30456   0.59103   0.00000  Uiso   1.00
C920   C     0.11400   0.32919   0.62891   0.00000  Uiso   1.00
H921   H     0.08755   0.01717   0.65574   0.00000  Uiso   1.00
H922   H     0.14454   0.02308   0.60402   0.00000  Uiso   1.00
H923   H     0.14504   0.31191   0.64234   0.00000  Uiso   1.00
O924   O     0.01664   0.08791   0.86379   0.00000  Uiso   1.00
C925   C     0.28551   0.09036   0.87755   0.00000  Uiso   1.00
H926   H     0.27539   0.11459   0.85496   0.00000  Uiso   1.00
H927   H     0.27242   0.10729   0.91094   0.00000  Uiso   1.00
C928   C     0.24335   0.03618   0.87597   0.00000  Uiso   1.00
H929   H     0.25408   0.01815   0.84287   0.00000  Uiso   1.00
H930   H     0.25313   0.01249   0.89889   0.00000  Uiso   1.00
C931   C     0.17340   0.03702   0.88898   0.00000  Uiso   1.00
H932   H     0.16214   0.05522   0.92197   0.00000  Uiso   1.00
H933   H     0.14431   0.33026   0.88965   0.00000  Uiso   1.00
H934   H     0.16126   0.05855   0.86542   0.00000  Uiso   1.00
O935   O     0.06806   0.13223   0.58062   0.00000  Uiso   1.00
C936   C     0.04640   0.08332   0.59859   0.00000  Uiso   1.00
H937   H     0.07567   0.08266   0.62186   0.00000  Uiso   1.00
H938   H     0.05097   0.05069   0.57448   0.00000  Uiso   1.00
C939   C     0.31103   0.07823   0.62403   0.00000  Uiso   1.00
H940   H     0.30972   0.10903   0.64999   0.00000  Uiso   1.00
H941   H     0.28086   0.08324   0.60250   0.00000  Uiso   1.00
C942   C     0.28281   0.02683   0.64529   0.00000  Uiso   1.00
H943   H     0.27863   0.32822   0.62029   0.00000  Uiso   1.00
H944   H     0.23481   0.02719   0.66511   0.00000  Uiso   1.00
H945   H     0.31200   0.02105   0.66718   0.00000  Uiso   1.00
O946   O     0.26980   0.19947   0.91497   0.00000  Uiso   1.00
C947   C     0.30578   0.25049   0.90607   0.00000  Uiso   1.00
H948   H     0.01783   0.25931   0.91627   0.00000  Uiso   1.00
H949   H     0.27876   0.27950   0.92229   0.00000  Uiso   1.00
C950   C     0.32347   0.25603   0.85730   0.00000  Uiso   1.00
H951   H     0.01125   0.22317   0.84273   0.00000  Uiso   1.00
H952   H     0.28044   0.25395   0.84508   0.00000  Uiso   1.00
C953   C     0.03855   0.30631   0.84416   0.00000  Uiso   1.00
H954   H     0.03772   0.00226   0.87140   0.00000  Uiso   1.00
H955   H     0.02797   0.32209   0.81661   0.00000  Uiso   1.00
H956   H     0.08688   0.29907   0.83410   0.00000  Uiso   1.00
O957   O     0.24651   0.02141   0.76008   0.00000  Uiso   1.00
H958   H     0.27607   0.00064   0.76302   0.00000  Uiso   1.00
O959   O     0.08917   0.31193   0.73620   0.00000  Uiso   1.00
H960   H     0.05978   0.33266   0.73288   0.00000  Uiso   1.00
C961   C     0.51546   0.26679   0.75114   0.00000  Uiso   1.00
C962   C     0.48491   0.06653   0.74819   0.00000  Uiso   1.00
C963   C     0.43001   0.13172   0.53694   0.00000  Uiso   1.00
C964   C     0.57944   0.19399   0.95924   0.00000  Uiso   1.00
C965   C     0.39319   0.10677   0.50746   0.00000  Uiso   1.00
C966   C     0.62291   0.19923   0.98575   0.00000  Uiso   1.00
C967   C     0.52401   0.32296   0.75223   0.00000  Uiso   1.00
C968   C     0.47718   0.01037   0.74583   0.00000  Uiso   1.00
C969   C     0.46183   0.16277   0.83290   0.00000  Uiso   1.00
C970   C     0.53863   0.17382   0.66732   0.00000  Uiso   1.00
C971   C     0.43876   0.15321   0.87940   0.00000  Uiso   1.00
C972   C     0.56217   0.18405   0.62055   0.00000  Uiso   1.00
C973   C     0.37187   0.09741   0.93542   0.00000  Uiso   1.00
C974   C     0.64621   0.19998   0.55649   0.00000  Uiso   1.00
C975   C     0.38516   0.11375   0.89319   0.00000  Uiso   1.00
C976   C     0.62692   0.19545   0.60111   0.00000  Uiso   1.00
C977   C     0.47547   0.17887   0.90912   0.00000  Uiso   1.00
C978   C     0.51883   0.18528   0.59513   0.00000  Uiso   1.00
C979   C     0.46843   0.15691   0.94924   0.00000  Uiso   1.00
C980   C     0.53640   0.18057   0.54934   0.00000  Uiso   1.00
C981   C     0.41208   0.11903   0.96377   0.00000  Uiso   1.00
C982   C     0.60194   0.19328   0.53040   0.00000  Uiso   1.00
C983   C     0.51336   0.17282   0.97637   0.00000  Uiso   1.00
C984   C     0.49217   0.16322   0.52173   0.00000  Uiso   1.00
Cu985  Cu    0.44071   0.16108   0.74516   0.00000  Uiso   1.00
Cu986  Cu    0.55929   0.17225   0.75483   0.00000  Uiso   1.00
H987   H     0.66334   0.06708   0.94535   0.00000  Uiso   1.00
H988   H     0.36317   0.20790   0.54268   0.00000  Uiso   1.00
H989   H     0.33935   0.21331   0.77570   0.00000  Uiso   1.00
H990   H     0.66180   0.12199   0.72123   0.00000  Uiso   1.00
N991   N     0.64839   0.18068   0.76212   0.00000  Uiso   1.00
N992   N     0.35161   0.15265   0.73788   0.00000  Uiso   1.00
O993   O     0.46148   0.23809   0.74686   0.00000  Uiso   1.00
O994   O     0.53852   0.09524   0.75314   0.00000  Uiso   1.00
O995   O     0.56163   0.24753   0.75503   0.00000  Uiso   1.00
O996   O     0.43837   0.08580   0.74497   0.00000  Uiso   1.00
O997   O     0.42185   0.15930   0.80854   0.00000  Uiso   1.00
O998   O     0.57815   0.17403   0.69146   0.00000  Uiso   1.00
O999   O     0.52199   0.16874   0.81671   0.00000  Uiso   1.00
O1000  O     0.47801   0.16460   0.68329   0.00000  Uiso   1.00
O1001  O     0.33389   0.07642   0.52328   0.00000  Uiso   1.00
H1002  H     0.66552   0.04234   0.50756   0.00000  Uiso   1.00
O1003  O     0.35316   0.20749   0.96668   0.00000  Uiso   1.00
H1004  H     0.37495   0.23909   0.98091   0.00000  Uiso   1.00
O1005  O     0.46533   0.20268   0.61390   0.00000  Uiso   1.00
H1006  H     0.47406   0.22704   0.63840   0.00000  Uiso   1.00
O1007  O     0.50939   0.22917   0.90307   0.00000  Uiso   1.00
H1008  H     0.49954   0.24296   0.87845   0.00000  Uiso   1.00
O1009  O     0.33882   0.20034   0.62498   0.00000  Uiso   1.00
C1010  C     0.35414   0.25138   0.64233   0.00000  Uiso   1.00
H1011  H     0.37527   0.24986   0.67020   0.00000  Uiso   1.00
H1012  H     0.64469   0.26681   0.65636   0.00000  Uiso   1.00
C1013  C     0.40185   0.28726   0.60836   0.00000  Uiso   1.00
H1014  H     0.43033   0.26547   0.58320   0.00000  Uiso   1.00
H1015  H     0.37534   0.30456   0.59103   0.00000  Uiso   1.00
C1016  C     0.44734   0.32919   0.62891   0.00000  Uiso   1.00
H1017  H     0.42088   0.01717   0.65574   0.00000  Uiso   1.00
H1018  H     0.47787   0.02308   0.60402   0.00000  Uiso   1.00
H1019  H     0.47838   0.31191   0.64234   0.00000  Uiso   1.00
O1020  O     0.34997   0.08791   0.86379   0.00000  Uiso   1.00
C1021  C     0.61884   0.09036   0.87755   0.00000  Uiso   1.00
H1022  H     0.60873   0.11459   0.85496   0.00000  Uiso   1.00
H1023  H     0.60575   0.10729   0.91094   0.00000  Uiso   1.00
C1024  C     0.57668   0.03618   0.87597   0.00000  Uiso   1.00
H1025  H     0.58741   0.01815   0.84287   0.00000  Uiso   1.00
H1026  H     0.58647   0.01249   0.89889   0.00000  Uiso   1.00
C1027  C     0.50674   0.03702   0.88898   0.00000  Uiso   1.00
H1028  H     0.49547   0.05522   0.92197   0.00000  Uiso   1.00
H1029  H     0.47764   0.33026   0.88965   0.00000  Uiso   1.00
H1030  H     0.49459   0.05855   0.86542   0.00000  Uiso   1.00
O1031  O     0.40139   0.13223   0.58062   0.00000  Uiso   1.00
C1032  C     0.37974   0.08332   0.59859   0.00000  Uiso   1.00
H1033  H     0.40900   0.08266   0.62186   0.00000  Uiso   1.00
H1034  H     0.38430   0.05069   0.57448   0.00000  Uiso   1.00
C1035  C     0.64437   0.07823   0.62403   0.00000  Uiso   1.00
H1036  H     0.64305   0.10903   0.64999   0.00000  Uiso   1.00
H1037  H     0.61419   0.08324   0.60250   0.00000  Uiso   1.00
C1038  C     0.61614   0.02683   0.64529   0.00000  Uiso   1.00
H1039  H     0.61196   0.32822   0.62029   0.00000  Uiso   1.00
H1040  H     0.56814   0.02719   0.66511   0.00000  Uiso   1.00
H1041  H     0.64534   0.02105   0.66718   0.00000  Uiso   1.00
O1042  O     0.60314   0.19947   0.91497   0.00000  Uiso   1.00
C1043  C     0.63912   0.25049   0.90607   0.00000  Uiso   1.00
H1044  H     0.35117   0.25931   0.91627   0.00000  Uiso   1.00
H1045  H     0.61210   0.27950   0.92229   0.00000  Uiso   1.00
C1046  C     0.65681   0.25603   0.85730   0.00000  Uiso   1.00
H1047  H     0.34459   0.22317   0.84273   0.00000  Uiso   1.00
H1048  H     0.61378   0.25395   0.84508   0.00000  Uiso   1.00
C1049  C     0.37189   0.30631   0.84416   0.00000  Uiso   1.00
H1050  H     0.37105   0.00226   0.87140   0.00000  Uiso   1.00
H1051  H     0.36130   0.32209   0.81661   0.00000  Uiso   1.00
H1052  H     0.42022   0.29907   0.83410   0.00000  Uiso   1.00
O1053  O     0.57984   0.02141   0.76008   0.00000  Uiso   1.00
H1054  H     0.60941   0.00064   0.76302   0.00000  Uiso   1.00
O1055  O     0.42250   0.31193   0.73620   0.00000  Uiso   1.00
H1056  H     0.39311   0.33266   0.73288   0.00000  Uiso   1.00
C1057  C     0.84879   0.26679   0.75114   0.00000  Uiso   1.00
C1058  C     0.81825   0.06653   0.74819   0.00000  Uiso   1.00
C1059  C     0.76335   0.13172   0.53694   0.00000  Uiso   1.00
C1060  C     0.91277   0.19399   0.95924   0.00000  Uiso   1.00
C1061  C     0.72652   0.10677   0.50746   0.00000  Uiso   1.00
C1062  C     0.95624   0.19923   0.98575   0.00000  Uiso   1.00
C1063  C     0.85734   0.32296   0.75223   0.00000  Uiso   1.00
C1064  C     0.81052   0.01037   0.74583   0.00000  Uiso   1.00
C1065  C     0.79516   0.16277   0.83290   0.00000  Uiso   1.00
C1066  C     0.87196   0.17382   0.66732   0.00000  Uiso   1.00
C1067  C     0.77209   0.15321   0.87940   0.00000  Uiso   1.00
C1068  C     0.89550   0.18405   0.62055   0.00000  Uiso   1.00
C1069  C     0.70520   0.09741   0.93542   0.00000  Uiso   1.00
C1070  C     0.97954   0.19998   0.55649   0.00000  Uiso   1.00
C1071  C     0.71849   0.11375   0.89319   0.00000  Uiso   1.00
C1072  C     0.96025   0.19545   0.60111   0.00000  Uiso   1.00
C1073  C     0.80880   0.17887   0.90912   0.00000  Uiso   1.00
C1074  C     0.85217   0.18528   0.59513   0.00000  Uiso   1.00
C1075  C     0.80176   0.15691   0.94924   0.00000  Uiso   1.00
C1076  C     0.86973   0.18057   0.54934   0.00000  Uiso   1.00
C1077  C     0.74541   0.11903   0.96377   0.00000  Uiso   1.00
C1078  C     0.93527   0.19328   0.53040   0.00000  Uiso   1.00
C1079  C     0.84669   0.17282   0.97637   0.00000  Uiso   1.00
C1080  C     0.82550   0.16322   0.52173   0.00000  Uiso   1.00
Cu1081 Cu    0.77404   0.16108   0.74516   0.00000  Uiso   1.00
Cu1082 Cu    0.89263   0.17225   0.75483   0.00000  Uiso   1.00
H1083  H     0.99667   0.06708   0.94535   0.00000  Uiso   1.00
H1084  H     0.69650   0.20790   0.54268   0.00000  Uiso   1.00
H1085  H     0.67268   0.21331   0.77570   0.00000  Uiso   1.00
H1086  H     0.99514   0.12199   0.72123   0.00000  Uiso   1.00
N1087  N     0.98173   0.18068   0.76212   0.00000  Uiso   1.00
N1088  N     0.68494   0.15265   0.73788   0.00000  Uiso   1.00
O1089  O     0.79482   0.23809   0.74686   0.00000  Uiso   1.00
O1090  O     0.87185   0.09524   0.75314   0.00000  Uiso   1.00
O1091  O     0.89496   0.24753   0.75503   0.00000  Uiso   1.00
O1092  O     0.77171   0.08580   0.74497   0.00000  Uiso   1.00
O1093  O     0.75518   0.15930   0.80854   0.00000  Uiso   1.00
O1094  O     0.91149   0.17403   0.69146   0.00000  Uiso   1.00
O1095  O     0.85532   0.16874   0.81671   0.00000  Uiso   1.00
O1096  O     0.81134   0.16460   0.68329   0.00000  Uiso   1.00
O1097  O     0.66723   0.07642   0.52328   0.00000  Uiso   1.00
H1098  H     0.99885   0.04234   0.50756   0.00000  Uiso   1.00
O1099  O     0.68649   0.20749   0.96668   0.00000  Uiso   1.00
H1100  H     0.70829   0.23909   0.98091   0.00000  Uiso   1.00
O1101  O     0.79866   0.20268   0.61390   0.00000  Uiso   1.00
H1102  H     0.80740   0.22704   0.63840   0.00000  Uiso   1.00
O1103  O     0.84273   0.22917   0.90307   0.00000  Uiso   1.00
H1104  H     0.83287   0.24296   0.87845   0.00000  Uiso   1.00
O1105  O     0.67216   0.20034   0.62498   0.00000  Uiso   1.00
C1106  C     0.68747   0.25138   0.64233   0.00000  Uiso   1.00
H1107  H     0.70860   0.24986   0.67020   0.00000  Uiso   1.00
H1108  H     0.97802   0.26681   0.65636   0.00000  Uiso   1.00
C1109  C     0.73518   0.28726   0.60836   0.00000  Uiso   1.00
H1110  H     0.76366   0.26547   0.58320   0.00000  Uiso   1.00
H1111  H     0.70867   0.30456   0.59103   0.00000  Uiso   1.00
C1112  C     0.78067   0.32919   0.62891   0.00000  Uiso   1.00
H1113  H     0.75421   0.01717   0.65574   0.00000  Uiso   1.00
H1114  H     0.81120   0.02308   0.60402   0.00000  Uiso   1.00
H1115  H     0.81171   0.31191   0.64234   0.00000  Uiso   1.00
O1116  O     0.68331   0.08791   0.86379   0.00000  Uiso   1.00
C1117  C     0.95217   0.09036   0.87755   0.00000  Uiso   1.00
H1118  H     0.94206   0.11459   0.85496   0.00000  Uiso   1.00
H1119  H     0.93909   0.10729   0.91094   0.00000  Uiso   1.00
C1120  C     0.91001   0.03618   0.87597   0.00000  Uiso   1.00
H1121  H     0.92075   0.01815   0.84287   0.00000  Uiso   1.00
H1122  H     0.91980   0.01249   0.89889   0.00000  Uiso   1.00
C1123  C     0.84007   0.03702   0.88898   0.00000  Uiso   1.00
H1124  H     0.82880   0.05522   0.92197   0.00000  Uiso   1.00
H1125  H     0.81098   0.33026   0.88965   0.00000  Uiso   1.00
H1126  H     0.82793   0.05855   0.86542   0.00000  Uiso   1.00
O1127  O     0.73472   0.13223   0.58062   0.00000  Uiso   1.00
C1128  C     0.71307   0.08332   0.59859   0.00000  Uiso   1.00
H1129  H     0.74234   0.08266   0.62186   0.00000  Uiso   1.00
H1130  H     0.71764   0.05069   0.57448   0.00000  Uiso   1.00
C1131  C     0.97770   0.07823   0.62403   0.00000  Uiso   1.00
H1132  H     0.97639   0.10903   0.64999   0.00000  Uiso   1.00
H1133  H     0.94752   0.08324   0.60250   0.00000  Uiso   1.00
C1134  C     0.94948   0.02683   0.64529   0.00000  Uiso   1.00
H1135  H     0.94529   0.32822   0.62029   0.00000  Uiso   1.00
H1136  H     0.90148   0.02719   0.66511   0.00000  Uiso   1.00
H1137  H     0.97867   0.02105   0.66718   0.00000  Uiso   1.00
O1138  O     0.93647   0.19947   0.91497   0.00000  Uiso   1.00
C1139  C     0.97245   0.25049   0.90607   0.00000  Uiso   1.00
H1140  H     0.68450   0.25931   0.91627   0.00000  Uiso   1.00
H1141  H     0.94543   0.27950   0.92229   0.00000  Uiso   1.00
C1142  C     0.99014   0.25603   0.85730   0.00000  Uiso   1.00
H1143  H     0.67792   0.22317   0.84273   0.00000  Uiso   1.00
H1144  H     0.94711   0.25395   0.84508   0.00000  Uiso   1.00
C1145  C     0.70522   0.30631   0.84416   0.00000  Uiso   1.00
H1146  H     0.70439   0.00226   0.87140   0.00000  Uiso   1.00
H1147  H     0.69464   0.32209   0.81661   0.00000  Uiso   1.00
H1148  H     0.75355   0.29907   0.83410   0.00000  Uiso   1.00
O1149  O     0.91317   0.02141   0.76008   0.00000  Uiso   1.00
H1150  H     0.94274   0.00064   0.76302   0.00000  Uiso   1.00
O1151  O     0.75584   0.31193   0.73620   0.00000  Uiso   1.00
H1152  H     0.72644   0.33266   0.73288   0.00000  Uiso   1.00
C1153  C     0.18212   0.60013   0.75114   0.00000  Uiso   1.00
C1154  C     0.15158   0.39987   0.74819   0.00000  Uiso   1.00
C1155  C     0.09668   0.46506   0.53694   0.00000  Uiso   1.00
C1156  C     0.24611   0.52732   0.95924   0.00000  Uiso   1.00
C1157  C     0.05986   0.44010   0.50746   0.00000  Uiso   1.00
C1158  C     0.28958   0.53257   0.98575   0.00000  Uiso   1.00
C1159  C     0.19067   0.65630   0.75223   0.00000  Uiso   1.00
C1160  C     0.14385   0.34370   0.74583   0.00000  Uiso   1.00
C1161  C     0.12849   0.49610   0.83290   0.00000  Uiso   1.00
C1162  C     0.20530   0.50716   0.66732   0.00000  Uiso   1.00
C1163  C     0.10543   0.48655   0.87940   0.00000  Uiso   1.00
C1164  C     0.22883   0.51738   0.62055   0.00000  Uiso   1.00
C1165  C     0.03853   0.43075   0.93542   0.00000  Uiso   1.00
C1166  C     0.31288   0.53331   0.55649   0.00000  Uiso   1.00
C1167  C     0.05182   0.44708   0.89319   0.00000  Uiso   1.00
C1168  C     0.29358   0.52879   0.60111   0.00000  Uiso   1.00
C1169  C     0.14214   0.51221   0.90912   0.00000  Uiso   1.00
C1170  C     0.18550   0.51862   0.59513   0.00000  Uiso   1.00
C1171  C     0.13509   0.49024   0.94924   0.00000  Uiso   1.00
C1172  C     0.20306   0.51391   0.54934   0.00000  Uiso   1.00
C1173  C     0.07874   0.45236   0.96377   0.00000  Uiso   1.00
C1174  C     0.26861   0.52661   0.53040   0.00000  Uiso   1.00
C1175  C     0.18002   0.50615   0.97637   0.00000  Uiso   1.00
C1176  C     0.15883   0.49655   0.52173   0.00000  Uiso   1.00
Cu1177 Cu    0.10737   0.49441   0.74516   0.00000  Uiso   1.00
Cu1178 Cu    0.22596   0.50559   0.75483   0.00000  Uiso   1.00
H1179  H     0.33000   0.40042   0.94535   0.00000  Uiso   1.00
H1180  H     0.02983   0.54124   0.54268   0.00000  Uiso   1.00
H1181  H     0.00602   0.54664   0.77570   0.00000  Uiso   1.00
H1182  H     0.32847   0.45533   0.72123   0.00000  Uiso   1.00
N1183  N     0.31506   0.51401   0.76212   0.00000  Uiso   1.00
N1184  N     0.01827   0.48599   0.73788   0.00000  Uiso   1.00
O1185  O     0.12815   0.57142   0.74686   0.00000  Uiso   1.00
O1186  O     0.20518   0.42858   0.75314   0.00000  Uiso   1.00
O1187  O     0.22829   0.58086   0.75503   0.00000  Uiso   1.00
O1188  O     0.10504   0.41914   0.74497   0.00000  Uiso   1.00
O1189  O     0.08851   0.49263   0.80854   0.00000  Uiso   1.00
O1190  O     0.24482   0.50737   0.69146   0.00000  Uiso   1.00
O1191  O     0.18866   0.50207   0.81671   0.00000  Uiso   1.00
O1192  O     0.14468   0.49793   0.68329   0.00000  Uiso   1.00
O1193  O     0.00056   0.40976   0.52328   0.00000  Uiso   1.00
H1194  H     0.33218   0.37568   0.50756   0.00000  Uiso   1.00
O1195  O     0.01983   0.54082   0.96668   0.00000  Uiso   1.00
H1196  H     0.04162   0.57242   0.98091   0.00000  Uiso   1.00
O1197  O     0.13199   0.53601   0.61390   0.00000  Uiso   1.00
H1198  H     0.14073   0.56038   0.63840   0.00000  Uiso   1.00
O1199  O     0.17606   0.56251   0.90307   0.00000  Uiso   1.00
H1200  H     0.16621   0.57629   0.87845   0.00000  Uiso   1.00
O1201  O     0.00549   0.53368   0.62498   0.00000  Uiso   1.00
C1202  C     0.02080   0.58472   0.64233   0.00000  Uiso   1.00
H1203  H     0.04194   0.58319   0.67020   0.00000  Uiso   1.00
H1204  H     0.31135   0.60014   0.65636   0.00000  Uiso   1.00
C1205  C     0.06852   0.62059   0.60836   0.00000  Uiso   1.00
H1206  H     0.09699   0.59880   0.58320   0.00000  Uiso   1.00
H1207  H     0.04200   0.63790   0.59103   0.00000  Uiso   1.00
C1208  C     0.11400   0.66252   0.62891   0.00000  Uiso   1.00
H1209  H     0.08755   0.35050   0.65574   0.00000  Uiso   1.00
H1210  H     0.14454   0.35641   0.60402   0.00000  Uiso   1.00
H1211  H     0.14504   0.64524   0.64234   0.00000  Uiso   1.00
O1212  O     0.01664   0.42125   0.86379   0.00000  Uiso   1.00
C1213  C     0.28551   0.42369   0.87755   0.00000  Uiso   1.00
H1214  H     0.27539   0.44792   0.85496   0.00000  Uiso   1.00
H1215  H     0.27242   0.44063   0.91094   0.00000  Uiso   1.00
C1216  C     0.24335   0.36951   0.87597   0.00000  Uiso   1.00
H1217  H     0.25408   0.35148   0.84287   0.00000  Uiso   1.00
H1218  H     0.25313   0.34583   0.89889   0.00000  Uiso   1.00
C1219  C     0.17340   0.37035   0.88898   0.00000  Uiso   1.00
H1220  H     0.16214   0.38855   0.92197   0.00000  Uiso   1.00
H1221  H     0.14431   0.66359   0.88965   0.00000  Uiso   1.00
H1222  H     0.16126   0.39188   0.86542   0.00000  Uiso   1.00
O1223  O     0.06806   0.46557   0.58062   0.00000  Uiso   1.00
C1224  C     0.04640   0.41666   0.59859   0.00000  Uiso   1.00
H1225  H     0.07567   0.41599   0.62186   0.00000  Uiso   1.00
H1226  H     0.05097   0.38402   0.57448   0.00000  Uiso   1.00
C1227  C     0.31103   0.41156   0.62403   0.00000  Uiso   1.00
H1228  H     0.30972   0.44236   0.64999   0.00000  Uiso   1.00
H1229  H     0.28086   0.41658   0.60250   0.00000  Uiso   1.00
C1230  C     0.28281   0.36017   0.64529   0.00000  Uiso   1.00
H1231  H     0.27863   0.66155   0.62029   0.00000  Uiso   1.00
H1232  H     0.23481   0.36052   0.66511   0.00000  Uiso   1.00
H1233  H     0.31200   0.35439   0.66718   0.00000  Uiso   1.00
O1234  O     0.26980   0.53280   0.91497   0.00000  Uiso   1.00
C1235  C     0.30578   0.58382   0.90607   0.00000  Uiso   1.00
H1236  H     0.01783   0.59264   0.91627   0.00000  Uiso   1.00
H1237  H     0.27876   0.61284   0.92229   0.00000  Uiso   1.00
C1238  C     0.32347   0.58936   0.85730   0.00000  Uiso   1.00
H1239  H     0.01125   0.55650   0.84273   0.00000  Uiso   1.00
H1240  H     0.28044   0.58728   0.84508   0.00000  Uiso   1.00
C1241  C     0.03855   0.63964   0.84416   0.00000  Uiso   1.00
H1242  H     0.03772   0.33559   0.87140   0.00000  Uiso   1.00
H1243  H     0.02797   0.65542   0.81661   0.00000  Uiso   1.00
H1244  H     0.08688   0.63241   0.83410   0.00000  Uiso   1.00
O1245  O     0.24651   0.35474   0.76008   0.00000  Uiso   1.00
H1246  H     0.27607   0.33398   0.76302   0.00000  Uiso   1.00
O1247  O     0.08917   0.64527   0.73620   0.00000  Uiso   1.00
H1248  H     0.05978   0.66599   0.73288   0.00000  Uiso   1.00
C1249  C     0.51546   0.60013   0.75114   0.00000  Uiso   1.00
C1250  C     0.48491   0.39987   0.74819   0.00000  Uiso   1.00
C1251  C     0.43001   0.46506   0.53694   0.00000  Uiso   1.00
C1252  C     0.57944   0.52732   0.95924   0.00000  Uiso   1.00
C1253  C     0.39319   0.44010   0.50746   0.00000  Uiso   1.00
C1254  C     0.62291   0.53257   0.98575   0.00000  Uiso   1.00
C1255  C     0.52401   0.65630   0.75223   0.00000  Uiso   1.00
C1256  C     0.47718   0.34370   0.74583   0.00000  Uiso   1.00
C1257  C     0.46183   0.49610   0.83290   0.00000  Uiso   1.00
C1258  C     0.53863   0.50716   0.66732   0.00000  Uiso   1.00
C1259  C     0.43876   0.48655   0.87940   0.00000  Uiso   1.00
C1260  C     0.56217   0.51738   0.62055   0.00000  Uiso   1.00
C1261  C     0.37187   0.43075   0.93542   0.00000  Uiso   1.00
C1262  C     0.64621   0.53331   0.55649   0.00000  Uiso   1.00
C1263  C     0.38516   0.44708   0.89319   0.00000  Uiso   1.00
C1264  C     0.62692   0.52879   0.60111   0.00000  Uiso   1.00
C1265  C     0.47547   0.51221   0.90912   0.00000  Uiso   1.00
C1266  C     0.51883   0.51862   0.59513   0.00000  Uiso   1.00
C1267  C     0.46843   0.49024   0.94924   0.00000  Uiso   1.00
C1268  C     0.53640   0.51391   0.54934   0.00000  Uiso   1.00
C1269  C     0.41208   0.45236   0.96377   0.00000  Uiso   1.00
C1270  C     0.60194   0.52661   0.53040   0.00000  Uiso   1.00
C1271  C     0.51336   0.50615   0.97637   0.00000  Uiso   1.00
C1272  C     0.49217   0.49655   0.52173   0.00000  Uiso   1.00
Cu1273 Cu    0.44071   0.49441   0.74516   0.00000  Uiso   1.00
Cu1274 Cu    0.55929   0.50559   0.75483   0.00000  Uiso   1.00
H1275  H     0.66334   0.40042   0.94535   0.00000  Uiso   1.00
H1276  H     0.36317   0.54124   0.54268   0.00000  Uiso   1.00
H1277  H     0.33935   0.54664   0.77570   0.00000  Uiso   1.00
H1278  H     0.66180   0.45533   0.72123   0.00000  Uiso   1.00
N1279  N     0.64839   0.51401   0.76212   0.00000  Uiso   1.00
N1280  N     0.35161   0.48599   0.73788   0.00000  Uiso   1.00
O1281  O     0.46148   0.57142   0.74686   0.00000  Uiso   1.00
O1282  O     0.53852   0.42858   0.75314   0.00000  Uiso   1.00
O1283  O     0.56163   0.58086   0.75503   0.00000  Uiso   1.00
O1284  O     0.43837   0.41914   0.74497   0.00000  Uiso   1.00
O1285  O     0.42185   0.49263   0.80854   0.00000  Uiso   1.00
O1286  O     0.57815   0.50737   0.69146   0.00000  Uiso   1.00
O1287  O     0.52199   0.50207   0.81671   0.00000  Uiso   1.00
O1288  O     0.47801   0.49793   0.68329   0.00000  Uiso   1.00
O1289  O     0.33389   0.40976   0.52328   0.00000  Uiso   1.00
H1290  H     0.66552   0.37568   0.50756   0.00000  Uiso   1.00
O1291  O     0.35316   0.54082   0.96668   0.00000  Uiso   1.00
H1292  H     0.37495   0.57242   0.98091   0.00000  Uiso   1.00
O1293  O     0.46533   0.53601   0.61390   0.00000  Uiso   1.00
H1294  H     0.47406   0.56038   0.63840   0.00000  Uiso   1.00
O1295  O     0.50939   0.56251   0.90307   0.00000  Uiso   1.00
H1296  H     0.49954   0.57629   0.87845   0.00000  Uiso   1.00
O1297  O     0.33882   0.53368   0.62498   0.00000  Uiso   1.00
C1298  C     0.35414   0.58472   0.64233   0.00000  Uiso   1.00
H1299  H     0.37527   0.58319   0.67020   0.00000  Uiso   1.00
H1300  H     0.64469   0.60014   0.65636   0.00000  Uiso   1.00
C1301  C     0.40185   0.62059   0.60836   0.00000  Uiso   1.00
H1302  H     0.43033   0.59880   0.58320   0.00000  Uiso   1.00
H1303  H     0.37534   0.63790   0.59103   0.00000  Uiso   1.00
C1304  C     0.44734   0.66252   0.62891   0.00000  Uiso   1.00
H1305  H     0.42088   0.35050   0.65574   0.00000  Uiso   1.00
H1306  H     0.47787   0.35641   0.60402   0.00000  Uiso   1.00
H1307  H     0.47838   0.64524   0.64234   0.00000  Uiso   1.00
O1308  O     0.34997   0.42125   0.86379   0.00000  Uiso   1.00
C1309  C     0.61884   0.42369   0.87755   0.00000  Uiso   1.00
H1310  H     0.60873   0.44792   0.85496   0.00000  Uiso   1.00
H1311  H     0.60575   0.44063   0.91094   0.00000  Uiso   1.00
C1312  C     0.57668   0.36951   0.87597   0.00000  Uiso   1.00
H1313  H     0.58741   0.35148   0.84287   0.00000  Uiso   1.00
H1314  H     0.58647   0.34583   0.89889   0.00000  Uiso   1.00
C1315  C     0.50674   0.37035   0.88898   0.00000  Uiso   1.00
H1316  H     0.49547   0.38855   0.92197   0.00000  Uiso   1.00
H1317  H     0.47764   0.66359   0.88965   0.00000  Uiso   1.00
H1318  H     0.49459   0.39188   0.86542   0.00000  Uiso   1.00
O1319  O     0.40139   0.46557   0.58062   0.00000  Uiso   1.00
C1320  C     0.37974   0.41666   0.59859   0.00000  Uiso   1.00
H1321  H     0.40900   0.41599   0.62186   0.00000  Uiso   1.00
H1322  H     0.38430   0.38402   0.57448   0.00000  Uiso   1.00
C1323  C     0.64437   0.41156   0.62403   0.00000  Uiso   1.00
H1324  H     0.64305   0.44236   0.64999   0.00000  Uiso   1.00
H1325  H     0.61419   0.41658   0.60250   0.00000  Uiso   1.00
C1326  C     0.61614   0.36017   0.64529   0.00000  Uiso   1.00
H1327  H     0.61196   0.66155   0.62029   0.00000  Uiso   1.00
H1328  H     0.56814   0.36052   0.66511   0.00000  Uiso   1.00
H1329  H     0.64534   0.35439   0.66718   0.00000  Uiso   1.00
O1330  O     0.60314   0.53280   0.91497   0.00000  Uiso   1.00
C1331  C     0.63912   0.58382   0.90607   0.00000  Uiso   1.00
H1332  H     0.35117   0.59264   0.91627   0.00000  Uiso   1.00
H1333  H     0.61210   0.61284   0.92229   0.00000  Uiso   1.00
C1334  C     0.65681   0.58936   0.85730   0.00000  Uiso   1.00
H1335  H     0.34459   0.55650   0.84273   0.00000  Uiso   1.00
H1336  H     0.61378   0.58728   0.84508   0.00000  Uiso   1.00
C1337  C     0.37189   0.63964   0.84416   0.00000  Uiso   1.00
H1338  H     0.37105   0.33559   0.87140   0.00000  Uiso   1.00
H1339  H     0.36130   0.65542   0.81661   0.00000  Uiso   1.00
H1340  H     0.42022   0.63241   0.83410   0.00000  Uiso   1.00
O1341  O     0.57984   0.35474   0.76008   0.00000  Uiso   1.00
H1342  H     0.60941   0.33398   0.76302   0.00000  Uiso   1.00
O1343  O     0.42250   0.64527   0.73620   0.00000  Uiso   1.00
H1344  H     0.39311   0.66599   0.73288   0.00000  Uiso   1.00
C1345  C     0.84879   0.60013   0.75114   0.00000  Uiso   1.00
C1346  C     0.81825   0.39987   0.74819   0.00000  Uiso   1.00
C1347  C     0.76335   0.46506   0.53694   0.00000  Uiso   1.00
C1348  C     0.91277   0.52732   0.95924   0.00000  Uiso   1.00
C1349  C     0.72652   0.44010   0.50746   0.00000  Uiso   1.00
C1350  C     0.95624   0.53257   0.98575   0.00000  Uiso   1.00
C1351  C     0.85734   0.65630   0.75223   0.00000  Uiso   1.00
C1352  C     0.81052   0.34370   0.74583   0.00000  Uiso   1.00
C1353  C     0.79516   0.49610   0.83290   0.00000  Uiso   1.00
C1354  C     0.87196   0.50716   0.66732   0.00000  Uiso   1.00
C1355  C     0.77209   0.48655   0.87940   0.00000  Uiso   1.00
C1356  C     0.89550   0.51738   0.62055   0.00000  Uiso   1.00
C1357  C     0.70520   0.43075   0.93542   0.00000  Uiso   1.00
C1358  C     0.97954   0.53331   0.55649   0.00000  Uiso   1.00
C1359  C     0.71849   0.44708   0.89319   0.00000  Uiso   1.00
C1360  C     0.96025   0.52879   0.60111   0.00000  Uiso   1.00
C1361  C     0.80880   0.51221   0.90912   0.00000  Uiso   1.00
C1362  C     0.85217   0.51862   0.59513   0.00000  Uiso   1.00
C1363  C     0.80176   0.49024   0.94924   0.00000  Uiso   1.00
C1364  C     0.86973   0.51391   0.54934   0.00000  Uiso   1.00
C1365  C     0.74541   0.45236   0.96377   0.00000  Uiso   1.00
C1366  C     0.93527   0.52661   0.53040   0.00000  Uiso   1.00
C1367  C     0.84669   0.50615   0.97637   0.00000  Uiso   1.00
C1368  C     0.82550   0.49655   0.52173   0.00000  Uiso   1.00
Cu1369 Cu    0.77404   0.49441   0.74516   0.00000  Uiso   1.00
Cu1370 Cu    0.89263   0.50559   0.75483   0.00000  Uiso   1.00
H1371  H     0.99667   0.40042   0.94535   0.00000  Uiso   1.00
H1372  H     0.69650   0.54124   0.54268   0.00000  Uiso   1.00
H1373  H     0.67268   0.54664   0.77570   0.00000  Uiso   1.00
H1374  H     0.99514   0.45533   0.72123   0.00000  Uiso   1.00
N1375  N     0.98173   0.51401   0.76212   0.00000  Uiso   1.00
N1376  N     0.68494   0.48599   0.73788   0.00000  Uiso   1.00
O1377  O     0.79482   0.57142   0.74686   0.00000  Uiso   1.00
O1378  O     0.87185   0.42858   0.75314   0.00000  Uiso   1.00
O1379  O     0.89496   0.58086   0.75503   0.00000  Uiso   1.00
O1380  O     0.77171   0.41914   0.74497   0.00000  Uiso   1.00
O1381  O     0.75518   0.49263   0.80854   0.00000  Uiso   1.00
O1382  O     0.91149   0.50737   0.69146   0.00000  Uiso   1.00
O1383  O     0.85532   0.50207   0.81671   0.00000  Uiso   1.00
O1384  O     0.81134   0.49793   0.68329   0.00000  Uiso   1.00
O1385  O     0.66723   0.40976   0.52328   0.00000  Uiso   1.00
H1386  H     0.99885   0.37568   0.50756   0.00000  Uiso   1.00
O1387  O     0.68649   0.54082   0.96668   0.00000  Uiso   1.00
H1388  H     0.70829   0.57242   0.98091   0.00000  Uiso   1.00
O1389  O     0.79866   0.53601   0.61390   0.00000  Uiso   1.00
H1390  H     0.80740   0.56038   0.63840   0.00000  Uiso   1.00
O1391  O     0.84273   0.56251   0.90307   0.00000  Uiso   1.00
H1392  H     0.83287   0.57629   0.87845   0.00000  Uiso   1.00
O1393  O     0.67216   0.53368   0.62498   0.00000  Uiso   1.00
C1394  C     0.68747   0.58472   0.64233   0.00000  Uiso   1.00
H1395  H     0.70860   0.58319   0.67020   0.00000  Uiso   1.00
H1396  H     0.97802   0.60014   0.65636   0.00000  Uiso   1.00
C1397  C     0.73518   0.62059   0.60836   0.00000  Uiso   1.00
H1398  H     0.76366   0.59880   0.58320   0.00000  Uiso   1.00
H1399  H     0.70867   0.63790   0.59103   0.00000  Uiso   1.00
C1400  C     0.78067   0.66252   0.62891   0.00000  Uiso   1.00
H1401  H     0.75421   0.35050   0.65574   0.00000  Uiso   1.00
H1402  H     0.81120   0.35641   0.60402   0.00000  Uiso   1.00
H1403  H     0.81171   0.64524   0.64234   0.00000  Uiso   1.00
O1404  O     0.68331   0.42125   0.86379   0.00000  Uiso   1.00
C1405  C     0.95217   0.42369   0.87755   0.00000  Uiso   1.00
H1406  H     0.94206   0.44792   0.85496   0.00000  Uiso   1.00
H1407  H     0.93909   0.44063   0.91094   0.00000  Uiso   1.00
C1408  C     0.91001   0.36951   0.87597   0.00000  Uiso   1.00
H1409  H     0.92075   0.35148   0.84287   0.00000  Uiso   1.00
H1410  H     0.91980   0.34583   0.89889   0.00000  Uiso   1.00
C1411  C     0.84007   0.37035   0.88898   0.00000  Uiso   1.00
H1412  H     0.82880   0.38855   0.92197   0.00000  Uiso   1.00
H1413  H     0.81098   0.66359   0.88965   0.00000  Uiso   1.00
H1414  H     0.82793   0.39188   0.86542   0.00000  Uiso   1.00
O1415  O     0.73472   0.46557   0.58062   0.00000  Uiso   1.00
C1416  C     0.71307   0.41666   0.59859   0.00000  Uiso   1.00
H1417  H     0.74234   0.41599   0.62186   0.00000  Uiso   1.00
H1418  H     0.71764   0.38402   0.57448   0.00000  Uiso   1.00
C1419  C     0.97770   0.41156   0.62403   0.00000  Uiso   1.00
H1420  H     0.97639   0.44236   0.64999   0.00000  Uiso   1.00
H1421  H     0.94752   0.41658   0.60250   0.00000  Uiso   1.00
C1422  C     0.94948   0.36017   0.64529   0.00000  Uiso   1.00
H1423  H     0.94529   0.66155   0.62029   0.00000  Uiso   1.00
H1424  H     0.90148   0.36052   0.66511   0.00000  Uiso   1.00
H1425  H     0.97867   0.35439   0.66718   0.00000  Uiso   1.00
O1426  O     0.93647   0.53280   0.91497   0.00000  Uiso   1.00
C1427  C     0.97245   0.58382   0.90607   0.00000  Uiso   1.00
H1428  H     0.68450   0.59264   0.91627   0.00000  Uiso   1.00
H1429  H     0.94543   0.61284   0.92229   0.00000  Uiso   1.00
C1430  C     0.99014   0.58936   0.85730   0.00000  Uiso   1.00
H1431  H     0.67792   0.55650   0.84273   0.00000  Uiso   1.00
H1432  H     0.94711   0.58728   0.84508   0.00000  Uiso   1.00
C1433  C     0.70522   0.63964   0.84416   0.00000  Uiso   1.00
H1434  H     0.70439   0.33559   0.87140   0.00000  Uiso   1.00
H1435  H     0.69464   0.65542   0.81661   0.00000  Uiso   1.00
H1436  H     0.75355   0.63241   0.83410   0.00000  Uiso   1.00
O1437  O     0.91317   0.35474   0.76008   0.00000  Uiso   1.00
H1438  H     0.94274   0.33398   0.76302   0.00000  Uiso   1.00
O1439  O     0.75584   0.64527   0.73620   0.00000  Uiso   1.00
H1440  H     0.72644   0.66599   0.73288   0.00000  Uiso   1.00
C1441  C     0.18212   0.93346   0.75114   0.00000  Uiso   1.00
C1442  C     0.15158   0.73320   0.74819   0.00000  Uiso   1.00
C1443  C     0.09668   0.79839   0.53694   0.00000  Uiso   1.00
C1444  C     0.24611   0.86065   0.95924   0.00000  Uiso   1.00
C1445  C     0.05986   0.77344   0.50746   0.00000  Uiso   1.00
C1446  C     0.28958   0.86590   0.98575   0.00000  Uiso   1.00
C1447  C     0.19067   0.98963   0.75223   0.00000  Uiso   1.00
C1448  C     0.14385   0.67704   0.74583   0.00000  Uiso   1.00
C1449  C     0.12849   0.82944   0.83290   0.00000  Uiso   1.00
C1450  C     0.20530   0.84049   0.66732   0.00000  Uiso   1.00
C1451  C     0.10543   0.81988   0.87940   0.00000  Uiso   1.00
C1452  C     0.22883   0.85071   0.62055   0.00000  Uiso   1.00
C1453  C     0.03853   0.76408   0.93542   0.00000  Uiso   1.00
C1454  C     0.31288   0.86665   0.55649   0.00000  Uiso   1.00
C1455  C     0.05182   0.78042   0.89319   0.00000  Uiso   1.00
C1456  C     0.29358   0.86212   0.60111   0.00000  Uiso   1.00
C1457  C     0.14214   0.84554   0.90912   0.00000  Uiso   1.00
C1458  C     0.18550   0.85195   0.59513   0.00000  Uiso   1.00
C1459  C     0.13509   0.82357   0.94924   0.00000  Uiso   1.00
C1460  C     0.20306   0.84724   0.54934   0.00000  Uiso   1.00
C1461  C     0.07874   0.78570   0.96377   0.00000  Uiso   1.00
C1462  C     0.26861   0.85995   0.53040   0.00000  Uiso   1.00
C1463  C     0.18002   0.83948   0.97637   0.00000  Uiso   1.00
C1464  C     0.15883   0.82989   0.52173   0.00000  Uiso   1.00
Cu1465 Cu    0.10737   0.82775   0.74516   0.00000  Uiso   1.00
Cu1466 Cu    0.22596   0.83892   0.75483   0.00000  Uiso   1.00
H1467  H     0.33000   0.73375   0.94535   0.00000  Uiso   1.00
H1468  H     0.02983   0.87457   0.54268   0.00000  Uiso   1.00
H1469  H     0.00602   0.87997   0.77570   0.00000  Uiso   1.00
H1470  H     0.32847   0.78866   0.72123   0.00000  Uiso   1.00
N1471  N     0.31506   0.84735   0.76212   0.00000  Uiso   1.00
N1472  N     0.01827   0.81932   0.73788   0.00000  Uiso   1.00
O1473  O     0.12815   0.90476   0.74686   0.00000  Uiso   1.00
O1474  O     0.20518   0.76191   0.75314   0.00000  Uiso   1.00
O1475  O     0.22829   0.91420   0.75503   0.00000  Uiso   1.00
O1476  O     0.10504   0.75247   0.74497   0.00000  Uiso   1.00
O1477  O     0.08851   0.82597   0.80854   0.00000  Uiso   1.00
O1478  O     0.24482   0.84070   0.69146   0.00000  Uiso   1.00
O1479  O     0.18866   0.83540   0.81671   0.00000  Uiso   1.00
O1480  O     0.14468   0.83126   0.68329   0.00000  Uiso   1.00
O1481  O     0.00056   0.74309   0.52328   0.00000  Uiso   1.00
H1482  H     0.33218   0.70901   0.50756   0.00000  Uiso   1.00
O1483  O     0.01983   0.87415   0.96668   0.00000  Uiso   1.00
H1484  H     0.04162   0.90576   0.98091   0.00000  Uiso   1.00
O1485  O     0.13199   0.86934   0.61390   0.00000  Uiso   1.00
H1486  H     0.14073   0.89371   0.63840   0.00000  Uiso   1.00
O1487  O     0.17606   0.89584   0.90307   0.00000  Uiso   1.00
H1488  H     0.16621   0.90962   0.87845   0.00000  Uiso   1.00
O1489  O     0.00549   0.86701   0.62498   0.00000  Uiso   1.00
C1490  C     0.02080   0.91805   0.64233   0.00000  Uiso   1.00
H1491  H     0.04194   0.91652   0.67020   0.00000  Uiso   1.00
H1492  H     0.31135   0.93348   0.65636   0.00000  Uiso   1.00
C1493  C     0.06852   0.95392   0.60836   0.00000  Uiso   1.00
H1494  H     0.09699   0.93214   0.58320   0.00000  Uiso   1.00
H1495  H     0.04200   0.97123   0.59103   0.00000  Uiso   1.00
C1496  C     0.11400   0.99586   0.62891   0.00000  Uiso   1.00
H1497  H     0.08755   0.68383   0.65574   0.00000  Uiso   1.00
H1498  H     0.14454   0.68975   0.60402   0.00000  Uiso   1.00
H1499  H     0.14504   0.97857   0.64234   0.00000  Uiso   1.00
O1500  O     0.01664   0.75458   0.86379   0.00000  Uiso   1.00
C1501  C     0.28551   0.75702   0.87755   0.00000  Uiso   1.00
H1502  H     0.27539   0.78126   0.85496   0.00000  Uiso   1.00
H1503  H     0.27242   0.77396   0.91094   0.00000  Uiso   1.00
C1504  C     0.24335   0.70284   0.87597   0.00000  Uiso   1.00
H1505  H     0.25408   0.68482   0.84287   0.00000  Uiso   1.00
H1506  H     0.25313   0.67916   0.89889   0.00000  Uiso   1.00
C1507  C     0.17340   0.70369   0.88898   0.00000  Uiso   1.00
H1508  H     0.16214   0.72188   0.92197   0.00000  Uiso   1.00
H1509  H     0.14431   0.99693   0.88965   0.00000  Uiso   1.00
H1510  H     0.16126   0.72522   0.86542   0.00000  Uiso   1.00
O1511  O     0.06806   0.79890   0.58062   0.00000  Uiso   1.00
C1512  C     0.04640   0.74999   0.59859   0.00000  Uiso   1.00
H1513  H     0.07567   0.74932   0.62186   0.00000  Uiso   1.00
H1514  H     0.05097   0.71736   0.57448   0.00000  Uiso   1.00
C1515  C     0.31103   0.74490   0.62403   0.00000  Uiso   1.00
H1516  H     0.30972   0.77570   0.64999   0.00000  Uiso   1.00
H1517  H     0.28086   0.74991   0.60250   0.00000  Uiso   1.00
C1518  C     0.28281   0.69350   0.64529   0.00000  Uiso   1.00
H1519  H     0.27863   0.99488   0.62029   0.00000  Uiso   1.00
H1520  H     0.23481   0.69386   0.66511   0.00000  Uiso   1.00
H1521  H     0.31200   0.68772   0.66718   0.00000  Uiso   1.00
O1522  O     0.26980   0.86613   0.91497   0.00000  Uiso   1.00
C1523  C     0.30578   0.91716   0.90607   0.00000  Uiso   1.00
H1524  H     0.01783   0.92597   0.91627   0.00000  Uiso   1.00
H1525  H     0.27876   0.94617   0.92229   0.00000  Uiso   1.00
C1526  C     0.32347   0.92270   0.85730   0.00000  Uiso   1.00
H1527  H     0.01125   0.88984   0.84273   0.00000  Uiso   1.00
H1528  H     0.28044   0.92061   0.84508   0.00000  Uiso   1.00
C1529  C     0.03855   0.97298   0.84416   0.00000  Uiso   1.00
H1530  H     0.03772   0.66892   0.87140   0.00000  Uiso   1.00
H1531  H     0.02797   0.98875   0.81661   0.00000  Uiso   1.00
H1532  H     0.08688   0.96574   0.83410   0.00000  Uiso   1.00
O1533  O     0.24651   0.68808   0.76008   0.00000  Uiso   1.00
H1534  H     0.27607   0.66731   0.76302   0.00000  Uiso   1.00
O1535  O     0.08917   0.97860   0.73620   0.00000  Uiso   1.00
H1536  H     0.05978   0.99933   0.73288   0.00000  Uiso   1.00
C1537  C     0.51546   0.93346   0.75114   0.00000  Uiso   1.00
C1538  C     0.48491   0.73320   0.74819   0.00000  Uiso   1.00
C1539  C     0.43001   0.79839   0.53694   0.00000  Uiso   1.00
C1540  C     0.57944   0.86065   0.95924   0.00000  Uiso   1.00
C1541  C     0.39319   0.77344   0.50746   0.00000  Uiso   1.00
C1542  C     0.62291   0.86590   0.98575   0.00000  Uiso   1.00
C1543  C     0.52401   0.98963   0.75223   0.00000  Uiso   1.00
C1544  C     0.47718   0.67704   0.74583   0.00000  Uiso   1.00
C1545  C     0.46183   0.82944   0.83290   0.00000  Uiso   1.00
C1546  C     0.53863   0.84049   0.66732   0.00000  Uiso   1.00
C1547  C     0.43876   0.81988   0.87940   0.00000  Uiso   1.00
C1548  C     0.56217   0.85071   0.62055   0.00000  Uiso   1.00
C1549  C     0.37187   0.76408   0.93542   0.00000  Uiso   1.00
C1550  C     0.64621   0.86665   0.55649   0.00000  Uiso   1.00
C1551  C     0.38516   0.78042   0.89319   0.00000  Uiso   1.00
C1552  C     0.62692   0.86212   0.60111   0.00000  Uiso   1.00
C1553  C     0.47547   0.84554   0.90912   0.00000  Uiso   1.00
C1554  C     0.51883   0.85195   0.59513   0.00000  Uiso   1.00
C1555  C     0.46843   0.82357   0.94924   0.00000  Uiso   1.00
C1556  C     0.53640   0.84724   0.54934   0.00000  Uiso   1.00
C1557  C     0.41208   0.78570   0.96377   0.00000  Uiso   1.00
C1558  C     0.60194   0.85995   0.53040   0.00000  Uiso   1.00
C1559  C     0.51336   0.83948   0.97637   0.00000  Uiso   1.00
C1560  C     0.49217   0.82989   0.52173   0.00000  Uiso   1.00
Cu1561 Cu    0.44071   0.82775   0.74516   0.00000  Uiso   1.00
Cu1562 Cu    0.55929   0.83892   0.75483   0.00000  Uiso   1.00
H1563  H     0.66334   0.73375   0.94535   0.00000  Uiso   1.00
H1564  H     0.36317   0.87457   0.54268   0.00000  Uiso   1.00
H1565  H     0.33935   0.87997   0.77570   0.00000  Uiso   1.00
H1566  H     0.66180   0.78866   0.72123   0.00000  Uiso   1.00
N1567  N     0.64839   0.84735   0.76212   0.00000  Uiso   1.00
N1568  N     0.35161   0.81932   0.73788   0.00000  Uiso   1.00
O1569  O     0.46148   0.90476   0.74686   0.00000  Uiso   1.00
O1570  O     0.53852   0.76191   0.75314   0.00000  Uiso   1.00
O1571  O     0.56163   0.91420   0.75503   0.00000  Uiso   1.00
O1572  O     0.43837   0.75247   0.74497   0.00000  Uiso   1.00
O1573  O     0.42185   0.82597   0.80854   0.00000  Uiso   1.00
O1574  O     0.57815   0.84070   0.69146   0.00000  Uiso   1.00
O1575  O     0.52199   0.83540   0.81671   0.00000  Uiso   1.00
O1576  O     0.47801   0.83126   0.68329   0.00000  Uiso   1.00
O1577  O     0.33389   0.74309   0.52328   0.00000  Uiso   1.00
H1578  H     0.66552   0.70901   0.50756   0.00000  Uiso   1.00
O1579  O     0.35316   0.87415   0.96668   0.00000  Uiso   1.00
H1580  H     0.37495   0.90576   0.98091   0.00000  Uiso   1.00
O1581  O     0.46533   0.86934   0.61390   0.00000  Uiso   1.00
H1582  H     0.47406   0.89371   0.63840   0.00000  Uiso   1.00
O1583  O     0.50939   0.89584   0.90307   0.00000  Uiso   1.00
H1584  H     0.49954   0.90962   0.87845   0.00000  Uiso   1.00
O1585  O     0.33882   0.86701   0.62498   0.00000  Uiso   1.00
C1586  C     0.35414   0.91805   0.64233   0.00000  Uiso   1.00
H1587  H     0.37527   0.91652   0.67020   0.00000  Uiso   1.00
H1588  H     0.64469   0.93348   0.65636   0.00000  Uiso   1.00
C1589  C     0.40185   0.95392   0.60836   0.00000  Uiso   1.00
H1590  H     0.43033   0.93214   0.58320   0.00000  Uiso   1.00
H1591  H     0.37534   0.97123   0.59103   0.00000  Uiso   1.00
C1592  C     0.44734   0.99586   0.62891   0.00000  Uiso   1.00
H1593  H     0.42088   0.68383   0.65574   0.00000  Uiso   1.00
H1594  H     0.47787   0.68975   0.60402   0.00000  Uiso   1.00
H1595  H     0.47838   0.97857   0.64234   0.00000  Uiso   1.00
O1596  O     0.34997   0.75458   0.86379   0.00000  Uiso   1.00
C1597  C     0.61884   0.75702   0.87755   0.00000  Uiso   1.00
H1598  H     0.60873   0.78126   0.85496   0.00000  Uiso   1.00
H1599  H     0.60575   0.77396   0.91094   0.00000  Uiso   1.00
C1600  C     0.57668   0.70284   0.87597   0.00000  Uiso   1.00
H1601  H     0.58741   0.68482   0.84287   0.00000  Uiso   1.00
H1602  H     0.58647   0.67916   0.89889   0.00000  Uiso   1.00
C1603  C     0.50674   0.70369   0.88898   0.00000  Uiso   1.00
H1604  H     0.49547   0.72188   0.92197   0.00000  Uiso   1.00
H1605  H     0.47764   0.99693   0.88965   0.00000  Uiso   1.00
H1606  H     0.49459   0.72522   0.86542   0.00000  Uiso   1.00
O1607  O     0.40139   0.79890   0.58062   0.00000  Uiso   1.00
C1608  C     0.37974   0.74999   0.59859   0.00000  Uiso   1.00
H1609  H     0.40900   0.74932   0.62186   0.00000  Uiso   1.00
H1610  H     0.38430   0.71736   0.57448   0.00000  Uiso   1.00
C1611  C     0.64437   0.74490   0.62403   0.00000  Uiso   1.00
H1612  H     0.64305   0.77570   0.64999   0.00000  Uiso   1.00
H1613  H     0.61419   0.74991   0.60250   0.00000  Uiso   1.00
C1614  C     0.61614   0.69350   0.64529   0.00000  Uiso   1.00
H1615  H     0.61196   0.99488   0.62029   0.00000  Uiso   1.00
H1616  H     0.56814   0.69386   0.66511   0.00000  Uiso   1.00
H1617  H     0.64534   0.68772   0.66718   0.00000  Uiso   1.00
O1618  O     0.60314   0.86613   0.91497   0.00000  Uiso   1.00
C1619  C     0.63912   0.91716   0.90607   0.00000  Uiso   1.00
H1620  H     0.35117   0.92597   0.91627   0.00000  Uiso   1.00
H1621  H     0.61210   0.94617   0.92229   0.00000  Uiso   1.00
C1622  C     0.65681   0.92270   0.85730   0.00000  Uiso   1.00
H1623  H     0.34459   0.88984   0.84273   0.00000  Uiso   1.00
H1624  H     0.61378   0.92061   0.84508   0.00000  Uiso   1.00
C1625  C     0.37189   0.97298   0.84416   0.00000  Uiso   1.00
H1626  H     0.37105   0.66892   0.87140   0.00000  Uiso   1.00
H1627  H     0.36130   0.98875   0.81661   0.00000  Uiso   1.00
H1628  H     0.42022   0.96574   0.83410   0.00000  Uiso   1.00
O1629  O     0.57984   0.68808   0.76008   0.00000  Uiso   1.00
H1630  H     0.60941   0.66731   0.76302   0.00000  Uiso   1.00
O1631  O     0.42250   0.97860   0.73620   0.00000  Uiso   1.00
H1632  H     0.39311   0.99933   0.73288   0.00000  Uiso   1.00
C1633  C     0.84879   0.93346   0.75114   0.00000  Uiso   1.00
C1634  C     0.81825   0.73320   0.74819   0.00000  Uiso   1.00
C1635  C     0.76335   0.79839   0.53694   0.00000  Uiso   1.00
C1636  C     0.91277   0.86065   0.95924   0.00000  Uiso   1.00
C1637  C     0.72652   0.77344   0.50746   0.00000  Uiso   1.00
C1638  C     0.95624   0.86590   0.98575   0.00000  Uiso   1.00
C1639  C     0.85734   0.98963   0.75223   0.00000  Uiso   1.00
C1640  C     0.81052   0.67704   0.74583   0.00000  Uiso   1.00
C1641  C     0.79516   0.82944   0.83290   0.00000  Uiso   1.00
C1642  C     0.87196   0.84049   0.66732   0.00000  Uiso   1.00
C1643  C     0.77209   0.81988   0.87940   0.00000  Uiso   1.00
C1644  C     0.89550   0.85071   0.62055   0.00000  Uiso   1.00
C1645  C     0.70520   0.76408   0.93542   0.00000  Uiso   1.00
C1646  C     0.97954   0.86665   0.55649   0.00000  Uiso   1.00
C1647  C     0.71849   0.78042   0.89319   0.00000  Uiso   1.00
C1648  C     0.96025   0.86212   0.60111   0.00000  Uiso   1.00
C1649  C     0.80880   0.84554   0.90912   0.00000  Uiso   1.00
C1650  C     0.85217   0.85195   0.59513   0.00000  Uiso   1.00
C1651  C     0.80176   0.82357   0.94924   0.00000  Uiso   1.00
C1652  C     0.86973   0.84724   0.54934   0.00000  Uiso   1.00
C1653  C     0.74541   0.78570   0.96377   0.00000  Uiso   1.00
C1654  C     0.93527   0.85995   0.53040   0.00000  Uiso   1.00
C1655  C     0.84669   0.83948   0.97637   0.00000  Uiso   1.00
C1656  C     0.82550   0.82989   0.52173   0.00000  Uiso   1.00
Cu1657 Cu    0.77404   0.82775   0.74516   0.00000  Uiso   1.00
Cu1658 Cu    0.89263   0.83892   0.75483   0.00000  Uiso   1.00
H1659  H     0.99667   0.73375   0.94535   0.00000  Uiso   1.00
H1660  H     0.69650   0.87457   0.54268   0.00000  Uiso   1.00
H1661  H     0.67268   0.87997   0.77570   0.00000  Uiso   1.00
H1662  H     0.99514   0.78866   0.72123   0.00000  Uiso   1.00
N1663  N     0.98173   0.84735   0.76212   0.00000  Uiso   1.00
N1664  N     0.68494   0.81932   0.73788   0.00000  Uiso   1.00
O1665  O     0.79482   0.90476   0.74686   0.00000  Uiso   1.00
O1666  O     0.87185   0.76191   0.75314   0.00000  Uiso   1.00
O1667  O     0.89496   0.91420   0.75503   0.00000  Uiso   1.00
O1668  O     0.77171   0.75247   0.74497   0.00000  Uiso   1.00
O1669  O     0.75518   0.82597   0.80854   0.00000  Uiso   1.00
O1670  O     0.91149   0.84070   0.69146   0.00000  Uiso   1.00
O1671  O     0.85532   0.83540   0.81671   0.00000  Uiso   1.00
O1672  O     0.81134   0.83126   0.68329   0.00000  Uiso   1.00
O1673  O     0.66723   0.74309   0.52328   0.00000  Uiso   1.00
H1674  H     0.99885   0.70901   0.50756   0.00000  Uiso   1.00
O1675  O     0.68649   0.87415   0.96668   0.00000  Uiso   1.00
H1676  H     0.70829   0.90576   0.98091   0.00000  Uiso   1.00
O1677  O     0.79866   0.86934   0.61390   0.00000  Uiso   1.00
H1678  H     0.80740   0.89371   0.63840   0.00000  Uiso   1.00
O1679  O     0.84273   0.89584   0.90307   0.00000  Uiso   1.00
H1680  H     0.83287   0.90962   0.87845   0.00000  Uiso   1.00
O1681  O     0.67216   0.86701   0.62498   0.00000  Uiso   1.00
C1682  C     0.68747   0.91805   0.64233   0.00000  Uiso   1.00
H1683  H     0.70860   0.91652   0.67020   0.00000  Uiso   1.00
H1684  H     0.97802   0.93348   0.65636   0.00000  Uiso   1.00
C1685  C     0.73518   0.95392   0.60836   0.00000  Uiso   1.00
H1686  H     0.76366   0.93214   0.58320   0.00000  Uiso   1.00
H1687  H     0.70867   0.97123   0.59103   0.00000  Uiso   1.00
C1688  C     0.78067   0.99586   0.62891   0.00000  Uiso   1.00
H1689  H     0.75421   0.68383   0.65574   0.00000  Uiso   1.00
H1690  H     0.81120   0.68975   0.60402   0.00000  Uiso   1.00
H1691  H     0.81171   0.97857   0.64234   0.00000  Uiso   1.00
O1692  O     0.68331   0.75458   0.86379   0.00000  Uiso   1.00
C1693  C     0.95217   0.75702   0.87755   0.00000  Uiso   1.00
H1694  H     0.94206   0.78126   0.85496   0.00000  Uiso   1.00
H1695  H     0.93909   0.77396   0.91094   0.00000  Uiso   1.00
C1696  C     0.91001   0.70284   0.87597   0.00000  Uiso   1.00
H1697  H     0.92075   0.68482   0.84287   0.00000  Uiso   1.00
H1698  H     0.91980   0.67916   0.89889   0.00000  Uiso   1.00
C1699  C     0.84007   0.70369   0.88898   0.00000  Uiso   1.00
H1700  H     0.82880   0.72188   0.92197   0.00000  Uiso   1.00
H1701  H     0.81098   0.99693   0.88965   0.00000  Uiso   1.00
H1702  H     0.82793   0.72522   0.86542   0.00000  Uiso   1.00
O1703  O     0.73472   0.79890   0.58062   0.00000  Uiso   1.00
C1704  C     0.71307   0.74999   0.59859   0.00000  Uiso   1.00
H1705  H     0.74234   0.74932   0.62186   0.00000  Uiso   1.00
H1706  H     0.71764   0.71736   0.57448   0.00000  Uiso   1.00
C1707  C     0.97770   0.74490   0.62403   0.00000  Uiso   1.00
H1708  H     0.97639   0.77570   0.64999   0.00000  Uiso   1.00
H1709  H     0.94752   0.74991   0.60250   0.00000  Uiso   1.00
C1710  C     0.94948   0.69350   0.64529   0.00000  Uiso   1.00
H1711  H     0.94529   0.99488   0.62029   0.00000  Uiso   1.00
H1712  H     0.90148   0.69386   0.66511   0.00000  Uiso   1.00
H1713  H     0.97867   0.68772   0.66718   0.00000  Uiso   1.00
O1714  O     0.93647   0.86613   0.91497   0.00000  Uiso   1.00
C1715  C     0.97245   0.91716   0.90607   0.00000  Uiso   1.00
H1716  H     0.68450   0.92597   0.91627   0.00000  Uiso   1.00
H1717  H     0.94543   0.94617   0.92229   0.00000  Uiso   1.00
C1718  C     0.99014   0.92270   0.85730   0.00000  Uiso   1.00
H1719  H     0.67792   0.88984   0.84273   0.00000  Uiso   1.00
H1720  H     0.94711   0.92061   0.84508   0.00000  Uiso   1.00
C1721  C     0.70522   0.97298   0.84416   0.00000  Uiso   1.00
H1722  H     0.70439   0.66892   0.87140   0.00000  Uiso   1.00
H1723  H     0.69464   0.98875   0.81661   0.00000  Uiso   1.00
H1724  H     0.75355   0.96574   0.83410   0.00000  Uiso   1.00
O1725  O     0.91317   0.68808   0.76008   0.00000  Uiso   1.00
H1726  H     0.94274   0.66731   0.76302   0.00000  Uiso   1.00
O1727  O     0.75584   0.97860   0.73620   0.00000  Uiso   1.00
H1728  H     0.72644   0.99933   0.73288   0.00000  Uiso   1.00
loop_
_geom_bond_atom_site_label_1
_geom_bond_atom_site_label_2
_geom_bond_distance
_geom_bond_site_symmetry_2
_ccdc_geom_bond_type
C1     O33     1.291   .     A
C1     C7      1.466   .     S
C1     O35     1.299   .     A
C2     O34     1.290   .     A
C2     O36     1.300   .     A
C2     C8      1.467   .     S
C3     O71     1.382   .     S
C3     C24     1.433   .     A
C3     C5      1.407   .     A
C4     C23     1.435   .     A
C4     C6      1.409   .     A
C4     O82     1.388   .     S
C5     O41     1.377   .     S
C5     C885    1.399   1_554 S
C6     C886    1.396   .     S
C6     O139    1.375   .     S
C7     C296    1.364   .     S
C7     O381    1.389   .     S
C8     C583    1.364   1_545 S
C8     O671    1.388   1_545 S
C9     O39     1.294   .     A
C9     O37     1.300   .     A
C9     C11     1.470   .     S
C10    O40     1.297   .     A
C10    C12     1.482   .     S
C10    O38     1.303   .     A
C11    C15     1.399   .     A
C11    C17     1.417   .     A
C12    C16     1.399   .     A
C12    C18     1.413   .     A
C13    C21     1.410   .     A
C13    C15     1.395   .     A
C13    H219    1.081   1_455 S
C14    C16     1.388   .     A
C14    C22     1.408   .     A
C14    H124    1.079   .     S
C15    O60     1.389   .     S
C16    O145    1.381   .     S
C17    O47     1.379   .     S
C17    C19     1.418   .     A
C18    C20     1.415   .     A
C18    O45     1.370   .     S
C19    C21     1.418   .     A
C19    C23     1.439   .     A
C20    C24     1.442   .     A
C20    C22     1.412   .     A
C21    C869    1.399   .     S
C22    C870    1.396   1_554 S
C23    C888    1.434   .     S
C24    C887    1.434   1_554 S
Cu25   O40     1.944   .     S
Cu25   O37     1.960   .     S
Cu25   N32     2.017   .     S
Cu25   Cu26    2.684   .     S
Cu25   O36     2.003   .     S
Cu25   O33     1.996   .     S
Cu26   O39     1.944   .     S
Cu26   O34     1.996   .     S
Cu26   N31     2.017   .     S
Cu26   O38     1.960   .     S
Cu26   O35     2.003   .     S
H27    C109    1.081   .     S
H28    C206    1.079   1_455 S
H29    N223    1.023   1_455 S
H30    N128    1.028   .     S
N31    H125    1.023   .     S
N31    N128    1.306   .     S
N32    H222    1.028   1_455 S
N32    N223    1.306   1_455 S
O41    H234    0.991   1_455 S
H42    O137    0.991   .     S
O43    H44     0.992   .     S
O43    C198    1.375   1_455 S
O45    H46     0.990   .     S
O47    H48     0.991   .     S
O49    C50     1.413   .     S
O49    C208    1.381   1_455 S
C50    C53     1.540   .     S
C50    H51     1.110   .     S
C50    H244    1.112   1_455 S
H52    C146    1.112   .     S
C53    H54     1.108   .     S
C53    H55     1.104   .     S
C53    C56     1.527   .     S
C56    H59     1.106   .     S
C56    H345    1.108   .     S
C56    H346    1.110   .     S
H57    C632    1.108   1_545 S
H58    C632    1.110   1_545 S
O60    C253    1.417   1_455 S
C61    H63     1.112   .     S
C61    C64     1.525   .     S
C61    H62     1.112   .     S
C61    O156    1.417   .     S
C64    C67     1.523   .     S
C64    H66     1.106   .     S
C64    H65     1.109   .     S
C67    H68     1.109   .     S
C67    H70     1.111   .     S
C67    H645    1.108   1_545 S
H69    C355    1.108   .     S
O71    C72     1.407   .     S
C72    H74     1.110   .     S
C72    H73     1.105   .     S
C72    C267    1.533   1_455 S
C75    H76     1.106   .     S
C75    H77     1.110   .     S
C75    C78     1.517   .     S
C75    C168    1.533   .     S
C78    H81     1.109   .     S
C78    H80     1.107   .     S
C78    H655    1.110   1_545 S
H79    C366    1.110   .     S
O82    C83     1.420   .     S
C83    H85     1.111   .     S
C83    C86     1.519   .     S
C83    H180    1.103   .     S
H84    C275    1.103   1_455 S
C86    H88     1.110   .     S
C86    H183    1.108   .     S
C86    C185    1.527   .     S
H87    C278    1.108   1_455 S
C89    H91     1.109   .     S
C89    H92     1.110   .     S
C89    C278    1.527   1_455 S
C89    H378    1.108   .     S
H90    C665    1.108   1_545 S
O93    H94     0.989   .     S
O93    C583    1.389   1_545 S
O95    H96     0.989   .     S
O95    C296    1.388   .     S
C97    O129    1.291   .     A
C97    C103    1.466   .     S
C97    O131    1.299   .     A
C98    O130    1.290   .     A
C98    O132    1.300   .     A
C98    C104    1.467   .     S
C99    O167    1.382   .     S
C99    C120    1.433   .     A
C99    C101    1.407   .     A
C100   C119    1.435   .     A
C100   C102    1.409   .     A
C100   O178    1.388   .     S
C101   O137    1.377   .     S
C101   C981    1.399   1_554 S
C102   C982    1.396   .     S
C102   O235    1.375   .     S
C103   C392    1.364   .     S
C103   O477    1.389   .     S
C104   C679    1.364   1_545 S
C104   O767    1.388   1_545 S
C105   O135    1.294   .     A
C105   O133    1.300   .     A
C105   C107    1.470   .     S
C106   O136    1.297   .     A
C106   C108    1.482   .     S
C106   O134    1.303   .     A
C107   C111    1.399   .     A
C107   C113    1.417   .     A
C108   C112    1.399   .     A
C108   C114    1.413   .     A
C109   C117    1.410   .     A
C109   C111    1.395   .     A
C110   C112    1.388   .     A
C110   C118    1.408   .     A
C110   H220    1.079   .     S
C111   O156    1.389   .     S
C112   O241    1.381   .     S
C113   O143    1.379   .     S
C113   C115    1.418   .     A
C114   C116    1.415   .     A
C114   O141    1.370   .     S
C115   C117    1.418   .     A
C115   C119    1.439   .     A
C116   C120    1.442   .     A
C116   C118    1.412   .     A
C117   C965    1.399   .     S
C118   C966    1.396   1_554 S
C119   C984    1.434   .     S
C120   C983    1.434   1_554 S
Cu121  O136    1.944   .     S
Cu121  O133    1.960   .     S
Cu121  N128    2.017   .     S
Cu121  Cu122   2.684   .     S
Cu121  O132    2.003   .     S
Cu121  O129    1.996   .     S
Cu122  O135    1.944   .     S
Cu122  O130    1.996   .     S
Cu122  N127    2.017   .     S
Cu122  O134    1.960   .     S
Cu122  O131    2.003   .     S
H123   C205    1.081   .     S
H126   N224    1.028   .     S
N127   H221    1.023   .     S
N127   N224    1.306   .     S
H138   O233    0.991   .     S
O139   H140    0.992   .     S
O141   H142    0.990   .     S
O143   H144    0.991   .     S
O145   C146    1.413   .     S
C146   C149    1.540   .     S
C146   H147    1.110   .     S
H148   C242    1.112   .     S
C149   H150    1.108   .     S
C149   H151    1.104   .     S
C149   C152    1.527   .     S
C152   H155    1.106   .     S
C152   H441    1.108   .     S
C152   H442    1.110   .     S
H153   C728    1.108   1_545 S
H154   C728    1.110   1_545 S
C157   H159    1.112   .     S
C157   C160    1.525   .     S
C157   H158    1.112   .     S
C157   O252    1.417   .     S
C160   C163    1.523   .     S
C160   H162    1.106   .     S
C160   H161    1.109   .     S
C163   H164    1.109   .     S
C163   H166    1.111   .     S
C163   H741    1.108   1_545 S
H165   C451    1.108   .     S
O167   C168    1.407   .     S
C168   H170    1.110   .     S
C168   H169    1.105   .     S
C171   H172    1.106   .     S
C171   H173    1.110   .     S
C171   C174    1.517   .     S
C171   C264    1.533   .     S
C174   H177    1.109   .     S
C174   H176    1.107   .     S
C174   H751    1.110   1_545 S
H175   C462    1.110   .     S
O178   C179    1.420   .     S
C179   H181    1.111   .     S
C179   C182    1.519   .     S
C179   H276    1.103   .     S
C182   H184    1.110   .     S
C182   H279    1.108   .     S
C182   C281    1.527   .     S
C185   H187    1.109   .     S
C185   H188    1.110   .     S
C185   H474    1.108   .     S
H186   C761    1.108   1_545 S
O189   H190    0.989   .     S
O189   C679    1.389   1_545 S
O191   H192    0.989   .     S
O191   C392    1.388   .     S
C193   O225    1.291   .     A
C193   C199    1.466   .     S
C193   O227    1.299   .     A
C194   O226    1.290   .     A
C194   O228    1.300   .     A
C194   C200    1.467   .     S
C195   O263    1.382   .     S
C195   C216    1.433   .     A
C195   C197    1.407   .     A
C196   C215    1.435   .     A
C196   C198    1.409   .     A
C196   O274    1.388   .     S
C197   O233    1.377   .     S
C197   C1077   1.399   1_554 S
C198   C1078   1.396   .     S
C198   O43     1.375   1_655 S
C199   C488    1.364   .     S
C199   O573    1.389   .     S
C200   C775    1.364   1_545 S
C200   O863    1.388   1_545 S
C201   O231    1.294   .     A
C201   O229    1.300   .     A
C201   C203    1.470   .     S
C202   O232    1.297   .     A
C202   C204    1.482   .     S
C202   O230    1.303   .     A
C203   C207    1.399   .     A
C203   C209    1.417   .     A
C204   C208    1.399   .     A
C204   C210    1.413   .     A
C205   C213    1.410   .     A
C205   C207    1.395   .     A
C206   C208    1.388   .     A
C206   C214    1.408   .     A
C206   H28     1.079   1_655 S
C207   O252    1.389   .     S
C208   O49     1.381   1_655 S
C209   O239    1.379   .     S
C209   C211    1.418   .     A
C210   C212    1.415   .     A
C210   O237    1.370   .     S
C211   C213    1.418   .     A
C211   C215    1.439   .     A
C212   C216    1.442   .     A
C212   C214    1.412   .     A
C213   C1061   1.399   .     S
C214   C1062   1.396   1_554 S
C215   C1080   1.434   .     S
C216   C1079   1.434   1_554 S
Cu217  O232    1.944   .     S
Cu217  O229    1.960   .     S
Cu217  N224    2.017   .     S
Cu217  Cu218   2.684   .     S
Cu217  O228    2.003   .     S
Cu217  O225    1.996   .     S
Cu218  O231    1.944   .     S
Cu218  O226    1.996   .     S
Cu218  N223    2.017   .     S
Cu218  O230    1.960   .     S
Cu218  O227    2.003   .     S
H219   C13     1.081   1_655 S
H222   N32     1.028   1_655 S
N223   H29     1.023   1_655 S
N223   N32     1.306   1_655 S
H234   O41     0.991   1_655 S
O235   H236    0.992   .     S
O237   H238    0.990   .     S
O239   H240    0.991   .     S
O241   C242    1.413   .     S
C242   C245    1.540   .     S
C242   H243    1.110   .     S
H244   C50     1.112   1_655 S
C245   H246    1.108   .     S
C245   H247    1.104   .     S
C245   C248    1.527   .     S
C248   H251    1.106   .     S
C248   H537    1.108   .     S
C248   H538    1.110   .     S
H249   C824    1.108   1_545 S
H250   C824    1.110   1_545 S
C253   H255    1.112   .     S
C253   C256    1.525   .     S
C253   H254    1.112   .     S
C253   O60     1.417   1_655 S
C256   C259    1.523   .     S
C256   H258    1.106   .     S
C256   H257    1.109   .     S
C259   H260    1.109   .     S
C259   H262    1.111   .     S
C259   H837    1.108   1_545 S
H261   C547    1.108   .     S
O263   C264    1.407   .     S
C264   H266    1.110   .     S
C264   H265    1.105   .     S
C267   H268    1.106   .     S
C267   H269    1.110   .     S
C267   C270    1.517   .     S
C267   C72     1.533   1_655 S
C270   H273    1.109   .     S
C270   H272    1.107   .     S
C270   H847    1.110   1_545 S
H271   C558    1.110   .     S
O274   C275    1.420   .     S
C275   H277    1.111   .     S
C275   C278    1.519   .     S
C275   H84     1.103   1_655 S
C278   H280    1.110   .     S
C278   H87     1.108   1_655 S
C278   C89     1.527   1_655 S
C281   H283    1.109   .     S
C281   H284    1.110   .     S
C281   H570    1.108   .     S
H282   C857    1.108   1_545 S
O285   H286    0.989   .     S
O285   C775    1.389   1_545 S
O287   H288    0.989   .     S
O287   C488    1.388   .     S
C289   O321    1.291   .     A
C289   C295    1.466   .     S
C289   O323    1.299   .     A
C290   O322    1.290   .     A
C290   O324    1.300   .     A
C290   C296    1.467   .     S
C291   O359    1.382   .     S
C291   C312    1.433   .     A
C291   C293    1.407   .     A
C292   C311    1.435   .     A
C292   C294    1.409   .     A
C292   O370    1.388   .     S
C293   O329    1.377   .     S
C293   C1173   1.399   1_554 S
C294   C1174   1.396   .     S
C294   O427    1.375   .     S
C295   C584    1.364   .     S
C295   O669    1.389   .     S
C297   O327    1.294   .     A
C297   O325    1.300   .     A
C297   C299    1.470   .     S
C298   O328    1.297   .     A
C298   C300    1.482   .     S
C298   O326    1.303   .     A
C299   C303    1.399   .     A
C299   C305    1.417   .     A
C300   C304    1.399   .     A
C300   C306    1.413   .     A
C301   C309    1.410   .     A
C301   C303    1.395   .     A
C301   H507    1.081   1_455 S
C302   C304    1.388   .     A
C302   C310    1.408   .     A
C302   H412    1.079   .     S
C303   O348    1.389   .     S
C304   O433    1.381   .     S
C305   O335    1.379   .     S
C305   C307    1.418   .     A
C306   C308    1.415   .     A
C306   O333    1.370   .     S
C307   C309    1.418   .     A
C307   C311    1.439   .     A
C308   C312    1.442   .     A
C308   C310    1.412   .     A
C309   C1157   1.399   .     S
C310   C1158   1.396   1_554 S
C311   C1176   1.434   .     S
C312   C1175   1.434   1_554 S
Cu313  O328    1.944   .     S
Cu313  O325    1.960   .     S
Cu313  N320    2.017   .     S
Cu313  Cu314   2.684   .     S
Cu313  O324    2.003   .     S
Cu313  O321    1.996   .     S
Cu314  O327    1.944   .     S
Cu314  O322    1.996   .     S
Cu314  N319    2.017   .     S
Cu314  O326    1.960   .     S
Cu314  O323    2.003   .     S
H315   C397    1.081   .     S
H316   C494    1.079   1_455 S
H317   N511    1.023   1_455 S
H318   N416    1.028   .     S
N319   H413    1.023   .     S
N319   N416    1.306   .     S
N320   H510    1.028   1_455 S
N320   N511    1.306   1_455 S
O329   H522    0.991   1_455 S
H330   O425    0.991   .     S
O331   H332    0.992   .     S
O331   C486    1.375   1_455 S
O333   H334    0.990   .     S
O335   H336    0.991   .     S
O337   C338    1.413   .     S
O337   C496    1.381   1_455 S
C338   C341    1.540   .     S
C338   H339    1.110   .     S
C338   H532    1.112   1_455 S
H340   C434    1.112   .     S
C341   H342    1.108   .     S
C341   H343    1.104   .     S
C341   C344    1.527   .     S
C344   H347    1.106   .     S
C344   H633    1.108   .     S
C344   H634    1.110   .     S
O348   C541    1.417   1_455 S
C349   H351    1.112   .     S
C349   C352    1.525   .     S
C349   H350    1.112   .     S
C349   O444    1.417   .     S
C352   C355    1.523   .     S
C352   H354    1.106   .     S
C352   H353    1.109   .     S
C355   H356    1.109   .     S
C355   H358    1.111   .     S
H357   C643    1.108   .     S
O359   C360    1.407   .     S
C360   H362    1.110   .     S
C360   H361    1.105   .     S
C360   C555    1.533   1_455 S
C363   H364    1.106   .     S
C363   H365    1.110   .     S
C363   C366    1.517   .     S
C363   C456    1.533   .     S
C366   H369    1.109   .     S
C366   H368    1.107   .     S
H367   C654    1.110   .     S
O370   C371    1.420   .     S
C371   H373    1.111   .     S
C371   C374    1.519   .     S
C371   H468    1.103   .     S
H372   C563    1.103   1_455 S
C374   H376    1.110   .     S
C374   H471    1.108   .     S
C374   C473    1.527   .     S
H375   C566    1.108   1_455 S
C377   H379    1.109   .     S
C377   H380    1.110   .     S
C377   C566    1.527   1_455 S
C377   H666    1.108   .     S
O381   H382    0.989   .     S
O383   H384    0.989   .     S
O383   C584    1.388   .     S
C385   O417    1.291   .     A
C385   C391    1.466   .     S
C385   O419    1.299   .     A
C386   O418    1.290   .     A
C386   O420    1.300   .     A
C386   C392    1.467   .     S
C387   O455    1.382   .     S
C387   C408    1.433   .     A
C387   C389    1.407   .     A
C388   C407    1.435   .     A
C388   C390    1.409   .     A
C388   O466    1.388   .     S
C389   O425    1.377   .     S
C389   C1269   1.399   1_554 S
C390   C1270   1.396   .     S
C390   O523    1.375   .     S
C391   C680    1.364   .     S
C391   O765    1.389   .     S
C393   O423    1.294   .     A
C393   O421    1.300   .     A
C393   C395    1.470   .     S
C394   O424    1.297   .     A
C394   C396    1.482   .     S
C394   O422    1.303   .     A
C395   C399    1.399   .     A
C395   C401    1.417   .     A
C396   C400    1.399   .     A
C396   C402    1.413   .     A
C397   C405    1.410   .     A
C397   C399    1.395   .     A
C398   C400    1.388   .     A
C398   C406    1.408   .     A
C398   H508    1.079   .     S
C399   O444    1.389   .     S
C400   O529    1.381   .     S
C401   O431    1.379   .     S
C401   C403    1.418   .     A
C402   C404    1.415   .     A
C402   O429    1.370   .     S
C403   C405    1.418   .     A
C403   C407    1.439   .     A
C404   C408    1.442   .     A
C404   C406    1.412   .     A
C405   C1253   1.399   .     S
C406   C1254   1.396   1_554 S
C407   C1272   1.434   .     S
C408   C1271   1.434   1_554 S
Cu409  O424    1.944   .     S
Cu409  O421    1.960   .     S
Cu409  N416    2.017   .     S
Cu409  Cu410   2.684   .     S
Cu409  O420    2.003   .     S
Cu409  O417    1.996   .     S
Cu410  O423    1.944   .     S
Cu410  O418    1.996   .     S
Cu410  N415    2.017   .     S
Cu410  O422    1.960   .     S
Cu410  O419    2.003   .     S
H411   C493    1.081   .     S
H414   N512    1.028   .     S
N415   H509    1.023   .     S
N415   N512    1.306   .     S
H426   O521    0.991   .     S
O427   H428    0.992   .     S
O429   H430    0.990   .     S
O431   H432    0.991   .     S
O433   C434    1.413   .     S
C434   C437    1.540   .     S
C434   H435    1.110   .     S
H436   C530    1.112   .     S
C437   H438    1.108   .     S
C437   H439    1.104   .     S
C437   C440    1.527   .     S
C440   H443    1.106   .     S
C440   H729    1.108   .     S
C440   H730    1.110   .     S
C445   H447    1.112   .     S
C445   C448    1.525   .     S
C445   H446    1.112   .     S
C445   O540    1.417   .     S
C448   C451    1.523   .     S
C448   H450    1.106   .     S
C448   H449    1.109   .     S
C451   H452    1.109   .     S
C451   H454    1.111   .     S
H453   C739    1.108   .     S
O455   C456    1.407   .     S
C456   H458    1.110   .     S
C456   H457    1.105   .     S
C459   H460    1.106   .     S
C459   H461    1.110   .     S
C459   C462    1.517   .     S
C459   C552    1.533   .     S
C462   H465    1.109   .     S
C462   H464    1.107   .     S
H463   C750    1.110   .     S
O466   C467    1.420   .     S
C467   H469    1.111   .     S
C467   C470    1.519   .     S
C467   H564    1.103   .     S
C470   H472    1.110   .     S
C470   H567    1.108   .     S
C470   C569    1.527   .     S
C473   H475    1.109   .     S
C473   H476    1.110   .     S
C473   H762    1.108   .     S
O477   H478    0.989   .     S
O479   H480    0.989   .     S
O479   C680    1.388   .     S
C481   O513    1.291   .     A
C481   C487    1.466   .     S
C481   O515    1.299   .     A
C482   O514    1.290   .     A
C482   O516    1.300   .     A
C482   C488    1.467   .     S
C483   O551    1.382   .     S
C483   C504    1.433   .     A
C483   C485    1.407   .     A
C484   C503    1.435   .     A
C484   C486    1.409   .     A
C484   O562    1.388   .     S
C485   O521    1.377   .     S
C485   C1365   1.399   1_554 S
C486   C1366   1.396   .     S
C486   O331    1.375   1_655 S
C487   C776    1.364   .     S
C487   O861    1.389   .     S
C489   O519    1.294   .     A
C489   O517    1.300   .     A
C489   C491    1.470   .     S
C490   O520    1.297   .     A
C490   C492    1.482   .     S
C490   O518    1.303   .     A
C491   C495    1.399   .     A
C491   C497    1.417   .     A
C492   C496    1.399   .     A
C492   C498    1.413   .     A
C493   C501    1.410   .     A
C493   C495    1.395   .     A
C494   C496    1.388   .     A
C494   C502    1.408   .     A
C494   H316    1.079   1_655 S
C495   O540    1.389   .     S
C496   O337    1.381   1_655 S
C497   O527    1.379   .     S
C497   C499    1.418   .     A
C498   C500    1.415   .     A
C498   O525    1.370   .     S
C499   C501    1.418   .     A
C499   C503    1.439   .     A
C500   C504    1.442   .     A
C500   C502    1.412   .     A
C501   C1349   1.399   .     S
C502   C1350   1.396   1_554 S
C503   C1368   1.434   .     S
C504   C1367   1.434   1_554 S
Cu505  O520    1.944   .     S
Cu505  O517    1.960   .     S
Cu505  N512    2.017   .     S
Cu505  Cu506   2.684   .     S
Cu505  O516    2.003   .     S
Cu505  O513    1.996   .     S
Cu506  O519    1.944   .     S
Cu506  O514    1.996   .     S
Cu506  N511    2.017   .     S
Cu506  O518    1.960   .     S
Cu506  O515    2.003   .     S
H507   C301    1.081   1_655 S
H510   N320    1.028   1_655 S
N511   H317    1.023   1_655 S
N511   N320    1.306   1_655 S
H522   O329    0.991   1_655 S
O523   H524    0.992   .     S
O525   H526    0.990   .     S
O527   H528    0.991   .     S
O529   C530    1.413   .     S
C530   C533    1.540   .     S
C530   H531    1.110   .     S
H532   C338    1.112   1_655 S
C533   H534    1.108   .     S
C533   H535    1.104   .     S
C533   C536    1.527   .     S
C536   H539    1.106   .     S
C536   H825    1.108   .     S
C536   H826    1.110   .     S
C541   H543    1.112   .     S
C541   C544    1.525   .     S
C541   H542    1.112   .     S
C541   O348    1.417   1_655 S
C544   C547    1.523   .     S
C544   H546    1.106   .     S
C544   H545    1.109   .     S
C547   H548    1.109   .     S
C547   H550    1.111   .     S
H549   C835    1.108   .     S
O551   C552    1.407   .     S
C552   H554    1.110   .     S
C552   H553    1.105   .     S
C555   H556    1.106   .     S
C555   H557    1.110   .     S
C555   C558    1.517   .     S
C555   C360    1.533   1_655 S
C558   H561    1.109   .     S
C558   H560    1.107   .     S
H559   C846    1.110   .     S
O562   C563    1.420   .     S
C563   H565    1.111   .     S
C563   C566    1.519   .     S
C563   H372    1.103   1_655 S
C566   H568    1.110   .     S
C566   H375    1.108   1_655 S
C566   C377    1.527   1_655 S
C569   H571    1.109   .     S
C569   H572    1.110   .     S
C569   H858    1.108   .     S
O573   H574    0.989   .     S
O575   H576    0.989   .     S
O575   C776    1.388   .     S
C577   O609    1.291   .     A
C577   C583    1.466   .     S
C577   O611    1.299   .     A
C578   O610    1.290   .     A
C578   O612    1.300   .     A
C578   C584    1.467   .     S
C579   O647    1.382   .     S
C579   C600    1.433   .     A
C579   C581    1.407   .     A
C580   C599    1.435   .     A
C580   C582    1.409   .     A
C580   O658    1.388   .     S
C581   O617    1.377   .     S
C581   C1461   1.399   1_554 S
C582   C1462   1.396   .     S
C582   O715    1.375   .     S
C583   C8      1.364   1_565 S
C583   O93     1.389   1_565 S
C585   O615    1.294   .     A
C585   O613    1.300   .     A
C585   C587    1.470   .     S
C586   O616    1.297   .     A
C586   C588    1.482   .     S
C586   O614    1.303   .     A
C587   C591    1.399   .     A
C587   C593    1.417   .     A
C588   C592    1.399   .     A
C588   C594    1.413   .     A
C589   C597    1.410   .     A
C589   C591    1.395   .     A
C589   H795    1.081   1_455 S
C590   C592    1.388   .     A
C590   C598    1.408   .     A
C590   H700    1.079   .     S
C591   O636    1.389   .     S
C592   O721    1.381   .     S
C593   O623    1.379   .     S
C593   C595    1.418   .     A
C594   C596    1.415   .     A
C594   O621    1.370   .     S
C595   C597    1.418   .     A
C595   C599    1.439   .     A
C596   C600    1.442   .     A
C596   C598    1.412   .     A
C597   C1445   1.399   .     S
C598   C1446   1.396   1_554 S
C599   C1464   1.434   .     S
C600   C1463   1.434   1_554 S
Cu601  O616    1.944   .     S
Cu601  O613    1.960   .     S
Cu601  N608    2.017   .     S
Cu601  Cu602   2.684   .     S
Cu601  O612    2.003   .     S
Cu601  O609    1.996   .     S
Cu602  O615    1.944   .     S
Cu602  O610    1.996   .     S
Cu602  N607    2.017   .     S
Cu602  O614    1.960   .     S
Cu602  O611    2.003   .     S
H603   C685    1.081   .     S
H604   C782    1.079   1_455 S
H605   N799    1.023   1_455 S
H606   N704    1.028   .     S
N607   H701    1.023   .     S
N607   N704    1.306   .     S
N608   H798    1.028   1_455 S
N608   N799    1.306   1_455 S
O617   H810    0.991   1_455 S
H618   O713    0.991   .     S
O619   H620    0.992   .     S
O619   C774    1.375   1_455 S
O621   H622    0.990   .     S
O623   H624    0.991   .     S
O625   C626    1.413   .     S
O625   C784    1.381   1_455 S
C626   C629    1.540   .     S
C626   H627    1.110   .     S
C626   H820    1.112   1_455 S
H628   C722    1.112   .     S
C629   H630    1.108   .     S
C629   H631    1.104   .     S
C629   C632    1.527   .     S
C632   H635    1.106   .     S
C632   H57     1.108   1_565 S
C632   H58     1.110   1_565 S
O636   C829    1.417   1_455 S
C637   H639    1.112   .     S
C637   C640    1.525   .     S
C637   H638    1.112   .     S
C637   O732    1.417   .     S
C640   C643    1.523   .     S
C640   H642    1.106   .     S
C640   H641    1.109   .     S
C643   H644    1.109   .     S
C643   H646    1.111   .     S
H645   C67     1.108   1_565 S
O647   C648    1.407   .     S
C648   H650    1.110   .     S
C648   H649    1.105   .     S
C648   C843    1.533   1_455 S
C651   H652    1.106   .     S
C651   H653    1.110   .     S
C651   C654    1.517   .     S
C651   C744    1.533   .     S
C654   H657    1.109   .     S
C654   H656    1.107   .     S
H655   C78     1.110   1_565 S
O658   C659    1.420   .     S
C659   H661    1.111   .     S
C659   C662    1.519   .     S
C659   H756    1.103   .     S
H660   C851    1.103   1_455 S
C662   H664    1.110   .     S
C662   H759    1.108   .     S
C662   C761    1.527   .     S
H663   C854    1.108   1_455 S
C665   H667    1.109   .     S
C665   H668    1.110   .     S
C665   C854    1.527   1_455 S
C665   H90     1.108   1_565 S
O669   H670    0.989   .     S
O671   H672    0.989   .     S
O671   C8      1.388   1_565 S
C673   O705    1.291   .     A
C673   C679    1.466   .     S
C673   O707    1.299   .     A
C674   O706    1.290   .     A
C674   O708    1.300   .     A
C674   C680    1.467   .     S
C675   O743    1.382   .     S
C675   C696    1.433   .     A
C675   C677    1.407   .     A
C676   C695    1.435   .     A
C676   C678    1.409   .     A
C676   O754    1.388   .     S
C677   O713    1.377   .     S
C677   C1557   1.399   1_554 S
C678   C1558   1.396   .     S
C678   O811    1.375   .     S
C679   C104    1.364   1_565 S
C679   O189    1.389   1_565 S
C681   O711    1.294   .     A
C681   O709    1.300   .     A
C681   C683    1.470   .     S
C682   O712    1.297   .     A
C682   C684    1.482   .     S
C682   O710    1.303   .     A
C683   C687    1.399   .     A
C683   C689    1.417   .     A
C684   C688    1.399   .     A
C684   C690    1.413   .     A
C685   C693    1.410   .     A
C685   C687    1.395   .     A
C686   C688    1.388   .     A
C686   C694    1.408   .     A
C686   H796    1.079   .     S
C687   O732    1.389   .     S
C688   O817    1.381   .     S
C689   O719    1.379   .     S
C689   C691    1.418   .     A
C690   C692    1.415   .     A
C690   O717    1.370   .     S
C691   C693    1.418   .     A
C691   C695    1.439   .     A
C692   C696    1.442   .     A
C692   C694    1.412   .     A
C693   C1541   1.399   .     S
C694   C1542   1.396   1_554 S
C695   C1560   1.434   .     S
C696   C1559   1.434   1_554 S
Cu697  O712    1.944   .     S
Cu697  O709    1.960   .     S
Cu697  N704    2.017   .     S
Cu697  Cu698   2.684   .     S
Cu697  O708    2.003   .     S
Cu697  O705    1.996   .     S
Cu698  O711    1.944   .     S
Cu698  O706    1.996   .     S
Cu698  N703    2.017   .     S
Cu698  O710    1.960   .     S
Cu698  O707    2.003   .     S
H699   C781    1.081   .     S
H702   N800    1.028   .     S
N703   H797    1.023   .     S
N703   N800    1.306   .     S
H714   O809    0.991   .     S
O715   H716    0.992   .     S
O717   H718    0.990   .     S
O719   H720    0.991   .     S
O721   C722    1.413   .     S
C722   C725    1.540   .     S
C722   H723    1.110   .     S
H724   C818    1.112   .     S
C725   H726    1.108   .     S
C725   H727    1.104   .     S
C725   C728    1.527   .     S
C728   H731    1.106   .     S
C728   H153    1.108   1_565 S
C728   H154    1.110   1_565 S
C733   H735    1.112   .     S
C733   C736    1.525   .     S
C733   H734    1.112   .     S
C733   O828    1.417   .     S
C736   C739    1.523   .     S
C736   H738    1.106   .     S
C736   H737    1.109   .     S
C739   H740    1.109   .     S
C739   H742    1.111   .     S
H741   C163    1.108   1_565 S
O743   C744    1.407   .     S
C744   H746    1.110   .     S
C744   H745    1.105   .     S
C747   H748    1.106   .     S
C747   H749    1.110   .     S
C747   C750    1.517   .     S
C747   C840    1.533   .     S
C750   H753    1.109   .     S
C750   H752    1.107   .     S
H751   C174    1.110   1_565 S
O754   C755    1.420   .     S
C755   H757    1.111   .     S
C755   C758    1.519   .     S
C755   H852    1.103   .     S
C758   H760    1.110   .     S
C758   H855    1.108   .     S
C758   C857    1.527   .     S
C761   H763    1.109   .     S
C761   H764    1.110   .     S
C761   H186    1.108   1_565 S
O765   H766    0.989   .     S
O767   H768    0.989   .     S
O767   C104    1.388   1_565 S
C769   O801    1.291   .     A
C769   C775    1.466   .     S
C769   O803    1.299   .     A
C770   O802    1.290   .     A
C770   O804    1.300   .     A
C770   C776    1.467   .     S
C771   O839    1.382   .     S
C771   C792    1.433   .     A
C771   C773    1.407   .     A
C772   C791    1.435   .     A
C772   C774    1.409   .     A
C772   O850    1.388   .     S
C773   O809    1.377   .     S
C773   C1653   1.399   1_554 S
C774   C1654   1.396   .     S
C774   O619    1.375   1_655 S
C775   C200    1.364   1_565 S
C775   O285    1.389   1_565 S
C777   O807    1.294   .     A
C777   O805    1.300   .     A
C777   C779    1.470   .     S
C778   O808    1.297   .     A
C778   C780    1.482   .     S
C778   O806    1.303   .     A
C779   C783    1.399   .     A
C779   C785    1.417   .     A
C780   C784    1.399   .     A
C780   C786    1.413   .     A
C781   C789    1.410   .     A
C781   C783    1.395   .     A
C782   C784    1.388   .     A
C782   C790    1.408   .     A
C782   H604    1.079   1_655 S
C783   O828    1.389   .     S
C784   O625    1.381   1_655 S
C785   O815    1.379   .     S
C785   C787    1.418   .     A
C786   C788    1.415   .     A
C786   O813    1.370   .     S
C787   C789    1.418   .     A
C787   C791    1.439   .     A
C788   C792    1.442   .     A
C788   C790    1.412   .     A
C789   C1637   1.399   .     S
C790   C1638   1.396   1_554 S
C791   C1656   1.434   .     S
C792   C1655   1.434   1_554 S
Cu793  O808    1.944   .     S
Cu793  O805    1.960   .     S
Cu793  N800    2.017   .     S
Cu793  Cu794   2.684   .     S
Cu793  O804    2.003   .     S
Cu793  O801    1.996   .     S
Cu794  O807    1.944   .     S
Cu794  O802    1.996   .     S
Cu794  N799    2.017   .     S
Cu794  O806    1.960   .     S
Cu794  O803    2.003   .     S
H795   C589    1.081   1_655 S
H798   N608    1.028   1_655 S
N799   H605    1.023   1_655 S
N799   N608    1.306   1_655 S
H810   O617    0.991   1_655 S
O811   H812    0.992   .     S
O813   H814    0.990   .     S
O815   H816    0.991   .     S
O817   C818    1.413   .     S
C818   C821    1.540   .     S
C818   H819    1.110   .     S
H820   C626    1.112   1_655 S
C821   H822    1.108   .     S
C821   H823    1.104   .     S
C821   C824    1.527   .     S
C824   H827    1.106   .     S
C824   H249    1.108   1_565 S
C824   H250    1.110   1_565 S
C829   H831    1.112   .     S
C829   C832    1.525   .     S
C829   H830    1.112   .     S
C829   O636    1.417   1_655 S
C832   C835    1.523   .     S
C832   H834    1.106   .     S
C832   H833    1.109   .     S
C835   H836    1.109   .     S
C835   H838    1.111   .     S
H837   C259    1.108   1_565 S
O839   C840    1.407   .     S
C840   H842    1.110   .     S
C840   H841    1.105   .     S
C843   H844    1.106   .     S
C843   H845    1.110   .     S
C843   C846    1.517   .     S
C843   C648    1.533   1_655 S
C846   H849    1.109   .     S
C846   H848    1.107   .     S
H847   C270    1.110   1_565 S
O850   C851    1.420   .     S
C851   H853    1.111   .     S
C851   C854    1.519   .     S
C851   H660    1.103   1_655 S
C854   H856    1.110   .     S
C854   H663    1.108   1_655 S
C854   C665    1.527   1_655 S
C857   H859    1.109   .     S
C857   H860    1.110   .     S
C857   H282    1.108   1_565 S
O861   H862    0.989   .     S
O863   H864    0.989   .     S
O863   C200    1.388   1_565 S
C865   O897    1.291   .     A
C865   C871    1.466   .     S
C865   O899    1.299   .     A
C866   O898    1.290   .     A
C866   O900    1.300   .     A
C866   C872    1.467   .     S
C867   O935    1.382   .     S
C867   C888    1.433   .     A
C867   C869    1.407   .     A
C868   C887    1.435   .     A
C868   C870    1.409   .     A
C868   O946    1.388   .     S
C869   O905    1.377   .     S
C870   C22     1.396   1_556 S
C870   O1003   1.375   .     S
C871   C1160   1.364   .     S
C871   O1245   1.389   .     S
C872   C1447   1.364   1_545 S
C872   O1535   1.388   1_545 S
C873   O903    1.294   .     A
C873   O901    1.300   .     A
C873   C875    1.470   .     S
C874   O904    1.297   .     A
C874   C876    1.482   .     S
C874   O902    1.303   .     A
C875   C879    1.399   .     A
C875   C881    1.417   .     A
C876   C880    1.399   .     A
C876   C882    1.413   .     A
C877   C885    1.410   .     A
C877   C879    1.395   .     A
C877   H1083   1.081   1_455 S
C878   C880    1.388   .     A
C878   C886    1.408   .     A
C878   H988    1.079   .     S
C879   O924    1.389   .     S
C880   O1009   1.381   .     S
C881   O911    1.379   .     S
C881   C883    1.418   .     A
C882   C884    1.415   .     A
C882   O909    1.370   .     S
C883   C885    1.418   .     A
C883   C887    1.439   .     A
C884   C888    1.442   .     A
C884   C886    1.412   .     A
C885   C5      1.399   1_556 S
C887   C24     1.434   1_556 S
Cu889  O904    1.944   .     S
Cu889  O901    1.960   .     S
Cu889  N896    2.017   .     S
Cu889  Cu890   2.684   .     S
Cu889  O900    2.003   .     S
Cu889  O897    1.996   .     S
Cu890  O903    1.944   .     S
Cu890  O898    1.996   .     S
Cu890  N895    2.017   .     S
Cu890  O902    1.960   .     S
Cu890  O899    2.003   .     S
H891   C973    1.081   .     S
H892   C1070   1.079   1_455 S
H893   N1087   1.023   1_455 S
H894   N992    1.028   .     S
N895   H989    1.023   .     S
N895   N992    1.306   .     S
N896   H1086   1.028   1_455 S
N896   N1087   1.306   1_455 S
O905   H1098   0.991   1_455 S
H906   O1001   0.991   .     S
O907   H908    0.992   .     S
O907   C1062   1.375   1_455 S
O909   H910    0.990   .     S
O911   H912    0.991   .     S
O913   C914    1.413   .     S
O913   C1072   1.381   1_455 S
C914   C917    1.540   .     S
C914   H915    1.110   .     S
C914   H1108   1.112   1_455 S
H916   C1010   1.112   .     S
C917   H918    1.108   .     S
C917   H919    1.104   .     S
C917   C920    1.527   .     S
C920   H923    1.106   .     S
C920   H1209   1.108   .     S
C920   H1210   1.110   .     S
H921   C1496   1.108   1_545 S
H922   C1496   1.110   1_545 S
O924   C1117   1.417   1_455 S
C925   H927    1.112   .     S
C925   C928    1.525   .     S
C925   H926    1.112   .     S
C925   O1020   1.417   .     S
C928   C931    1.523   .     S
C928   H930    1.106   .     S
C928   H929    1.109   .     S
C931   H932    1.109   .     S
C931   H934    1.111   .     S
C931   H1509   1.108   1_545 S
H933   C1219   1.108   .     S
O935   C936    1.407   .     S
C936   H938    1.110   .     S
C936   H937    1.105   .     S
C936   C1131   1.533   1_455 S
C939   H940    1.106   .     S
C939   H941    1.110   .     S
C939   C942    1.517   .     S
C939   C1032   1.533   .     S
C942   H945    1.109   .     S
C942   H944    1.107   .     S
C942   H1519   1.110   1_545 S
H943   C1230   1.110   .     S
O946   C947    1.420   .     S
C947   H949    1.111   .     S
C947   C950    1.519   .     S
C947   H1044   1.103   .     S
H948   C1139   1.103   1_455 S
C950   H952    1.110   .     S
C950   H1047   1.108   .     S
C950   C1049   1.527   .     S
H951   C1142   1.108   1_455 S
C953   H955    1.109   .     S
C953   H956    1.110   .     S
C953   C1142   1.527   1_455 S
C953   H1242   1.108   .     S
H954   C1529   1.108   1_545 S
O957   H958    0.989   .     S
O957   C1447   1.389   1_545 S
O959   H960    0.989   .     S
O959   C1160   1.388   .     S
C961   O993    1.291   .     A
C961   C967    1.466   .     S
C961   O995    1.299   .     A
C962   O994    1.290   .     A
C962   O996    1.300   .     A
C962   C968    1.467   .     S
C963   O1031   1.382   .     S
C963   C984    1.433   .     A
C963   C965    1.407   .     A
C964   C983    1.435   .     A
C964   C966    1.409   .     A
C964   O1042   1.388   .     S
C965   O1001   1.377   .     S
C966   C118    1.396   1_556 S
C966   O1099   1.375   .     S
C967   C1256   1.364   .     S
C967   O1341   1.389   .     S
C968   C1543   1.364   1_545 S
C968   O1631   1.388   1_545 S
C969   O999    1.294   .     A
C969   O997    1.300   .     A
C969   C971    1.470   .     S
C970   O1000   1.297   .     A
C970   C972    1.482   .     S
C970   O998    1.303   .     A
C971   C975    1.399   .     A
C971   C977    1.417   .     A
C972   C976    1.399   .     A
C972   C978    1.413   .     A
C973   C981    1.410   .     A
C973   C975    1.395   .     A
C974   C976    1.388   .     A
C974   C982    1.408   .     A
C974   H1084   1.079   .     S
C975   O1020   1.389   .     S
C976   O1105   1.381   .     S
C977   O1007   1.379   .     S
C977   C979    1.418   .     A
C978   C980    1.415   .     A
C978   O1005   1.370   .     S
C979   C981    1.418   .     A
C979   C983    1.439   .     A
C980   C984    1.442   .     A
C980   C982    1.412   .     A
C981   C101    1.399   1_556 S
C983   C120    1.434   1_556 S
Cu985  O1000   1.944   .     S
Cu985  O997    1.960   .     S
Cu985  N992    2.017   .     S
Cu985  Cu986   2.684   .     S
Cu985  O996    2.003   .     S
Cu985  O993    1.996   .     S
Cu986  O999    1.944   .     S
Cu986  O994    1.996   .     S
Cu986  N991    2.017   .     S
Cu986  O998    1.960   .     S
Cu986  O995    2.003   .     S
H987   C1069   1.081   .     S
H990   N1088   1.028   .     S
N991   H1085   1.023   .     S
N991   N1088   1.306   .     S
H1002  O1097   0.991   .     S
O1003  H1004   0.992   .     S
O1005  H1006   0.990   .     S
O1007  H1008   0.991   .     S
O1009  C1010   1.413   .     S
C1010  C1013   1.540   .     S
C1010  H1011   1.110   .     S
H1012  C1106   1.112   .     S
C1013  H1014   1.108   .     S
C1013  H1015   1.104   .     S
C1013  C1016   1.527   .     S
C1016  H1019   1.106   .     S
C1016  H1305   1.108   .     S
C1016  H1306   1.110   .     S
H1017  C1592   1.108   1_545 S
H1018  C1592   1.110   1_545 S
C1021  H1023   1.112   .     S
C1021  C1024   1.525   .     S
C1021  H1022   1.112   .     S
C1021  O1116   1.417   .     S
C1024  C1027   1.523   .     S
C1024  H1026   1.106   .     S
C1024  H1025   1.109   .     S
C1027  H1028   1.109   .     S
C1027  H1030   1.111   .     S
C1027  H1605   1.108   1_545 S
H1029  C1315   1.108   .     S
O1031  C1032   1.407   .     S
C1032  H1034   1.110   .     S
C1032  H1033   1.105   .     S
C1035  H1036   1.106   .     S
C1035  H1037   1.110   .     S
C1035  C1038   1.517   .     S
C1035  C1128   1.533   .     S
C1038  H1041   1.109   .     S
C1038  H1040   1.107   .     S
C1038  H1615   1.110   1_545 S
H1039  C1326   1.110   .     S
O1042  C1043   1.420   .     S
C1043  H1045   1.111   .     S
C1043  C1046   1.519   .     S
C1043  H1140   1.103   .     S
C1046  H1048   1.110   .     S
C1046  H1143   1.108   .     S
C1046  C1145   1.527   .     S
C1049  H1051   1.109   .     S
C1049  H1052   1.110   .     S
C1049  H1338   1.108   .     S
H1050  C1625   1.108   1_545 S
O1053  H1054   0.989   .     S
O1053  C1543   1.389   1_545 S
O1055  H1056   0.989   .     S
O1055  C1256   1.388   .     S
C1057  O1089   1.291   .     A
C1057  C1063   1.466   .     S
C1057  O1091   1.299   .     A
C1058  O1090   1.290   .     A
C1058  O1092   1.300   .     A
C1058  C1064   1.467   .     S
C1059  O1127   1.382   .     S
C1059  C1080   1.433   .     A
C1059  C1061   1.407   .     A
C1060  C1079   1.435   .     A
C1060  C1062   1.409   .     A
C1060  O1138   1.388   .     S
C1061  O1097   1.377   .     S
C1062  C214    1.396   1_556 S
C1062  O907    1.375   1_655 S
C1063  C1352   1.364   .     S
C1063  O1437   1.389   .     S
C1064  C1639   1.364   1_545 S
C1064  O1727   1.388   1_545 S
C1065  O1095   1.294   .     A
C1065  O1093   1.300   .     A
C1065  C1067   1.470   .     S
C1066  O1096   1.297   .     A
C1066  C1068   1.482   .     S
C1066  O1094   1.303   .     A
C1067  C1071   1.399   .     A
C1067  C1073   1.417   .     A
C1068  C1072   1.399   .     A
C1068  C1074   1.413   .     A
C1069  C1077   1.410   .     A
C1069  C1071   1.395   .     A
C1070  C1072   1.388   .     A
C1070  C1078   1.408   .     A
C1070  H892    1.079   1_655 S
C1071  O1116   1.389   .     S
C1072  O913    1.381   1_655 S
C1073  O1103   1.379   .     S
C1073  C1075   1.418   .     A
C1074  C1076   1.415   .     A
C1074  O1101   1.370   .     S
C1075  C1077   1.418   .     A
C1075  C1079   1.439   .     A
C1076  C1080   1.442   .     A
C1076  C1078   1.412   .     A
C1077  C197    1.399   1_556 S
C1079  C216    1.434   1_556 S
Cu1081 O1096   1.944   .     S
Cu1081 O1093   1.960   .     S
Cu1081 N1088   2.017   .     S
Cu1081 Cu1082  2.684   .     S
Cu1081 O1092   2.003   .     S
Cu1081 O1089   1.996   .     S
Cu1082 O1095   1.944   .     S
Cu1082 O1090   1.996   .     S
Cu1082 N1087   2.017   .     S
Cu1082 O1094   1.960   .     S
Cu1082 O1091   2.003   .     S
H1083  C877    1.081   1_655 S
H1086  N896    1.028   1_655 S
N1087  H893    1.023   1_655 S
N1087  N896    1.306   1_655 S
H1098  O905    0.991   1_655 S
O1099  H1100   0.992   .     S
O1101  H1102   0.990   .     S
O1103  H1104   0.991   .     S
O1105  C1106   1.413   .     S
C1106  C1109   1.540   .     S
C1106  H1107   1.110   .     S
H1108  C914    1.112   1_655 S
C1109  H1110   1.108   .     S
C1109  H1111   1.104   .     S
C1109  C1112   1.527   .     S
C1112  H1115   1.106   .     S
C1112  H1401   1.108   .     S
C1112  H1402   1.110   .     S
H1113  C1688   1.108   1_545 S
H1114  C1688   1.110   1_545 S
C1117  H1119   1.112   .     S
C1117  C1120   1.525   .     S
C1117  H1118   1.112   .     S
C1117  O924    1.417   1_655 S
C1120  C1123   1.523   .     S
C1120  H1122   1.106   .     S
C1120  H1121   1.109   .     S
C1123  H1124   1.109   .     S
C1123  H1126   1.111   .     S
C1123  H1701   1.108   1_545 S
H1125  C1411   1.108   .     S
O1127  C1128   1.407   .     S
C1128  H1130   1.110   .     S
C1128  H1129   1.105   .     S
C1131  H1132   1.106   .     S
C1131  H1133   1.110   .     S
C1131  C1134   1.517   .     S
C1131  C936    1.533   1_655 S
C1134  H1137   1.109   .     S
C1134  H1136   1.107   .     S
C1134  H1711   1.110   1_545 S
H1135  C1422   1.110   .     S
O1138  C1139   1.420   .     S
C1139  H1141   1.111   .     S
C1139  C1142   1.519   .     S
C1139  H948    1.103   1_655 S
C1142  H1144   1.110   .     S
C1142  H951    1.108   1_655 S
C1142  C953    1.527   1_655 S
C1145  H1147   1.109   .     S
C1145  H1148   1.110   .     S
C1145  H1434   1.108   .     S
H1146  C1721   1.108   1_545 S
O1149  H1150   0.989   .     S
O1149  C1639   1.389   1_545 S
O1151  H1152   0.989   .     S
O1151  C1352   1.388   .     S
C1153  O1185   1.291   .     A
C1153  C1159   1.466   .     S
C1153  O1187   1.299   .     A
C1154  O1186   1.290   .     A
C1154  O1188   1.300   .     A
C1154  C1160   1.467   .     S
C1155  O1223   1.382   .     S
C1155  C1176   1.433   .     A
C1155  C1157   1.407   .     A
C1156  C1175   1.435   .     A
C1156  C1158   1.409   .     A
C1156  O1234   1.388   .     S
C1157  O1193   1.377   .     S
C1158  C310    1.396   1_556 S
C1158  O1291   1.375   .     S
C1159  C1448   1.364   .     S
C1159  O1533   1.389   .     S
C1161  O1191   1.294   .     A
C1161  O1189   1.300   .     A
C1161  C1163   1.470   .     S
C1162  O1192   1.297   .     A
C1162  C1164   1.482   .     S
C1162  O1190   1.303   .     A
C1163  C1167   1.399   .     A
C1163  C1169   1.417   .     A
C1164  C1168   1.399   .     A
C1164  C1170   1.413   .     A
C1165  C1173   1.410   .     A
C1165  C1167   1.395   .     A
C1165  H1371   1.081   1_455 S
C1166  C1168   1.388   .     A
C1166  C1174   1.408   .     A
C1166  H1276   1.079   .     S
C1167  O1212   1.389   .     S
C1168  O1297   1.381   .     S
C1169  O1199   1.379   .     S
C1169  C1171   1.418   .     A
C1170  C1172   1.415   .     A
C1170  O1197   1.370   .     S
C1171  C1173   1.418   .     A
C1171  C1175   1.439   .     A
C1172  C1176   1.442   .     A
C1172  C1174   1.412   .     A
C1173  C293    1.399   1_556 S
C1175  C312    1.434   1_556 S
Cu1177 O1192   1.944   .     S
Cu1177 O1189   1.960   .     S
Cu1177 N1184   2.017   .     S
Cu1177 Cu1178  2.684   .     S
Cu1177 O1188   2.003   .     S
Cu1177 O1185   1.996   .     S
Cu1178 O1191   1.944   .     S
Cu1178 O1186   1.996   .     S
Cu1178 N1183   2.017   .     S
Cu1178 O1190   1.960   .     S
Cu1178 O1187   2.003   .     S
H1179  C1261   1.081   .     S
H1180  C1358   1.079   1_455 S
H1181  N1375   1.023   1_455 S
H1182  N1280   1.028   .     S
N1183  H1277   1.023   .     S
N1183  N1280   1.306   .     S
N1184  H1374   1.028   1_455 S
N1184  N1375   1.306   1_455 S
O1193  H1386   0.991   1_455 S
H1194  O1289   0.991   .     S
O1195  H1196   0.992   .     S
O1195  C1350   1.375   1_455 S
O1197  H1198   0.990   .     S
O1199  H1200   0.991   .     S
O1201  C1202   1.413   .     S
O1201  C1360   1.381   1_455 S
C1202  C1205   1.540   .     S
C1202  H1203   1.110   .     S
C1202  H1396   1.112   1_455 S
H1204  C1298   1.112   .     S
C1205  H1206   1.108   .     S
C1205  H1207   1.104   .     S
C1205  C1208   1.527   .     S
C1208  H1211   1.106   .     S
C1208  H1497   1.108   .     S
C1208  H1498   1.110   .     S
O1212  C1405   1.417   1_455 S
C1213  H1215   1.112   .     S
C1213  C1216   1.525   .     S
C1213  H1214   1.112   .     S
C1213  O1308   1.417   .     S
C1216  C1219   1.523   .     S
C1216  H1218   1.106   .     S
C1216  H1217   1.109   .     S
C1219  H1220   1.109   .     S
C1219  H1222   1.111   .     S
H1221  C1507   1.108   .     S
O1223  C1224   1.407   .     S
C1224  H1226   1.110   .     S
C1224  H1225   1.105   .     S
C1224  C1419   1.533   1_455 S
C1227  H1228   1.106   .     S
C1227  H1229   1.110   .     S
C1227  C1230   1.517   .     S
C1227  C1320   1.533   .     S
C1230  H1233   1.109   .     S
C1230  H1232   1.107   .     S
H1231  C1518   1.110   .     S
O1234  C1235   1.420   .     S
C1235  H1237   1.111   .     S
C1235  C1238   1.519   .     S
C1235  H1332   1.103   .     S
H1236  C1427   1.103   1_455 S
C1238  H1240   1.110   .     S
C1238  H1335   1.108   .     S
C1238  C1337   1.527   .     S
H1239  C1430   1.108   1_455 S
C1241  H1243   1.109   .     S
C1241  H1244   1.110   .     S
C1241  C1430   1.527   1_455 S
C1241  H1530   1.108   .     S
O1245  H1246   0.989   .     S
O1247  H1248   0.989   .     S
O1247  C1448   1.388   .     S
C1249  O1281   1.291   .     A
C1249  C1255   1.466   .     S
C1249  O1283   1.299   .     A
C1250  O1282   1.290   .     A
C1250  O1284   1.300   .     A
C1250  C1256   1.467   .     S
C1251  O1319   1.382   .     S
C1251  C1272   1.433   .     A
C1251  C1253   1.407   .     A
C1252  C1271   1.435   .     A
C1252  C1254   1.409   .     A
C1252  O1330   1.388   .     S
C1253  O1289   1.377   .     S
C1254  C406    1.396   1_556 S
C1254  O1387   1.375   .     S
C1255  C1544   1.364   .     S
C1255  O1629   1.389   .     S
C1257  O1287   1.294   .     A
C1257  O1285   1.300   .     A
C1257  C1259   1.470   .     S
C1258  O1288   1.297   .     A
C1258  C1260   1.482   .     S
C1258  O1286   1.303   .     A
C1259  C1263   1.399   .     A
C1259  C1265   1.417   .     A
C1260  C1264   1.399   .     A
C1260  C1266   1.413   .     A
C1261  C1269   1.410   .     A
C1261  C1263   1.395   .     A
C1262  C1264   1.388   .     A
C1262  C1270   1.408   .     A
C1262  H1372   1.079   .     S
C1263  O1308   1.389   .     S
C1264  O1393   1.381   .     S
C1265  O1295   1.379   .     S
C1265  C1267   1.418   .     A
C1266  C1268   1.415   .     A
C1266  O1293   1.370   .     S
C1267  C1269   1.418   .     A
C1267  C1271   1.439   .     A
C1268  C1272   1.442   .     A
C1268  C1270   1.412   .     A
C1269  C389    1.399   1_556 S
C1271  C408    1.434   1_556 S
Cu1273 O1288   1.944   .     S
Cu1273 O1285   1.960   .     S
Cu1273 N1280   2.017   .     S
Cu1273 Cu1274  2.684   .     S
Cu1273 O1284   2.003   .     S
Cu1273 O1281   1.996   .     S
Cu1274 O1287   1.944   .     S
Cu1274 O1282   1.996   .     S
Cu1274 N1279   2.017   .     S
Cu1274 O1286   1.960   .     S
Cu1274 O1283   2.003   .     S
H1275  C1357   1.081   .     S
H1278  N1376   1.028   .     S
N1279  H1373   1.023   .     S
N1279  N1376   1.306   .     S
H1290  O1385   0.991   .     S
O1291  H1292   0.992   .     S
O1293  H1294   0.990   .     S
O1295  H1296   0.991   .     S
O1297  C1298   1.413   .     S
C1298  C1301   1.540   .     S
C1298  H1299   1.110   .     S
H1300  C1394   1.112   .     S
C1301  H1302   1.108   .     S
C1301  H1303   1.104   .     S
C1301  C1304   1.527   .     S
C1304  H1307   1.106   .     S
C1304  H1593   1.108   .     S
C1304  H1594   1.110   .     S
C1309  H1311   1.112   .     S
C1309  C1312   1.525   .     S
C1309  H1310   1.112   .     S
C1309  O1404   1.417   .     S
C1312  C1315   1.523   .     S
C1312  H1314   1.106   .     S
C1312  H1313   1.109   .     S
C1315  H1316   1.109   .     S
C1315  H1318   1.111   .     S
H1317  C1603   1.108   .     S
O1319  C1320   1.407   .     S
C1320  H1322   1.110   .     S
C1320  H1321   1.105   .     S
C1323  H1324   1.106   .     S
C1323  H1325   1.110   .     S
C1323  C1326   1.517   .     S
C1323  C1416   1.533   .     S
C1326  H1329   1.109   .     S
C1326  H1328   1.107   .     S
H1327  C1614   1.110   .     S
O1330  C1331   1.420   .     S
C1331  H1333   1.111   .     S
C1331  C1334   1.519   .     S
C1331  H1428   1.103   .     S
C1334  H1336   1.110   .     S
C1334  H1431   1.108   .     S
C1334  C1433   1.527   .     S
C1337  H1339   1.109   .     S
C1337  H1340   1.110   .     S
C1337  H1626   1.108   .     S
O1341  H1342   0.989   .     S
O1343  H1344   0.989   .     S
O1343  C1544   1.388   .     S
C1345  O1377   1.291   .     A
C1345  C1351   1.466   .     S
C1345  O1379   1.299   .     A
C1346  O1378   1.290   .     A
C1346  O1380   1.300   .     A
C1346  C1352   1.467   .     S
C1347  O1415   1.382   .     S
C1347  C1368   1.433   .     A
C1347  C1349   1.407   .     A
C1348  C1367   1.435   .     A
C1348  C1350   1.409   .     A
C1348  O1426   1.388   .     S
C1349  O1385   1.377   .     S
C1350  C502    1.396   1_556 S
C1350  O1195   1.375   1_655 S
C1351  C1640   1.364   .     S
C1351  O1725   1.389   .     S
C1353  O1383   1.294   .     A
C1353  O1381   1.300   .     A
C1353  C1355   1.470   .     S
C1354  O1384   1.297   .     A
C1354  C1356   1.482   .     S
C1354  O1382   1.303   .     A
C1355  C1359   1.399   .     A
C1355  C1361   1.417   .     A
C1356  C1360   1.399   .     A
C1356  C1362   1.413   .     A
C1357  C1365   1.410   .     A
C1357  C1359   1.395   .     A
C1358  C1360   1.388   .     A
C1358  C1366   1.408   .     A
C1358  H1180   1.079   1_655 S
C1359  O1404   1.389   .     S
C1360  O1201   1.381   1_655 S
C1361  O1391   1.379   .     S
C1361  C1363   1.418   .     A
C1362  C1364   1.415   .     A
C1362  O1389   1.370   .     S
C1363  C1365   1.418   .     A
C1363  C1367   1.439   .     A
C1364  C1368   1.442   .     A
C1364  C1366   1.412   .     A
C1365  C485    1.399   1_556 S
C1367  C504    1.434   1_556 S
Cu1369 O1384   1.944   .     S
Cu1369 O1381   1.960   .     S
Cu1369 N1376   2.017   .     S
Cu1369 Cu1370  2.684   .     S
Cu1369 O1380   2.003   .     S
Cu1369 O1377   1.996   .     S
Cu1370 O1383   1.944   .     S
Cu1370 O1378   1.996   .     S
Cu1370 N1375   2.017   .     S
Cu1370 O1382   1.960   .     S
Cu1370 O1379   2.003   .     S
H1371  C1165   1.081   1_655 S
H1374  N1184   1.028   1_655 S
N1375  H1181   1.023   1_655 S
N1375  N1184   1.306   1_655 S
H1386  O1193   0.991   1_655 S
O1387  H1388   0.992   .     S
O1389  H1390   0.990   .     S
O1391  H1392   0.991   .     S
O1393  C1394   1.413   .     S
C1394  C1397   1.540   .     S
C1394  H1395   1.110   .     S
H1396  C1202   1.112   1_655 S
C1397  H1398   1.108   .     S
C1397  H1399   1.104   .     S
C1397  C1400   1.527   .     S
C1400  H1403   1.106   .     S
C1400  H1689   1.108   .     S
C1400  H1690   1.110   .     S
C1405  H1407   1.112   .     S
C1405  C1408   1.525   .     S
C1405  H1406   1.112   .     S
C1405  O1212   1.417   1_655 S
C1408  C1411   1.523   .     S
C1408  H1410   1.106   .     S
C1408  H1409   1.109   .     S
C1411  H1412   1.109   .     S
C1411  H1414   1.111   .     S
H1413  C1699   1.108   .     S
O1415  C1416   1.407   .     S
C1416  H1418   1.110   .     S
C1416  H1417   1.105   .     S
C1419  H1420   1.106   .     S
C1419  H1421   1.110   .     S
C1419  C1422   1.517   .     S
C1419  C1224   1.533   1_655 S
C1422  H1425   1.109   .     S
C1422  H1424   1.107   .     S
H1423  C1710   1.110   .     S
O1426  C1427   1.420   .     S
C1427  H1429   1.111   .     S
C1427  C1430   1.519   .     S
C1427  H1236   1.103   1_655 S
C1430  H1432   1.110   .     S
C1430  H1239   1.108   1_655 S
C1430  C1241   1.527   1_655 S
C1433  H1435   1.109   .     S
C1433  H1436   1.110   .     S
C1433  H1722   1.108   .     S
O1437  H1438   0.989   .     S
O1439  H1440   0.989   .     S
O1439  C1640   1.388   .     S
C1441  O1473   1.291   .     A
C1441  C1447   1.466   .     S
C1441  O1475   1.299   .     A
C1442  O1474   1.290   .     A
C1442  O1476   1.300   .     A
C1442  C1448   1.467   .     S
C1443  O1511   1.382   .     S
C1443  C1464   1.433   .     A
C1443  C1445   1.407   .     A
C1444  C1463   1.435   .     A
C1444  C1446   1.409   .     A
C1444  O1522   1.388   .     S
C1445  O1481   1.377   .     S
C1446  C598    1.396   1_556 S
C1446  O1579   1.375   .     S
C1447  C872    1.364   1_565 S
C1447  O957    1.389   1_565 S
C1449  O1479   1.294   .     A
C1449  O1477   1.300   .     A
C1449  C1451   1.470   .     S
C1450  O1480   1.297   .     A
C1450  C1452   1.482   .     S
C1450  O1478   1.303   .     A
C1451  C1455   1.399   .     A
C1451  C1457   1.417   .     A
C1452  C1456   1.399   .     A
C1452  C1458   1.413   .     A
C1453  C1461   1.410   .     A
C1453  C1455   1.395   .     A
C1453  H1659   1.081   1_455 S
C1454  C1456   1.388   .     A
C1454  C1462   1.408   .     A
C1454  H1564   1.079   .     S
C1455  O1500   1.389   .     S
C1456  O1585   1.381   .     S
C1457  O1487   1.379   .     S
C1457  C1459   1.418   .     A
C1458  C1460   1.415   .     A
C1458  O1485   1.370   .     S
C1459  C1461   1.418   .     A
C1459  C1463   1.439   .     A
C1460  C1464   1.442   .     A
C1460  C1462   1.412   .     A
C1461  C581    1.399   1_556 S
C1463  C600    1.434   1_556 S
Cu1465 O1480   1.944   .     S
Cu1465 O1477   1.960   .     S
Cu1465 N1472   2.017   .     S
Cu1465 Cu1466  2.684   .     S
Cu1465 O1476   2.003   .     S
Cu1465 O1473   1.996   .     S
Cu1466 O1479   1.944   .     S
Cu1466 O1474   1.996   .     S
Cu1466 N1471   2.017   .     S
Cu1466 O1478   1.960   .     S
Cu1466 O1475   2.003   .     S
H1467  C1549   1.081   .     S
H1468  C1646   1.079   1_455 S
H1469  N1663   1.023   1_455 S
H1470  N1568   1.028   .     S
N1471  H1565   1.023   .     S
N1471  N1568   1.306   .     S
N1472  H1662   1.028   1_455 S
N1472  N1663   1.306   1_455 S
O1481  H1674   0.991   1_455 S
H1482  O1577   0.991   .     S
O1483  H1484   0.992   .     S
O1483  C1638   1.375   1_455 S
O1485  H1486   0.990   .     S
O1487  H1488   0.991   .     S
O1489  C1490   1.413   .     S
O1489  C1648   1.381   1_455 S
C1490  C1493   1.540   .     S
C1490  H1491   1.110   .     S
C1490  H1684   1.112   1_455 S
H1492  C1586   1.112   .     S
C1493  H1494   1.108   .     S
C1493  H1495   1.104   .     S
C1493  C1496   1.527   .     S
C1496  H1499   1.106   .     S
C1496  H921    1.108   1_565 S
C1496  H922    1.110   1_565 S
O1500  C1693   1.417   1_455 S
C1501  H1503   1.112   .     S
C1501  C1504   1.525   .     S
C1501  H1502   1.112   .     S
C1501  O1596   1.417   .     S
C1504  C1507   1.523   .     S
C1504  H1506   1.106   .     S
C1504  H1505   1.109   .     S
C1507  H1508   1.109   .     S
C1507  H1510   1.111   .     S
H1509  C931    1.108   1_565 S
O1511  C1512   1.407   .     S
C1512  H1514   1.110   .     S
C1512  H1513   1.105   .     S
C1512  C1707   1.533   1_455 S
C1515  H1516   1.106   .     S
C1515  H1517   1.110   .     S
C1515  C1518   1.517   .     S
C1515  C1608   1.533   .     S
C1518  H1521   1.109   .     S
C1518  H1520   1.107   .     S
H1519  C942    1.110   1_565 S
O1522  C1523   1.420   .     S
C1523  H1525   1.111   .     S
C1523  C1526   1.519   .     S
C1523  H1620   1.103   .     S
H1524  C1715   1.103   1_455 S
C1526  H1528   1.110   .     S
C1526  H1623   1.108   .     S
C1526  C1625   1.527   .     S
H1527  C1718   1.108   1_455 S
C1529  H1531   1.109   .     S
C1529  H1532   1.110   .     S
C1529  C1718   1.527   1_455 S
C1529  H954    1.108   1_565 S
O1533  H1534   0.989   .     S
O1535  H1536   0.989   .     S
O1535  C872    1.388   1_565 S
C1537  O1569   1.291   .     A
C1537  C1543   1.466   .     S
C1537  O1571   1.299   .     A
C1538  O1570   1.290   .     A
C1538  O1572   1.300   .     A
C1538  C1544   1.467   .     S
C1539  O1607   1.382   .     S
C1539  C1560   1.433   .     A
C1539  C1541   1.407   .     A
C1540  C1559   1.435   .     A
C1540  C1542   1.409   .     A
C1540  O1618   1.388   .     S
C1541  O1577   1.377   .     S
C1542  C694    1.396   1_556 S
C1542  O1675   1.375   .     S
C1543  C968    1.364   1_565 S
C1543  O1053   1.389   1_565 S
C1545  O1575   1.294   .     A
C1545  O1573   1.300   .     A
C1545  C1547   1.470   .     S
C1546  O1576   1.297   .     A
C1546  C1548   1.482   .     S
C1546  O1574   1.303   .     A
C1547  C1551   1.399   .     A
C1547  C1553   1.417   .     A
C1548  C1552   1.399   .     A
C1548  C1554   1.413   .     A
C1549  C1557   1.410   .     A
C1549  C1551   1.395   .     A
C1550  C1552   1.388   .     A
C1550  C1558   1.408   .     A
C1550  H1660   1.079   .     S
C1551  O1596   1.389   .     S
C1552  O1681   1.381   .     S
C1553  O1583   1.379   .     S
C1553  C1555   1.418   .     A
C1554  C1556   1.415   .     A
C1554  O1581   1.370   .     S
C1555  C1557   1.418   .     A
C1555  C1559   1.439   .     A
C1556  C1560   1.442   .     A
C1556  C1558   1.412   .     A
C1557  C677    1.399   1_556 S
C1559  C696    1.434   1_556 S
Cu1561 O1576   1.944   .     S
Cu1561 O1573   1.960   .     S
Cu1561 N1568   2.017   .     S
Cu1561 Cu1562  2.684   .     S
Cu1561 O1572   2.003   .     S
Cu1561 O1569   1.996   .     S
Cu1562 O1575   1.944   .     S
Cu1562 O1570   1.996   .     S
Cu1562 N1567   2.017   .     S
Cu1562 O1574   1.960   .     S
Cu1562 O1571   2.003   .     S
H1563  C1645   1.081   .     S
H1566  N1664   1.028   .     S
N1567  H1661   1.023   .     S
N1567  N1664   1.306   .     S
H1578  O1673   0.991   .     S
O1579  H1580   0.992   .     S
O1581  H1582   0.990   .     S
O1583  H1584   0.991   .     S
O1585  C1586   1.413   .     S
C1586  C1589   1.540   .     S
C1586  H1587   1.110   .     S
H1588  C1682   1.112   .     S
C1589  H1590   1.108   .     S
C1589  H1591   1.104   .     S
C1589  C1592   1.527   .     S
C1592  H1595   1.106   .     S
C1592  H1017   1.108   1_565 S
C1592  H1018   1.110   1_565 S
C1597  H1599   1.112   .     S
C1597  C1600   1.525   .     S
C1597  H1598   1.112   .     S
C1597  O1692   1.417   .     S
C1600  C1603   1.523   .     S
C1600  H1602   1.106   .     S
C1600  H1601   1.109   .     S
C1603  H1604   1.109   .     S
C1603  H1606   1.111   .     S
H1605  C1027   1.108   1_565 S
O1607  C1608   1.407   .     S
C1608  H1610   1.110   .     S
C1608  H1609   1.105   .     S
C1611  H1612   1.106   .     S
C1611  H1613   1.110   .     S
C1611  C1614   1.517   .     S
C1611  C1704   1.533   .     S
C1614  H1617   1.109   .     S
C1614  H1616   1.107   .     S
H1615  C1038   1.110   1_565 S
O1618  C1619   1.420   .     S
C1619  H1621   1.111   .     S
C1619  C1622   1.519   .     S
C1619  H1716   1.103   .     S
C1622  H1624   1.110   .     S
C1622  H1719   1.108   .     S
C1622  C1721   1.527   .     S
C1625  H1627   1.109   .     S
C1625  H1628   1.110   .     S
C1625  H1050   1.108   1_565 S
O1629  H1630   0.989   .     S
O1631  H1632   0.989   .     S
O1631  C968    1.388   1_565 S
C1633  O1665   1.291   .     A
C1633  C1639   1.466   .     S
C1633  O1667   1.299   .     A
C1634  O1666   1.290   .     A
C1634  O1668   1.300   .     A
C1634  C1640   1.467   .     S
C1635  O1703   1.382   .     S
C1635  C1656   1.433   .     A
C1635  C1637   1.407   .     A
C1636  C1655   1.435   .     A
C1636  C1638   1.409   .     A
C1636  O1714   1.388   .     S
C1637  O1673   1.377   .     S
C1638  C790    1.396   1_556 S
C1638  O1483   1.375   1_655 S
C1639  C1064   1.364   1_565 S
C1639  O1149   1.389   1_565 S
C1641  O1671   1.294   .     A
C1641  O1669   1.300   .     A
C1641  C1643   1.470   .     S
C1642  O1672   1.297   .     A
C1642  C1644   1.482   .     S
C1642  O1670   1.303   .     A
C1643  C1647   1.399   .     A
C1643  C1649   1.417   .     A
C1644  C1648   1.399   .     A
C1644  C1650   1.413   .     A
C1645  C1653   1.410   .     A
C1645  C1647   1.395   .     A
C1646  C1648   1.388   .     A
C1646  C1654   1.408   .     A
C1646  H1468   1.079   1_655 S
C1647  O1692   1.389   .     S
C1648  O1489   1.381   1_655 S
C1649  O1679   1.379   .     S
C1649  C1651   1.418   .     A
C1650  C1652   1.415   .     A
C1650  O1677   1.370   .     S
C1651  C1653   1.418   .     A
C1651  C1655   1.439   .     A
C1652  C1656   1.442   .     A
C1652  C1654   1.412   .     A
C1653  C773    1.399   1_556 S
C1655  C792    1.434   1_556 S
Cu1657 O1672   1.944   .     S
Cu1657 O1669   1.960   .     S
Cu1657 N1664   2.017   .     S
Cu1657 Cu1658  2.684   .     S
Cu1657 O1668   2.003   .     S
Cu1657 O1665   1.996   .     S
Cu1658 O1671   1.944   .     S
Cu1658 O1666   1.996   .     S
Cu1658 N1663   2.017   .     S
Cu1658 O1670   1.960   .     S
Cu1658 O1667   2.003   .     S
H1659  C1453   1.081   1_655 S
H1662  N1472   1.028   1_655 S
N1663  H1469   1.023   1_655 S
N1663  N1472   1.306   1_655 S
H1674  O1481   0.991   1_655 S
O1675  H1676   0.992   .     S
O1677  H1678   0.990   .     S
O1679  H1680   0.991   .     S
O1681  C1682   1.413   .     S
C1682  C1685   1.540   .     S
C1682  H1683   1.110   .     S
H1684  C1490   1.112   1_655 S
C1685  H1686   1.108   .     S
C1685  H1687   1.104   .     S
C1685  C1688   1.527   .     S
C1688  H1691   1.106   .     S
C1688  H1113   1.108   1_565 S
C1688  H1114   1.110   1_565 S
C1693  H1695   1.112   .     S
C1693  C1696   1.525   .     S
C1693  H1694   1.112   .     S
C1693  O1500   1.417   1_655 S
C1696  C1699   1.523   .     S
C1696  H1698   1.106   .     S
C1696  H1697   1.109   .     S
C1699  H1700   1.109   .     S
C1699  H1702   1.111   .     S
H1701  C1123   1.108   1_565 S
O1703  C1704   1.407   .     S
C1704  H1706   1.110   .     S
C1704  H1705   1.105   .     S
C1707  H1708   1.106   .     S
C1707  H1709   1.110   .     S
C1707  C1710   1.517   .     S
C1707  C1512   1.533   1_655 S
C1710  H1713   1.109   .     S
C1710  H1712   1.107   .     S
H1711  C1134   1.110   1_565 S
O1714  C1715   1.420   .     S
C1715  H1717   1.111   .     S
C1715  C1718   1.519   .     S
C1715  H1524   1.103   1_655 S
C1718  H1720   1.110   .     S
C1718  H1527   1.108   1_655 S
C1718  C1529   1.527   1_655 S
C1721  H1723   1.109   .     S
C1721  H1724   1.110   .     S
C1721  H1146   1.108   1_565 S
O1725  H1726   0.989   .     S
O1727  H1728   0.989   .     S
O1727  C1064   1.388   1_565 S
