data_str_m2_o1_o16_pcu_sym.164
_audit_creation_date              2020-01-03
_audit_creation_method            'Materials Studio'
_symmetry_space_group_name_H-M    'P1'
_symmetry_Int_Tables_number       1
_symmetry_cell_setting            triclinic
loop_
_symmetry_equiv_pos_as_xyz
  x,y,z
_cell_length_a                    28.8470
_cell_length_b                    32.5985
_cell_length_c                    26.6529
_cell_angle_alpha                 91.4032
_cell_angle_beta                  73.2074
_cell_angle_gamma                 89.8917
loop_
_atom_site_label
_atom_site_type_symbol
_atom_site_fract_x
_atom_site_fract_y
_atom_site_fract_z
_atom_site_U_iso_or_equiv
_atom_site_adp_type
_atom_site_occupancy
C1     C     0.16649   0.24579   0.25045   0.00000  Uiso   1.00
C2     C     0.14531   0.19082   0.48964   0.00000  Uiso   1.00
C3     C     0.15947   0.19180   0.43453   0.00000  Uiso   1.00
C4     C     0.18169   0.18535   0.01480   0.00000  Uiso   1.00
C5     C     0.23065   0.18387   0.48400   0.00000  Uiso   1.00
C6     C     0.24271   0.20023   0.43327   0.00000  Uiso   1.00
C7     C     0.20533   0.20814   0.41037   0.00000  Uiso   1.00
C8     C     0.17095   0.17971   0.06878   0.00000  Uiso   1.00
C9     C     0.25375   0.15911   0.05903   0.00000  Uiso   1.00
C10    C     0.12540   0.18244   0.40713   0.00000  Uiso   1.00
C11    C     0.20807   0.31120   0.25188   0.00000  Uiso   1.00
C12    C     0.14074   0.17116   0.35003   0.00000  Uiso   1.00
C13    C     0.20770   0.02019   0.25711   0.00000  Uiso   1.00
C14    C     0.16477   0.04264   0.25976   0.00000  Uiso   1.00
C15    C     0.12079   0.02096   0.26688   0.00000  Uiso   1.00
C16    C     0.12207   0.31168   0.26193   0.00000  Uiso   1.00
C17    C     0.16572   0.29026   0.25324   0.00000  Uiso   1.00
C18    C     0.30340   0.19921   0.27008   0.00000  Uiso   1.00
C19    C     0.01914   0.19900   0.27078   0.00000  Uiso   1.00
C20    C     0.03101   0.13564   0.22526   0.00000  Uiso   1.00
C21    C     0.31477   0.13569   0.22601   0.00000  Uiso   1.00
C22    C     0.16582   0.08751   0.25373   0.00000  Uiso   1.00
C23    C     0.19257   0.16598   0.14967   0.00000  Uiso   1.00
C24    C     0.26563   0.16793   0.00559   0.00000  Uiso   1.00
C25    C     0.20670   0.16808   0.09180   0.00000  Uiso   1.00
C26    C     0.07616   0.18676   0.43493   0.00000  Uiso   1.00
C27    C     0.06241   0.19935   0.48798   0.00000  Uiso   1.00
C28    C     0.09604   0.19706   0.01628   0.00000  Uiso   1.00
Cu29   Cu    0.11978   0.16666   0.25000   0.00000  Uiso   1.00
Cu30   Cu    0.21355   0.16667   0.25000   0.00000  Uiso   1.00
H31    H     0.08849   0.29530   0.26661   0.00000  Uiso   1.00
H32    H     0.28167   0.22618   0.28382   0.00000  Uiso   1.00
H33    H     0.03312   0.22537   0.28678   0.00000  Uiso   1.00
H34    H     0.30151   0.11138   0.20566   0.00000  Uiso   1.00
H35    H     0.30188   0.16158   0.48051   0.00000  Uiso   1.00
H36    H     0.13463   0.18426   0.09367   0.00000  Uiso   1.00
H37    H     0.04896   0.18219   0.41507   0.00000  Uiso   1.00
H38    H     0.08342   0.20384   0.05784   0.00000  Uiso   1.00
H39    H     0.24139   0.29446   0.24871   0.00000  Uiso   1.00
N40    N     0.04931   0.16666   0.24998   0.00000  Uiso   1.00
N41    N     0.28402   0.16669   0.25000   0.00000  Uiso   1.00
O42    O     0.12708   0.22678   0.25000   0.00000  Uiso   1.00
O43    O     0.20627   0.22679   0.25001   0.00000  Uiso   1.00
O44    O     0.10775   0.16665   0.32549   0.00000  Uiso   1.00
O45    O     0.18694   0.16666   0.32549   0.00000  Uiso   1.00
O46    O     0.12706   0.10654   0.25000   0.00000  Uiso   1.00
O47    O     0.20625   0.10655   0.25000   0.00000  Uiso   1.00
O48    O     0.14640   0.16667   0.17451   0.00000  Uiso   1.00
O49    O     0.22559   0.16668   0.17451   0.00000  Uiso   1.00
C50    C     0.28993   0.13995   0.07859   0.00000  Uiso   1.00
N51    N     0.31903   0.12450   0.09408   0.00000  Uiso   1.00
C52    C     0.25075   0.03822   0.26515   0.00000  Uiso   1.00
N53    N     0.28527   0.05178   0.27257   0.00000  Uiso   1.00
N54    N     0.07491   0.04128   0.28154   0.00000  Uiso   1.00
H55    H     0.04828   0.02544   0.27061   0.00000  Uiso   1.00
C56    C     0.05853   0.05494   0.33593   0.00000  Uiso   1.00
H57    H     0.05190   0.02809   0.36191   0.00000  Uiso   1.00
H58    H     0.02424   0.07269   0.34301   0.00000  Uiso   1.00
H59    H     0.08571   0.07517   0.34590   0.00000  Uiso   1.00
N60    N     0.06169   0.10364   0.19703   0.00000  Uiso   1.00
H61    H     0.04762   0.07491   0.20663   0.00000  Uiso   1.00
C62    C     0.07856   0.10815   0.14073   0.00000  Uiso   1.00
H63    H     0.06010   0.08584   0.12099   0.00000  Uiso   1.00
H64    H     0.11804   0.10164   0.12678   0.00000  Uiso   1.00
H65    H     0.07161   0.13955   0.12908   0.00000  Uiso   1.00
C66    C     0.29074   0.21515   0.40868   0.00000  Uiso   1.00
N67    N     0.32842   0.22839   0.38832   0.00000  Uiso   1.00
N68    N     0.01600   0.21684   0.01205   0.00000  Uiso   1.00
H69    H     0.00341   0.21163   0.05166   0.00000  Uiso   1.00
C70    C     0.01263   0.26000   0.00208   0.00000  Uiso   1.00
H71    H     0.30753   0.27019   0.01646   0.00000  Uiso   1.00
H72    H     0.02626   0.26590   0.45953   0.00000  Uiso   1.00
H73    H     0.03421   0.27826   0.02293   0.00000  Uiso   1.00
N74    N     0.21039   0.23913   0.37176   0.00000  Uiso   1.00
H75    H     0.24414   0.25199   0.35938   0.00000  Uiso   1.00
C76    C     0.17364   0.27130   0.38439   0.00000  Uiso   1.00
H77    H     0.18533   0.29722   0.35758   0.00000  Uiso   1.00
H78    H     0.16800   0.28326   0.42516   0.00000  Uiso   1.00
H79    H     0.13898   0.25993   0.37950   0.00000  Uiso   1.00
C80    C     0.49983   0.24579   0.25045   0.00000  Uiso   1.00
C81    C     0.47864   0.19082   0.48964   0.00000  Uiso   1.00
C82    C     0.49280   0.19180   0.43453   0.00000  Uiso   1.00
C83    C     0.51503   0.18535   0.01480   0.00000  Uiso   1.00
C84    C     0.56398   0.18387   0.48400   0.00000  Uiso   1.00
C85    C     0.57605   0.20023   0.43327   0.00000  Uiso   1.00
C86    C     0.53866   0.20814   0.41037   0.00000  Uiso   1.00
C87    C     0.50428   0.17971   0.06878   0.00000  Uiso   1.00
C88    C     0.58709   0.15911   0.05903   0.00000  Uiso   1.00
C89    C     0.45873   0.18244   0.40713   0.00000  Uiso   1.00
C90    C     0.54140   0.31120   0.25188   0.00000  Uiso   1.00
C91    C     0.47408   0.17116   0.35003   0.00000  Uiso   1.00
C92    C     0.54103   0.02019   0.25711   0.00000  Uiso   1.00
C93    C     0.49810   0.04264   0.25976   0.00000  Uiso   1.00
C94    C     0.45413   0.02096   0.26688   0.00000  Uiso   1.00
C95    C     0.45540   0.31168   0.26193   0.00000  Uiso   1.00
C96    C     0.49905   0.29026   0.25324   0.00000  Uiso   1.00
C97    C     0.63673   0.19921   0.27008   0.00000  Uiso   1.00
C98    C     0.35247   0.19900   0.27078   0.00000  Uiso   1.00
C99    C     0.36434   0.13564   0.22526   0.00000  Uiso   1.00
C100   C     0.64810   0.13569   0.22601   0.00000  Uiso   1.00
C101   C     0.49915   0.08751   0.25373   0.00000  Uiso   1.00
C102   C     0.52590   0.16598   0.14967   0.00000  Uiso   1.00
C103   C     0.59897   0.16793   0.00559   0.00000  Uiso   1.00
C104   C     0.54004   0.16808   0.09180   0.00000  Uiso   1.00
C105   C     0.40950   0.18676   0.43493   0.00000  Uiso   1.00
C106   C     0.39574   0.19935   0.48798   0.00000  Uiso   1.00
C107   C     0.42937   0.19706   0.01628   0.00000  Uiso   1.00
Cu108  Cu    0.45311   0.16666   0.25000   0.00000  Uiso   1.00
Cu109  Cu    0.54689   0.16667   0.25000   0.00000  Uiso   1.00
H110   H     0.42182   0.29530   0.26661   0.00000  Uiso   1.00
H111   H     0.61500   0.22618   0.28382   0.00000  Uiso   1.00
H112   H     0.36645   0.22537   0.28678   0.00000  Uiso   1.00
H113   H     0.63484   0.11138   0.20566   0.00000  Uiso   1.00
H114   H     0.63522   0.16158   0.48051   0.00000  Uiso   1.00
H115   H     0.46796   0.18426   0.09367   0.00000  Uiso   1.00
H116   H     0.38229   0.18219   0.41507   0.00000  Uiso   1.00
H117   H     0.41676   0.20384   0.05784   0.00000  Uiso   1.00
H118   H     0.57472   0.29446   0.24871   0.00000  Uiso   1.00
N119   N     0.38265   0.16666   0.24998   0.00000  Uiso   1.00
N120   N     0.61735   0.16669   0.25000   0.00000  Uiso   1.00
O121   O     0.46042   0.22678   0.25000   0.00000  Uiso   1.00
O122   O     0.53961   0.22679   0.25001   0.00000  Uiso   1.00
O123   O     0.44108   0.16665   0.32549   0.00000  Uiso   1.00
O124   O     0.52027   0.16666   0.32549   0.00000  Uiso   1.00
O125   O     0.46039   0.10654   0.25000   0.00000  Uiso   1.00
O126   O     0.53958   0.10655   0.25000   0.00000  Uiso   1.00
O127   O     0.47973   0.16667   0.17451   0.00000  Uiso   1.00
O128   O     0.55892   0.16668   0.17451   0.00000  Uiso   1.00
C129   C     0.62327   0.13995   0.07859   0.00000  Uiso   1.00
N130   N     0.65236   0.12450   0.09408   0.00000  Uiso   1.00
C131   C     0.58408   0.03822   0.26515   0.00000  Uiso   1.00
N132   N     0.61860   0.05178   0.27257   0.00000  Uiso   1.00
N133   N     0.40824   0.04128   0.28154   0.00000  Uiso   1.00
H134   H     0.38162   0.02544   0.27061   0.00000  Uiso   1.00
C135   C     0.39186   0.05494   0.33593   0.00000  Uiso   1.00
H136   H     0.38523   0.02809   0.36191   0.00000  Uiso   1.00
H137   H     0.35757   0.07269   0.34301   0.00000  Uiso   1.00
H138   H     0.41904   0.07517   0.34590   0.00000  Uiso   1.00
N139   N     0.39502   0.10364   0.19703   0.00000  Uiso   1.00
H140   H     0.38095   0.07491   0.20663   0.00000  Uiso   1.00
C141   C     0.41190   0.10815   0.14073   0.00000  Uiso   1.00
H142   H     0.39343   0.08584   0.12099   0.00000  Uiso   1.00
H143   H     0.45137   0.10164   0.12678   0.00000  Uiso   1.00
H144   H     0.40494   0.13955   0.12908   0.00000  Uiso   1.00
C145   C     0.62407   0.21515   0.40868   0.00000  Uiso   1.00
N146   N     0.66175   0.22839   0.38832   0.00000  Uiso   1.00
N147   N     0.34933   0.21684   0.01205   0.00000  Uiso   1.00
H148   H     0.33675   0.21163   0.05166   0.00000  Uiso   1.00
C149   C     0.34596   0.26000   0.00208   0.00000  Uiso   1.00
H150   H     0.64087   0.27019   0.01646   0.00000  Uiso   1.00
H151   H     0.35959   0.26590   0.45953   0.00000  Uiso   1.00
H152   H     0.36754   0.27826   0.02293   0.00000  Uiso   1.00
N153   N     0.54372   0.23913   0.37176   0.00000  Uiso   1.00
H154   H     0.57747   0.25199   0.35938   0.00000  Uiso   1.00
C155   C     0.50697   0.27130   0.38439   0.00000  Uiso   1.00
H156   H     0.51866   0.29722   0.35758   0.00000  Uiso   1.00
H157   H     0.50133   0.28326   0.42516   0.00000  Uiso   1.00
H158   H     0.47231   0.25993   0.37950   0.00000  Uiso   1.00
C159   C     0.83316   0.24579   0.25045   0.00000  Uiso   1.00
C160   C     0.81197   0.19082   0.48964   0.00000  Uiso   1.00
C161   C     0.82613   0.19180   0.43453   0.00000  Uiso   1.00
C162   C     0.84836   0.18535   0.01480   0.00000  Uiso   1.00
C163   C     0.89731   0.18387   0.48400   0.00000  Uiso   1.00
C164   C     0.90938   0.20023   0.43327   0.00000  Uiso   1.00
C165   C     0.87200   0.20814   0.41037   0.00000  Uiso   1.00
C166   C     0.83761   0.17971   0.06878   0.00000  Uiso   1.00
C167   C     0.92042   0.15911   0.05903   0.00000  Uiso   1.00
C168   C     0.79207   0.18244   0.40713   0.00000  Uiso   1.00
C169   C     0.87474   0.31120   0.25188   0.00000  Uiso   1.00
C170   C     0.80741   0.17116   0.35003   0.00000  Uiso   1.00
C171   C     0.87436   0.02019   0.25711   0.00000  Uiso   1.00
C172   C     0.83144   0.04264   0.25976   0.00000  Uiso   1.00
C173   C     0.78746   0.02096   0.26688   0.00000  Uiso   1.00
C174   C     0.78873   0.31168   0.26193   0.00000  Uiso   1.00
C175   C     0.83238   0.29026   0.25324   0.00000  Uiso   1.00
C176   C     0.97007   0.19921   0.27008   0.00000  Uiso   1.00
C177   C     0.68581   0.19900   0.27078   0.00000  Uiso   1.00
C178   C     0.69767   0.13564   0.22526   0.00000  Uiso   1.00
C179   C     0.98143   0.13569   0.22601   0.00000  Uiso   1.00
C180   C     0.83249   0.08751   0.25373   0.00000  Uiso   1.00
C181   C     0.85923   0.16598   0.14967   0.00000  Uiso   1.00
C182   C     0.93230   0.16793   0.00559   0.00000  Uiso   1.00
C183   C     0.87337   0.16808   0.09180   0.00000  Uiso   1.00
C184   C     0.74283   0.18676   0.43493   0.00000  Uiso   1.00
C185   C     0.72907   0.19935   0.48798   0.00000  Uiso   1.00
C186   C     0.76270   0.19706   0.01628   0.00000  Uiso   1.00
Cu187  Cu    0.78645   0.16666   0.25000   0.00000  Uiso   1.00
Cu188  Cu    0.88022   0.16667   0.25000   0.00000  Uiso   1.00
H189   H     0.75515   0.29530   0.26661   0.00000  Uiso   1.00
H190   H     0.94834   0.22618   0.28382   0.00000  Uiso   1.00
H191   H     0.69979   0.22537   0.28678   0.00000  Uiso   1.00
H192   H     0.96818   0.11138   0.20566   0.00000  Uiso   1.00
H193   H     0.96855   0.16158   0.48051   0.00000  Uiso   1.00
H194   H     0.80129   0.18426   0.09367   0.00000  Uiso   1.00
H195   H     0.71563   0.18219   0.41507   0.00000  Uiso   1.00
H196   H     0.75009   0.20384   0.05784   0.00000  Uiso   1.00
H197   H     0.90806   0.29446   0.24871   0.00000  Uiso   1.00
N198   N     0.71598   0.16666   0.24998   0.00000  Uiso   1.00
N199   N     0.95069   0.16669   0.25000   0.00000  Uiso   1.00
O200   O     0.79375   0.22678   0.25000   0.00000  Uiso   1.00
O201   O     0.87294   0.22679   0.25001   0.00000  Uiso   1.00
O202   O     0.77441   0.16665   0.32549   0.00000  Uiso   1.00
O203   O     0.85360   0.16666   0.32549   0.00000  Uiso   1.00
O204   O     0.79373   0.10654   0.25000   0.00000  Uiso   1.00
O205   O     0.87292   0.10655   0.25000   0.00000  Uiso   1.00
O206   O     0.81306   0.16667   0.17451   0.00000  Uiso   1.00
O207   O     0.89225   0.16668   0.17451   0.00000  Uiso   1.00
C208   C     0.95660   0.13995   0.07859   0.00000  Uiso   1.00
N209   N     0.98569   0.12450   0.09408   0.00000  Uiso   1.00
C210   C     0.91742   0.03822   0.26515   0.00000  Uiso   1.00
N211   N     0.95194   0.05178   0.27257   0.00000  Uiso   1.00
N212   N     0.74157   0.04128   0.28154   0.00000  Uiso   1.00
H213   H     0.71495   0.02544   0.27061   0.00000  Uiso   1.00
C214   C     0.72520   0.05494   0.33593   0.00000  Uiso   1.00
H215   H     0.71856   0.02809   0.36191   0.00000  Uiso   1.00
H216   H     0.69090   0.07269   0.34301   0.00000  Uiso   1.00
H217   H     0.75238   0.07517   0.34590   0.00000  Uiso   1.00
N218   N     0.72836   0.10364   0.19703   0.00000  Uiso   1.00
H219   H     0.71428   0.07491   0.20663   0.00000  Uiso   1.00
C220   C     0.74523   0.10815   0.14073   0.00000  Uiso   1.00
H221   H     0.72676   0.08584   0.12099   0.00000  Uiso   1.00
H222   H     0.78470   0.10164   0.12678   0.00000  Uiso   1.00
H223   H     0.73828   0.13955   0.12908   0.00000  Uiso   1.00
C224   C     0.95740   0.21515   0.40868   0.00000  Uiso   1.00
N225   N     0.99508   0.22839   0.38832   0.00000  Uiso   1.00
N226   N     0.68267   0.21684   0.01205   0.00000  Uiso   1.00
H227   H     0.67008   0.21163   0.05166   0.00000  Uiso   1.00
C228   C     0.67929   0.26000   0.00208   0.00000  Uiso   1.00
H229   H     0.97420   0.27019   0.01646   0.00000  Uiso   1.00
H230   H     0.69292   0.26590   0.45953   0.00000  Uiso   1.00
H231   H     0.70088   0.27826   0.02293   0.00000  Uiso   1.00
N232   N     0.87706   0.23913   0.37176   0.00000  Uiso   1.00
H233   H     0.91081   0.25199   0.35938   0.00000  Uiso   1.00
C234   C     0.84030   0.27130   0.38439   0.00000  Uiso   1.00
H235   H     0.85199   0.29722   0.35758   0.00000  Uiso   1.00
H236   H     0.83466   0.28326   0.42516   0.00000  Uiso   1.00
H237   H     0.80564   0.25993   0.37950   0.00000  Uiso   1.00
C238   C     0.16649   0.57912   0.25045   0.00000  Uiso   1.00
C239   C     0.14531   0.52416   0.48964   0.00000  Uiso   1.00
C240   C     0.15947   0.52513   0.43453   0.00000  Uiso   1.00
C241   C     0.18169   0.51869   0.01480   0.00000  Uiso   1.00
C242   C     0.23065   0.51720   0.48400   0.00000  Uiso   1.00
C243   C     0.24271   0.53356   0.43327   0.00000  Uiso   1.00
C244   C     0.20533   0.54148   0.41037   0.00000  Uiso   1.00
C245   C     0.17095   0.51304   0.06878   0.00000  Uiso   1.00
C246   C     0.25375   0.49244   0.05903   0.00000  Uiso   1.00
C247   C     0.12540   0.51578   0.40713   0.00000  Uiso   1.00
C248   C     0.20807   0.64454   0.25188   0.00000  Uiso   1.00
C249   C     0.14074   0.50449   0.35003   0.00000  Uiso   1.00
C250   C     0.20770   0.35352   0.25711   0.00000  Uiso   1.00
C251   C     0.16477   0.37597   0.25976   0.00000  Uiso   1.00
C252   C     0.12079   0.35429   0.26688   0.00000  Uiso   1.00
C253   C     0.12207   0.64501   0.26193   0.00000  Uiso   1.00
C254   C     0.16572   0.62359   0.25324   0.00000  Uiso   1.00
C255   C     0.30340   0.53254   0.27008   0.00000  Uiso   1.00
C256   C     0.01914   0.53234   0.27078   0.00000  Uiso   1.00
C257   C     0.03101   0.46898   0.22526   0.00000  Uiso   1.00
C258   C     0.31477   0.46902   0.22601   0.00000  Uiso   1.00
C259   C     0.16582   0.42084   0.25373   0.00000  Uiso   1.00
C260   C     0.19257   0.49931   0.14967   0.00000  Uiso   1.00
C261   C     0.26563   0.50126   0.00559   0.00000  Uiso   1.00
C262   C     0.20670   0.50142   0.09180   0.00000  Uiso   1.00
C263   C     0.07616   0.52009   0.43493   0.00000  Uiso   1.00
C264   C     0.06241   0.53269   0.48798   0.00000  Uiso   1.00
C265   C     0.09604   0.53039   0.01628   0.00000  Uiso   1.00
Cu266  Cu    0.11978   0.49999   0.25000   0.00000  Uiso   1.00
Cu267  Cu    0.21355   0.50001   0.25000   0.00000  Uiso   1.00
H268   H     0.08849   0.62864   0.26661   0.00000  Uiso   1.00
H269   H     0.28167   0.55951   0.28382   0.00000  Uiso   1.00
H270   H     0.03312   0.55871   0.28678   0.00000  Uiso   1.00
H271   H     0.30151   0.44472   0.20566   0.00000  Uiso   1.00
H272   H     0.30188   0.49492   0.48051   0.00000  Uiso   1.00
H273   H     0.13463   0.51759   0.09367   0.00000  Uiso   1.00
H274   H     0.04896   0.51552   0.41507   0.00000  Uiso   1.00
H275   H     0.08342   0.53718   0.05784   0.00000  Uiso   1.00
H276   H     0.24139   0.62779   0.24871   0.00000  Uiso   1.00
N277   N     0.04931   0.49999   0.24998   0.00000  Uiso   1.00
N278   N     0.28402   0.50002   0.25000   0.00000  Uiso   1.00
O279   O     0.12708   0.56011   0.25000   0.00000  Uiso   1.00
O280   O     0.20627   0.56012   0.25001   0.00000  Uiso   1.00
O281   O     0.10775   0.49998   0.32549   0.00000  Uiso   1.00
O282   O     0.18694   0.49999   0.32549   0.00000  Uiso   1.00
O283   O     0.12706   0.43988   0.25000   0.00000  Uiso   1.00
O284   O     0.20625   0.43989   0.25000   0.00000  Uiso   1.00
O285   O     0.14640   0.50001   0.17451   0.00000  Uiso   1.00
O286   O     0.22559   0.50002   0.17451   0.00000  Uiso   1.00
C287   C     0.28993   0.47328   0.07859   0.00000  Uiso   1.00
N288   N     0.31903   0.45783   0.09408   0.00000  Uiso   1.00
C289   C     0.25075   0.37155   0.26515   0.00000  Uiso   1.00
N290   N     0.28527   0.38512   0.27257   0.00000  Uiso   1.00
N291   N     0.07491   0.37462   0.28154   0.00000  Uiso   1.00
H292   H     0.04828   0.35878   0.27061   0.00000  Uiso   1.00
C293   C     0.05853   0.38828   0.33593   0.00000  Uiso   1.00
H294   H     0.05190   0.36143   0.36191   0.00000  Uiso   1.00
H295   H     0.02424   0.40602   0.34301   0.00000  Uiso   1.00
H296   H     0.08571   0.40850   0.34590   0.00000  Uiso   1.00
N297   N     0.06169   0.43697   0.19703   0.00000  Uiso   1.00
H298   H     0.04762   0.40824   0.20663   0.00000  Uiso   1.00
C299   C     0.07856   0.44149   0.14073   0.00000  Uiso   1.00
H300   H     0.06010   0.41917   0.12099   0.00000  Uiso   1.00
H301   H     0.11804   0.43497   0.12678   0.00000  Uiso   1.00
H302   H     0.07161   0.47289   0.12908   0.00000  Uiso   1.00
C303   C     0.29074   0.54849   0.40868   0.00000  Uiso   1.00
N304   N     0.32842   0.56173   0.38832   0.00000  Uiso   1.00
N305   N     0.01600   0.55017   0.01205   0.00000  Uiso   1.00
H306   H     0.00341   0.54496   0.05166   0.00000  Uiso   1.00
C307   C     0.01263   0.59333   0.00208   0.00000  Uiso   1.00
H308   H     0.30753   0.60352   0.01646   0.00000  Uiso   1.00
H309   H     0.02626   0.59924   0.45953   0.00000  Uiso   1.00
H310   H     0.03421   0.61160   0.02293   0.00000  Uiso   1.00
N311   N     0.21039   0.57246   0.37176   0.00000  Uiso   1.00
H312   H     0.24414   0.58532   0.35938   0.00000  Uiso   1.00
C313   C     0.17364   0.60463   0.38439   0.00000  Uiso   1.00
H314   H     0.18533   0.63056   0.35758   0.00000  Uiso   1.00
H315   H     0.16800   0.61659   0.42516   0.00000  Uiso   1.00
H316   H     0.13898   0.59326   0.37950   0.00000  Uiso   1.00
C317   C     0.49983   0.57912   0.25045   0.00000  Uiso   1.00
C318   C     0.47864   0.52416   0.48964   0.00000  Uiso   1.00
C319   C     0.49280   0.52513   0.43453   0.00000  Uiso   1.00
C320   C     0.51503   0.51869   0.01480   0.00000  Uiso   1.00
C321   C     0.56398   0.51720   0.48400   0.00000  Uiso   1.00
C322   C     0.57605   0.53356   0.43327   0.00000  Uiso   1.00
C323   C     0.53866   0.54148   0.41037   0.00000  Uiso   1.00
C324   C     0.50428   0.51304   0.06878   0.00000  Uiso   1.00
C325   C     0.58709   0.49244   0.05903   0.00000  Uiso   1.00
C326   C     0.45873   0.51578   0.40713   0.00000  Uiso   1.00
C327   C     0.54140   0.64454   0.25188   0.00000  Uiso   1.00
C328   C     0.47408   0.50449   0.35003   0.00000  Uiso   1.00
C329   C     0.54103   0.35352   0.25711   0.00000  Uiso   1.00
C330   C     0.49810   0.37597   0.25976   0.00000  Uiso   1.00
C331   C     0.45413   0.35429   0.26688   0.00000  Uiso   1.00
C332   C     0.45540   0.64501   0.26193   0.00000  Uiso   1.00
C333   C     0.49905   0.62359   0.25324   0.00000  Uiso   1.00
C334   C     0.63673   0.53254   0.27008   0.00000  Uiso   1.00
C335   C     0.35247   0.53234   0.27078   0.00000  Uiso   1.00
C336   C     0.36434   0.46898   0.22526   0.00000  Uiso   1.00
C337   C     0.64810   0.46902   0.22601   0.00000  Uiso   1.00
C338   C     0.49915   0.42084   0.25373   0.00000  Uiso   1.00
C339   C     0.52590   0.49931   0.14967   0.00000  Uiso   1.00
C340   C     0.59897   0.50126   0.00559   0.00000  Uiso   1.00
C341   C     0.54004   0.50142   0.09180   0.00000  Uiso   1.00
C342   C     0.40950   0.52009   0.43493   0.00000  Uiso   1.00
C343   C     0.39574   0.53269   0.48798   0.00000  Uiso   1.00
C344   C     0.42937   0.53039   0.01628   0.00000  Uiso   1.00
Cu345  Cu    0.45311   0.49999   0.25000   0.00000  Uiso   1.00
Cu346  Cu    0.54689   0.50001   0.25000   0.00000  Uiso   1.00
H347   H     0.42182   0.62864   0.26661   0.00000  Uiso   1.00
H348   H     0.61500   0.55951   0.28382   0.00000  Uiso   1.00
H349   H     0.36645   0.55871   0.28678   0.00000  Uiso   1.00
H350   H     0.63484   0.44472   0.20566   0.00000  Uiso   1.00
H351   H     0.63522   0.49492   0.48051   0.00000  Uiso   1.00
H352   H     0.46796   0.51759   0.09367   0.00000  Uiso   1.00
H353   H     0.38229   0.51552   0.41507   0.00000  Uiso   1.00
H354   H     0.41676   0.53718   0.05784   0.00000  Uiso   1.00
H355   H     0.57472   0.62779   0.24871   0.00000  Uiso   1.00
N356   N     0.38265   0.49999   0.24998   0.00000  Uiso   1.00
N357   N     0.61735   0.50002   0.25000   0.00000  Uiso   1.00
O358   O     0.46042   0.56011   0.25000   0.00000  Uiso   1.00
O359   O     0.53961   0.56012   0.25001   0.00000  Uiso   1.00
O360   O     0.44108   0.49998   0.32549   0.00000  Uiso   1.00
O361   O     0.52027   0.49999   0.32549   0.00000  Uiso   1.00
O362   O     0.46039   0.43988   0.25000   0.00000  Uiso   1.00
O363   O     0.53958   0.43989   0.25000   0.00000  Uiso   1.00
O364   O     0.47973   0.50001   0.17451   0.00000  Uiso   1.00
O365   O     0.55892   0.50002   0.17451   0.00000  Uiso   1.00
C366   C     0.62327   0.47328   0.07859   0.00000  Uiso   1.00
N367   N     0.65236   0.45783   0.09408   0.00000  Uiso   1.00
C368   C     0.58408   0.37155   0.26515   0.00000  Uiso   1.00
N369   N     0.61860   0.38512   0.27257   0.00000  Uiso   1.00
N370   N     0.40824   0.37462   0.28154   0.00000  Uiso   1.00
H371   H     0.38162   0.35878   0.27061   0.00000  Uiso   1.00
C372   C     0.39186   0.38828   0.33593   0.00000  Uiso   1.00
H373   H     0.38523   0.36143   0.36191   0.00000  Uiso   1.00
H374   H     0.35757   0.40602   0.34301   0.00000  Uiso   1.00
H375   H     0.41904   0.40850   0.34590   0.00000  Uiso   1.00
N376   N     0.39502   0.43697   0.19703   0.00000  Uiso   1.00
H377   H     0.38095   0.40824   0.20663   0.00000  Uiso   1.00
C378   C     0.41190   0.44149   0.14073   0.00000  Uiso   1.00
H379   H     0.39343   0.41917   0.12099   0.00000  Uiso   1.00
H380   H     0.45137   0.43497   0.12678   0.00000  Uiso   1.00
H381   H     0.40494   0.47289   0.12908   0.00000  Uiso   1.00
C382   C     0.62407   0.54849   0.40868   0.00000  Uiso   1.00
N383   N     0.66175   0.56173   0.38832   0.00000  Uiso   1.00
N384   N     0.34933   0.55017   0.01205   0.00000  Uiso   1.00
H385   H     0.33675   0.54496   0.05166   0.00000  Uiso   1.00
C386   C     0.34596   0.59333   0.00208   0.00000  Uiso   1.00
H387   H     0.64087   0.60352   0.01646   0.00000  Uiso   1.00
H388   H     0.35959   0.59924   0.45953   0.00000  Uiso   1.00
H389   H     0.36754   0.61160   0.02293   0.00000  Uiso   1.00
N390   N     0.54372   0.57246   0.37176   0.00000  Uiso   1.00
H391   H     0.57747   0.58532   0.35938   0.00000  Uiso   1.00
C392   C     0.50697   0.60463   0.38439   0.00000  Uiso   1.00
H393   H     0.51866   0.63056   0.35758   0.00000  Uiso   1.00
H394   H     0.50133   0.61659   0.42516   0.00000  Uiso   1.00
H395   H     0.47231   0.59326   0.37950   0.00000  Uiso   1.00
C396   C     0.83316   0.57912   0.25045   0.00000  Uiso   1.00
C397   C     0.81197   0.52416   0.48964   0.00000  Uiso   1.00
C398   C     0.82613   0.52513   0.43453   0.00000  Uiso   1.00
C399   C     0.84836   0.51869   0.01480   0.00000  Uiso   1.00
C400   C     0.89731   0.51720   0.48400   0.00000  Uiso   1.00
C401   C     0.90938   0.53356   0.43327   0.00000  Uiso   1.00
C402   C     0.87200   0.54148   0.41037   0.00000  Uiso   1.00
C403   C     0.83761   0.51304   0.06878   0.00000  Uiso   1.00
C404   C     0.92042   0.49244   0.05903   0.00000  Uiso   1.00
C405   C     0.79207   0.51578   0.40713   0.00000  Uiso   1.00
C406   C     0.87474   0.64454   0.25188   0.00000  Uiso   1.00
C407   C     0.80741   0.50449   0.35003   0.00000  Uiso   1.00
C408   C     0.87436   0.35352   0.25711   0.00000  Uiso   1.00
C409   C     0.83144   0.37597   0.25976   0.00000  Uiso   1.00
C410   C     0.78746   0.35429   0.26688   0.00000  Uiso   1.00
C411   C     0.78873   0.64501   0.26193   0.00000  Uiso   1.00
C412   C     0.83238   0.62359   0.25324   0.00000  Uiso   1.00
C413   C     0.97007   0.53254   0.27008   0.00000  Uiso   1.00
C414   C     0.68581   0.53234   0.27078   0.00000  Uiso   1.00
C415   C     0.69767   0.46898   0.22526   0.00000  Uiso   1.00
C416   C     0.98143   0.46902   0.22601   0.00000  Uiso   1.00
C417   C     0.83249   0.42084   0.25373   0.00000  Uiso   1.00
C418   C     0.85923   0.49931   0.14967   0.00000  Uiso   1.00
C419   C     0.93230   0.50126   0.00559   0.00000  Uiso   1.00
C420   C     0.87337   0.50142   0.09180   0.00000  Uiso   1.00
C421   C     0.74283   0.52009   0.43493   0.00000  Uiso   1.00
C422   C     0.72907   0.53269   0.48798   0.00000  Uiso   1.00
C423   C     0.76270   0.53039   0.01628   0.00000  Uiso   1.00
Cu424  Cu    0.78645   0.49999   0.25000   0.00000  Uiso   1.00
Cu425  Cu    0.88022   0.50001   0.25000   0.00000  Uiso   1.00
H426   H     0.75515   0.62864   0.26661   0.00000  Uiso   1.00
H427   H     0.94834   0.55951   0.28382   0.00000  Uiso   1.00
H428   H     0.69979   0.55871   0.28678   0.00000  Uiso   1.00
H429   H     0.96818   0.44472   0.20566   0.00000  Uiso   1.00
H430   H     0.96855   0.49492   0.48051   0.00000  Uiso   1.00
H431   H     0.80129   0.51759   0.09367   0.00000  Uiso   1.00
H432   H     0.71563   0.51552   0.41507   0.00000  Uiso   1.00
H433   H     0.75009   0.53718   0.05784   0.00000  Uiso   1.00
H434   H     0.90806   0.62779   0.24871   0.00000  Uiso   1.00
N435   N     0.71598   0.49999   0.24998   0.00000  Uiso   1.00
N436   N     0.95069   0.50002   0.25000   0.00000  Uiso   1.00
O437   O     0.79375   0.56011   0.25000   0.00000  Uiso   1.00
O438   O     0.87294   0.56012   0.25001   0.00000  Uiso   1.00
O439   O     0.77441   0.49998   0.32549   0.00000  Uiso   1.00
O440   O     0.85360   0.49999   0.32549   0.00000  Uiso   1.00
O441   O     0.79373   0.43988   0.25000   0.00000  Uiso   1.00
O442   O     0.87292   0.43989   0.25000   0.00000  Uiso   1.00
O443   O     0.81306   0.50001   0.17451   0.00000  Uiso   1.00
O444   O     0.89225   0.50002   0.17451   0.00000  Uiso   1.00
C445   C     0.95660   0.47328   0.07859   0.00000  Uiso   1.00
N446   N     0.98569   0.45783   0.09408   0.00000  Uiso   1.00
C447   C     0.91742   0.37155   0.26515   0.00000  Uiso   1.00
N448   N     0.95194   0.38512   0.27257   0.00000  Uiso   1.00
N449   N     0.74157   0.37462   0.28154   0.00000  Uiso   1.00
H450   H     0.71495   0.35878   0.27061   0.00000  Uiso   1.00
C451   C     0.72520   0.38828   0.33593   0.00000  Uiso   1.00
H452   H     0.71856   0.36143   0.36191   0.00000  Uiso   1.00
H453   H     0.69090   0.40602   0.34301   0.00000  Uiso   1.00
H454   H     0.75238   0.40850   0.34590   0.00000  Uiso   1.00
N455   N     0.72836   0.43697   0.19703   0.00000  Uiso   1.00
H456   H     0.71428   0.40824   0.20663   0.00000  Uiso   1.00
C457   C     0.74523   0.44149   0.14073   0.00000  Uiso   1.00
H458   H     0.72676   0.41917   0.12099   0.00000  Uiso   1.00
H459   H     0.78470   0.43497   0.12678   0.00000  Uiso   1.00
H460   H     0.73828   0.47289   0.12908   0.00000  Uiso   1.00
C461   C     0.95740   0.54849   0.40868   0.00000  Uiso   1.00
N462   N     0.99508   0.56173   0.38832   0.00000  Uiso   1.00
N463   N     0.68267   0.55017   0.01205   0.00000  Uiso   1.00
H464   H     0.67008   0.54496   0.05166   0.00000  Uiso   1.00
C465   C     0.67929   0.59333   0.00208   0.00000  Uiso   1.00
H466   H     0.97420   0.60352   0.01646   0.00000  Uiso   1.00
H467   H     0.69292   0.59924   0.45953   0.00000  Uiso   1.00
H468   H     0.70088   0.61160   0.02293   0.00000  Uiso   1.00
N469   N     0.87706   0.57246   0.37176   0.00000  Uiso   1.00
H470   H     0.91081   0.58532   0.35938   0.00000  Uiso   1.00
C471   C     0.84030   0.60463   0.38439   0.00000  Uiso   1.00
H472   H     0.85199   0.63056   0.35758   0.00000  Uiso   1.00
H473   H     0.83466   0.61659   0.42516   0.00000  Uiso   1.00
H474   H     0.80564   0.59326   0.37950   0.00000  Uiso   1.00
C475   C     0.16649   0.91245   0.25045   0.00000  Uiso   1.00
C476   C     0.14531   0.85749   0.48964   0.00000  Uiso   1.00
C477   C     0.15947   0.85846   0.43453   0.00000  Uiso   1.00
C478   C     0.18169   0.85202   0.01480   0.00000  Uiso   1.00
C479   C     0.23065   0.85054   0.48400   0.00000  Uiso   1.00
C480   C     0.24271   0.86689   0.43327   0.00000  Uiso   1.00
C481   C     0.20533   0.87481   0.41037   0.00000  Uiso   1.00
C482   C     0.17095   0.84638   0.06878   0.00000  Uiso   1.00
C483   C     0.25375   0.82577   0.05903   0.00000  Uiso   1.00
C484   C     0.12540   0.84911   0.40713   0.00000  Uiso   1.00
C485   C     0.20807   0.97787   0.25188   0.00000  Uiso   1.00
C486   C     0.14074   0.83783   0.35003   0.00000  Uiso   1.00
C487   C     0.20770   0.68685   0.25711   0.00000  Uiso   1.00
C488   C     0.16477   0.70931   0.25976   0.00000  Uiso   1.00
C489   C     0.12079   0.68763   0.26688   0.00000  Uiso   1.00
C490   C     0.12207   0.97835   0.26193   0.00000  Uiso   1.00
C491   C     0.16572   0.95693   0.25324   0.00000  Uiso   1.00
C492   C     0.30340   0.86588   0.27008   0.00000  Uiso   1.00
C493   C     0.01914   0.86567   0.27078   0.00000  Uiso   1.00
C494   C     0.03101   0.80231   0.22526   0.00000  Uiso   1.00
C495   C     0.31477   0.80236   0.22601   0.00000  Uiso   1.00
C496   C     0.16582   0.75417   0.25373   0.00000  Uiso   1.00
C497   C     0.19257   0.83265   0.14967   0.00000  Uiso   1.00
C498   C     0.26563   0.83459   0.00559   0.00000  Uiso   1.00
C499   C     0.20670   0.83475   0.09180   0.00000  Uiso   1.00
C500   C     0.07616   0.85343   0.43493   0.00000  Uiso   1.00
C501   C     0.06241   0.86602   0.48798   0.00000  Uiso   1.00
C502   C     0.09604   0.86373   0.01628   0.00000  Uiso   1.00
Cu503  Cu    0.11978   0.83333   0.25000   0.00000  Uiso   1.00
Cu504  Cu    0.21355   0.83334   0.25000   0.00000  Uiso   1.00
H505   H     0.08849   0.96197   0.26661   0.00000  Uiso   1.00
H506   H     0.28167   0.89284   0.28382   0.00000  Uiso   1.00
H507   H     0.03312   0.89204   0.28678   0.00000  Uiso   1.00
H508   H     0.30151   0.77805   0.20566   0.00000  Uiso   1.00
H509   H     0.30188   0.82825   0.48051   0.00000  Uiso   1.00
H510   H     0.13463   0.85092   0.09367   0.00000  Uiso   1.00
H511   H     0.04896   0.84885   0.41507   0.00000  Uiso   1.00
H512   H     0.08342   0.87051   0.05784   0.00000  Uiso   1.00
H513   H     0.24139   0.96112   0.24871   0.00000  Uiso   1.00
N514   N     0.04931   0.83332   0.24998   0.00000  Uiso   1.00
N515   N     0.28402   0.83335   0.25000   0.00000  Uiso   1.00
O516   O     0.12708   0.89345   0.25000   0.00000  Uiso   1.00
O517   O     0.20627   0.89346   0.25001   0.00000  Uiso   1.00
O518   O     0.10775   0.83332   0.32549   0.00000  Uiso   1.00
O519   O     0.18694   0.83333   0.32549   0.00000  Uiso   1.00
O520   O     0.12706   0.77321   0.25000   0.00000  Uiso   1.00
O521   O     0.20625   0.77322   0.25000   0.00000  Uiso   1.00
O522   O     0.14640   0.83334   0.17451   0.00000  Uiso   1.00
O523   O     0.22559   0.83335   0.17451   0.00000  Uiso   1.00
C524   C     0.28993   0.80662   0.07859   0.00000  Uiso   1.00
N525   N     0.31903   0.79117   0.09408   0.00000  Uiso   1.00
C526   C     0.25075   0.70488   0.26515   0.00000  Uiso   1.00
N527   N     0.28527   0.71845   0.27257   0.00000  Uiso   1.00
N528   N     0.07491   0.70795   0.28154   0.00000  Uiso   1.00
H529   H     0.04828   0.69211   0.27061   0.00000  Uiso   1.00
C530   C     0.05853   0.72161   0.33593   0.00000  Uiso   1.00
H531   H     0.05190   0.69476   0.36191   0.00000  Uiso   1.00
H532   H     0.02424   0.73935   0.34301   0.00000  Uiso   1.00
H533   H     0.08571   0.74183   0.34590   0.00000  Uiso   1.00
N534   N     0.06169   0.77030   0.19703   0.00000  Uiso   1.00
H535   H     0.04762   0.74157   0.20663   0.00000  Uiso   1.00
C536   C     0.07856   0.77482   0.14073   0.00000  Uiso   1.00
H537   H     0.06010   0.75250   0.12099   0.00000  Uiso   1.00
H538   H     0.11804   0.76831   0.12678   0.00000  Uiso   1.00
H539   H     0.07161   0.80622   0.12908   0.00000  Uiso   1.00
C540   C     0.29074   0.88182   0.40868   0.00000  Uiso   1.00
N541   N     0.32842   0.89506   0.38832   0.00000  Uiso   1.00
N542   N     0.01600   0.88351   0.01205   0.00000  Uiso   1.00
H543   H     0.00341   0.87830   0.05166   0.00000  Uiso   1.00
C544   C     0.01263   0.92667   0.00208   0.00000  Uiso   1.00
H545   H     0.30753   0.93685   0.01646   0.00000  Uiso   1.00
H546   H     0.02626   0.93257   0.45953   0.00000  Uiso   1.00
H547   H     0.03421   0.94493   0.02293   0.00000  Uiso   1.00
N548   N     0.21039   0.90580   0.37176   0.00000  Uiso   1.00
H549   H     0.24414   0.91866   0.35938   0.00000  Uiso   1.00
C550   C     0.17364   0.93797   0.38439   0.00000  Uiso   1.00
H551   H     0.18533   0.96389   0.35758   0.00000  Uiso   1.00
H552   H     0.16800   0.94992   0.42516   0.00000  Uiso   1.00
H553   H     0.13898   0.92660   0.37950   0.00000  Uiso   1.00
C554   C     0.49983   0.91245   0.25045   0.00000  Uiso   1.00
C555   C     0.47864   0.85749   0.48964   0.00000  Uiso   1.00
C556   C     0.49280   0.85846   0.43453   0.00000  Uiso   1.00
C557   C     0.51503   0.85202   0.01480   0.00000  Uiso   1.00
C558   C     0.56398   0.85054   0.48400   0.00000  Uiso   1.00
C559   C     0.57605   0.86689   0.43327   0.00000  Uiso   1.00
C560   C     0.53866   0.87481   0.41037   0.00000  Uiso   1.00
C561   C     0.50428   0.84638   0.06878   0.00000  Uiso   1.00
C562   C     0.58709   0.82577   0.05903   0.00000  Uiso   1.00
C563   C     0.45873   0.84911   0.40713   0.00000  Uiso   1.00
C564   C     0.54140   0.97787   0.25188   0.00000  Uiso   1.00
C565   C     0.47408   0.83783   0.35003   0.00000  Uiso   1.00
C566   C     0.54103   0.68685   0.25711   0.00000  Uiso   1.00
C567   C     0.49810   0.70931   0.25976   0.00000  Uiso   1.00
C568   C     0.45413   0.68763   0.26688   0.00000  Uiso   1.00
C569   C     0.45540   0.97835   0.26193   0.00000  Uiso   1.00
C570   C     0.49905   0.95693   0.25324   0.00000  Uiso   1.00
C571   C     0.63673   0.86588   0.27008   0.00000  Uiso   1.00
C572   C     0.35247   0.86567   0.27078   0.00000  Uiso   1.00
C573   C     0.36434   0.80231   0.22526   0.00000  Uiso   1.00
C574   C     0.64810   0.80236   0.22601   0.00000  Uiso   1.00
C575   C     0.49915   0.75417   0.25373   0.00000  Uiso   1.00
C576   C     0.52590   0.83265   0.14967   0.00000  Uiso   1.00
C577   C     0.59897   0.83459   0.00559   0.00000  Uiso   1.00
C578   C     0.54004   0.83475   0.09180   0.00000  Uiso   1.00
C579   C     0.40950   0.85343   0.43493   0.00000  Uiso   1.00
C580   C     0.39574   0.86602   0.48798   0.00000  Uiso   1.00
C581   C     0.42937   0.86373   0.01628   0.00000  Uiso   1.00
Cu582  Cu    0.45311   0.83333   0.25000   0.00000  Uiso   1.00
Cu583  Cu    0.54689   0.83334   0.25000   0.00000  Uiso   1.00
H584   H     0.42182   0.96197   0.26661   0.00000  Uiso   1.00
H585   H     0.61500   0.89284   0.28382   0.00000  Uiso   1.00
H586   H     0.36645   0.89204   0.28678   0.00000  Uiso   1.00
H587   H     0.63484   0.77805   0.20566   0.00000  Uiso   1.00
H588   H     0.63522   0.82825   0.48051   0.00000  Uiso   1.00
H589   H     0.46796   0.85092   0.09367   0.00000  Uiso   1.00
H590   H     0.38229   0.84885   0.41507   0.00000  Uiso   1.00
H591   H     0.41676   0.87051   0.05784   0.00000  Uiso   1.00
H592   H     0.57472   0.96112   0.24871   0.00000  Uiso   1.00
N593   N     0.38265   0.83332   0.24998   0.00000  Uiso   1.00
N594   N     0.61735   0.83335   0.25000   0.00000  Uiso   1.00
O595   O     0.46042   0.89345   0.25000   0.00000  Uiso   1.00
O596   O     0.53961   0.89346   0.25001   0.00000  Uiso   1.00
O597   O     0.44108   0.83332   0.32549   0.00000  Uiso   1.00
O598   O     0.52027   0.83333   0.32549   0.00000  Uiso   1.00
O599   O     0.46039   0.77321   0.25000   0.00000  Uiso   1.00
O600   O     0.53958   0.77322   0.25000   0.00000  Uiso   1.00
O601   O     0.47973   0.83334   0.17451   0.00000  Uiso   1.00
O602   O     0.55892   0.83335   0.17451   0.00000  Uiso   1.00
C603   C     0.62327   0.80662   0.07859   0.00000  Uiso   1.00
N604   N     0.65236   0.79117   0.09408   0.00000  Uiso   1.00
C605   C     0.58408   0.70488   0.26515   0.00000  Uiso   1.00
N606   N     0.61860   0.71845   0.27257   0.00000  Uiso   1.00
N607   N     0.40824   0.70795   0.28154   0.00000  Uiso   1.00
H608   H     0.38162   0.69211   0.27061   0.00000  Uiso   1.00
C609   C     0.39186   0.72161   0.33593   0.00000  Uiso   1.00
H610   H     0.38523   0.69476   0.36191   0.00000  Uiso   1.00
H611   H     0.35757   0.73935   0.34301   0.00000  Uiso   1.00
H612   H     0.41904   0.74183   0.34590   0.00000  Uiso   1.00
N613   N     0.39502   0.77030   0.19703   0.00000  Uiso   1.00
H614   H     0.38095   0.74157   0.20663   0.00000  Uiso   1.00
C615   C     0.41190   0.77482   0.14073   0.00000  Uiso   1.00
H616   H     0.39343   0.75250   0.12099   0.00000  Uiso   1.00
H617   H     0.45137   0.76831   0.12678   0.00000  Uiso   1.00
H618   H     0.40494   0.80622   0.12908   0.00000  Uiso   1.00
C619   C     0.62407   0.88182   0.40868   0.00000  Uiso   1.00
N620   N     0.66175   0.89506   0.38832   0.00000  Uiso   1.00
N621   N     0.34933   0.88351   0.01205   0.00000  Uiso   1.00
H622   H     0.33675   0.87830   0.05166   0.00000  Uiso   1.00
C623   C     0.34596   0.92667   0.00208   0.00000  Uiso   1.00
H624   H     0.64087   0.93685   0.01646   0.00000  Uiso   1.00
H625   H     0.35959   0.93257   0.45953   0.00000  Uiso   1.00
H626   H     0.36754   0.94493   0.02293   0.00000  Uiso   1.00
N627   N     0.54372   0.90580   0.37176   0.00000  Uiso   1.00
H628   H     0.57747   0.91866   0.35938   0.00000  Uiso   1.00
C629   C     0.50697   0.93797   0.38439   0.00000  Uiso   1.00
H630   H     0.51866   0.96389   0.35758   0.00000  Uiso   1.00
H631   H     0.50133   0.94992   0.42516   0.00000  Uiso   1.00
H632   H     0.47231   0.92660   0.37950   0.00000  Uiso   1.00
C633   C     0.83316   0.91245   0.25045   0.00000  Uiso   1.00
C634   C     0.81197   0.85749   0.48964   0.00000  Uiso   1.00
C635   C     0.82613   0.85846   0.43453   0.00000  Uiso   1.00
C636   C     0.84836   0.85202   0.01480   0.00000  Uiso   1.00
C637   C     0.89731   0.85054   0.48400   0.00000  Uiso   1.00
C638   C     0.90938   0.86689   0.43327   0.00000  Uiso   1.00
C639   C     0.87200   0.87481   0.41037   0.00000  Uiso   1.00
C640   C     0.83761   0.84638   0.06878   0.00000  Uiso   1.00
C641   C     0.92042   0.82577   0.05903   0.00000  Uiso   1.00
C642   C     0.79207   0.84911   0.40713   0.00000  Uiso   1.00
C643   C     0.87474   0.97787   0.25188   0.00000  Uiso   1.00
C644   C     0.80741   0.83783   0.35003   0.00000  Uiso   1.00
C645   C     0.87436   0.68685   0.25711   0.00000  Uiso   1.00
C646   C     0.83144   0.70931   0.25976   0.00000  Uiso   1.00
C647   C     0.78746   0.68763   0.26688   0.00000  Uiso   1.00
C648   C     0.78873   0.97835   0.26193   0.00000  Uiso   1.00
C649   C     0.83238   0.95693   0.25324   0.00000  Uiso   1.00
C650   C     0.97007   0.86588   0.27008   0.00000  Uiso   1.00
C651   C     0.68581   0.86567   0.27078   0.00000  Uiso   1.00
C652   C     0.69767   0.80231   0.22526   0.00000  Uiso   1.00
C653   C     0.98143   0.80236   0.22601   0.00000  Uiso   1.00
C654   C     0.83249   0.75417   0.25373   0.00000  Uiso   1.00
C655   C     0.85923   0.83265   0.14967   0.00000  Uiso   1.00
C656   C     0.93230   0.83459   0.00559   0.00000  Uiso   1.00
C657   C     0.87337   0.83475   0.09180   0.00000  Uiso   1.00
C658   C     0.74283   0.85343   0.43493   0.00000  Uiso   1.00
C659   C     0.72907   0.86602   0.48798   0.00000  Uiso   1.00
C660   C     0.76270   0.86373   0.01628   0.00000  Uiso   1.00
Cu661  Cu    0.78645   0.83333   0.25000   0.00000  Uiso   1.00
Cu662  Cu    0.88022   0.83334   0.25000   0.00000  Uiso   1.00
H663   H     0.75515   0.96197   0.26661   0.00000  Uiso   1.00
H664   H     0.94834   0.89284   0.28382   0.00000  Uiso   1.00
H665   H     0.69979   0.89204   0.28678   0.00000  Uiso   1.00
H666   H     0.96818   0.77805   0.20566   0.00000  Uiso   1.00
H667   H     0.96855   0.82825   0.48051   0.00000  Uiso   1.00
H668   H     0.80129   0.85092   0.09367   0.00000  Uiso   1.00
H669   H     0.71563   0.84885   0.41507   0.00000  Uiso   1.00
H670   H     0.75009   0.87051   0.05784   0.00000  Uiso   1.00
H671   H     0.90806   0.96112   0.24871   0.00000  Uiso   1.00
N672   N     0.71598   0.83332   0.24998   0.00000  Uiso   1.00
N673   N     0.95069   0.83335   0.25000   0.00000  Uiso   1.00
O674   O     0.79375   0.89345   0.25000   0.00000  Uiso   1.00
O675   O     0.87294   0.89346   0.25001   0.00000  Uiso   1.00
O676   O     0.77441   0.83332   0.32549   0.00000  Uiso   1.00
O677   O     0.85360   0.83333   0.32549   0.00000  Uiso   1.00
O678   O     0.79373   0.77321   0.25000   0.00000  Uiso   1.00
O679   O     0.87292   0.77322   0.25000   0.00000  Uiso   1.00
O680   O     0.81306   0.83334   0.17451   0.00000  Uiso   1.00
O681   O     0.89225   0.83335   0.17451   0.00000  Uiso   1.00
C682   C     0.95660   0.80662   0.07859   0.00000  Uiso   1.00
N683   N     0.98569   0.79117   0.09408   0.00000  Uiso   1.00
C684   C     0.91742   0.70488   0.26515   0.00000  Uiso   1.00
N685   N     0.95194   0.71845   0.27257   0.00000  Uiso   1.00
N686   N     0.74157   0.70795   0.28154   0.00000  Uiso   1.00
H687   H     0.71495   0.69211   0.27061   0.00000  Uiso   1.00
C688   C     0.72520   0.72161   0.33593   0.00000  Uiso   1.00
H689   H     0.71856   0.69476   0.36191   0.00000  Uiso   1.00
H690   H     0.69090   0.73935   0.34301   0.00000  Uiso   1.00
H691   H     0.75238   0.74183   0.34590   0.00000  Uiso   1.00
N692   N     0.72836   0.77030   0.19703   0.00000  Uiso   1.00
H693   H     0.71428   0.74157   0.20663   0.00000  Uiso   1.00
C694   C     0.74523   0.77482   0.14073   0.00000  Uiso   1.00
H695   H     0.72676   0.75250   0.12099   0.00000  Uiso   1.00
H696   H     0.78470   0.76831   0.12678   0.00000  Uiso   1.00
H697   H     0.73828   0.80622   0.12908   0.00000  Uiso   1.00
C698   C     0.95740   0.88182   0.40868   0.00000  Uiso   1.00
N699   N     0.99508   0.89506   0.38832   0.00000  Uiso   1.00
N700   N     0.68267   0.88351   0.01205   0.00000  Uiso   1.00
H701   H     0.67008   0.87830   0.05166   0.00000  Uiso   1.00
C702   C     0.67929   0.92667   0.00208   0.00000  Uiso   1.00
H703   H     0.97420   0.93685   0.01646   0.00000  Uiso   1.00
H704   H     0.69292   0.93257   0.45953   0.00000  Uiso   1.00
H705   H     0.70088   0.94493   0.02293   0.00000  Uiso   1.00
N706   N     0.87706   0.90580   0.37176   0.00000  Uiso   1.00
H707   H     0.91081   0.91866   0.35938   0.00000  Uiso   1.00
C708   C     0.84030   0.93797   0.38439   0.00000  Uiso   1.00
H709   H     0.85199   0.96389   0.35758   0.00000  Uiso   1.00
H710   H     0.83466   0.94992   0.42516   0.00000  Uiso   1.00
H711   H     0.80564   0.92660   0.37950   0.00000  Uiso   1.00
C712   C     0.16649   0.24579   0.75045   0.00000  Uiso   1.00
C713   C     0.14531   0.19082   0.98964   0.00000  Uiso   1.00
C714   C     0.15947   0.19180   0.93453   0.00000  Uiso   1.00
C715   C     0.18169   0.18535   0.51480   0.00000  Uiso   1.00
C716   C     0.23065   0.18387   0.98400   0.00000  Uiso   1.00
C717   C     0.24271   0.20023   0.93327   0.00000  Uiso   1.00
C718   C     0.20533   0.20814   0.91037   0.00000  Uiso   1.00
C719   C     0.17095   0.17971   0.56878   0.00000  Uiso   1.00
C720   C     0.25375   0.15911   0.55903   0.00000  Uiso   1.00
C721   C     0.12540   0.18244   0.90713   0.00000  Uiso   1.00
C722   C     0.20807   0.31120   0.75188   0.00000  Uiso   1.00
C723   C     0.14074   0.17116   0.85003   0.00000  Uiso   1.00
C724   C     0.20770   0.02019   0.75711   0.00000  Uiso   1.00
C725   C     0.16477   0.04264   0.75976   0.00000  Uiso   1.00
C726   C     0.12079   0.02096   0.76688   0.00000  Uiso   1.00
C727   C     0.12207   0.31168   0.76193   0.00000  Uiso   1.00
C728   C     0.16572   0.29026   0.75324   0.00000  Uiso   1.00
C729   C     0.30340   0.19921   0.77008   0.00000  Uiso   1.00
C730   C     0.01914   0.19900   0.77078   0.00000  Uiso   1.00
C731   C     0.03101   0.13564   0.72526   0.00000  Uiso   1.00
C732   C     0.31477   0.13569   0.72601   0.00000  Uiso   1.00
C733   C     0.16582   0.08751   0.75373   0.00000  Uiso   1.00
C734   C     0.19257   0.16598   0.64967   0.00000  Uiso   1.00
C735   C     0.26563   0.16793   0.50559   0.00000  Uiso   1.00
C736   C     0.20670   0.16808   0.59180   0.00000  Uiso   1.00
C737   C     0.07616   0.18676   0.93493   0.00000  Uiso   1.00
C738   C     0.06241   0.19935   0.98798   0.00000  Uiso   1.00
C739   C     0.09604   0.19706   0.51628   0.00000  Uiso   1.00
Cu740  Cu    0.11978   0.16666   0.75000   0.00000  Uiso   1.00
Cu741  Cu    0.21355   0.16667   0.75000   0.00000  Uiso   1.00
H742   H     0.08849   0.29530   0.76661   0.00000  Uiso   1.00
H743   H     0.28167   0.22618   0.78382   0.00000  Uiso   1.00
H744   H     0.03312   0.22537   0.78678   0.00000  Uiso   1.00
H745   H     0.30151   0.11138   0.70566   0.00000  Uiso   1.00
H746   H     0.30188   0.16158   0.98051   0.00000  Uiso   1.00
H747   H     0.13463   0.18426   0.59367   0.00000  Uiso   1.00
H748   H     0.04896   0.18219   0.91507   0.00000  Uiso   1.00
H749   H     0.08342   0.20384   0.55784   0.00000  Uiso   1.00
H750   H     0.24139   0.29446   0.74871   0.00000  Uiso   1.00
N751   N     0.04931   0.16666   0.74998   0.00000  Uiso   1.00
N752   N     0.28402   0.16669   0.75000   0.00000  Uiso   1.00
O753   O     0.12708   0.22678   0.75000   0.00000  Uiso   1.00
O754   O     0.20627   0.22679   0.75001   0.00000  Uiso   1.00
O755   O     0.10775   0.16665   0.82549   0.00000  Uiso   1.00
O756   O     0.18694   0.16666   0.82549   0.00000  Uiso   1.00
O757   O     0.12706   0.10654   0.75000   0.00000  Uiso   1.00
O758   O     0.20625   0.10655   0.75000   0.00000  Uiso   1.00
O759   O     0.14640   0.16667   0.67451   0.00000  Uiso   1.00
O760   O     0.22559   0.16668   0.67451   0.00000  Uiso   1.00
C761   C     0.28993   0.13995   0.57859   0.00000  Uiso   1.00
N762   N     0.31903   0.12450   0.59408   0.00000  Uiso   1.00
C763   C     0.25075   0.03822   0.76515   0.00000  Uiso   1.00
N764   N     0.28527   0.05178   0.77257   0.00000  Uiso   1.00
N765   N     0.07491   0.04128   0.78154   0.00000  Uiso   1.00
H766   H     0.04828   0.02544   0.77061   0.00000  Uiso   1.00
C767   C     0.05853   0.05494   0.83593   0.00000  Uiso   1.00
H768   H     0.05190   0.02809   0.86191   0.00000  Uiso   1.00
H769   H     0.02424   0.07269   0.84301   0.00000  Uiso   1.00
H770   H     0.08571   0.07517   0.84590   0.00000  Uiso   1.00
N771   N     0.06169   0.10364   0.69703   0.00000  Uiso   1.00
H772   H     0.04762   0.07491   0.70663   0.00000  Uiso   1.00
C773   C     0.07856   0.10815   0.64073   0.00000  Uiso   1.00
H774   H     0.06010   0.08584   0.62099   0.00000  Uiso   1.00
H775   H     0.11804   0.10164   0.62678   0.00000  Uiso   1.00
H776   H     0.07161   0.13955   0.62908   0.00000  Uiso   1.00
C777   C     0.29074   0.21515   0.90868   0.00000  Uiso   1.00
N778   N     0.32842   0.22839   0.88832   0.00000  Uiso   1.00
N779   N     0.01600   0.21684   0.51205   0.00000  Uiso   1.00
H780   H     0.00341   0.21163   0.55166   0.00000  Uiso   1.00
C781   C     0.01263   0.26000   0.50208   0.00000  Uiso   1.00
H782   H     0.30753   0.27019   0.51646   0.00000  Uiso   1.00
H783   H     0.02626   0.26590   0.95953   0.00000  Uiso   1.00
H784   H     0.03421   0.27826   0.52293   0.00000  Uiso   1.00
N785   N     0.21039   0.23913   0.87176   0.00000  Uiso   1.00
H786   H     0.24414   0.25199   0.85938   0.00000  Uiso   1.00
C787   C     0.17364   0.27130   0.88439   0.00000  Uiso   1.00
H788   H     0.18533   0.29722   0.85758   0.00000  Uiso   1.00
H789   H     0.16800   0.28326   0.92516   0.00000  Uiso   1.00
H790   H     0.13898   0.25993   0.87950   0.00000  Uiso   1.00
C791   C     0.49983   0.24579   0.75045   0.00000  Uiso   1.00
C792   C     0.47864   0.19082   0.98964   0.00000  Uiso   1.00
C793   C     0.49280   0.19180   0.93453   0.00000  Uiso   1.00
C794   C     0.51503   0.18535   0.51480   0.00000  Uiso   1.00
C795   C     0.56398   0.18387   0.98400   0.00000  Uiso   1.00
C796   C     0.57605   0.20023   0.93327   0.00000  Uiso   1.00
C797   C     0.53866   0.20814   0.91037   0.00000  Uiso   1.00
C798   C     0.50428   0.17971   0.56878   0.00000  Uiso   1.00
C799   C     0.58709   0.15911   0.55903   0.00000  Uiso   1.00
C800   C     0.45873   0.18244   0.90713   0.00000  Uiso   1.00
C801   C     0.54140   0.31120   0.75188   0.00000  Uiso   1.00
C802   C     0.47408   0.17116   0.85003   0.00000  Uiso   1.00
C803   C     0.54103   0.02019   0.75711   0.00000  Uiso   1.00
C804   C     0.49810   0.04264   0.75976   0.00000  Uiso   1.00
C805   C     0.45413   0.02096   0.76688   0.00000  Uiso   1.00
C806   C     0.45540   0.31168   0.76193   0.00000  Uiso   1.00
C807   C     0.49905   0.29026   0.75324   0.00000  Uiso   1.00
C808   C     0.63673   0.19921   0.77008   0.00000  Uiso   1.00
C809   C     0.35247   0.19900   0.77078   0.00000  Uiso   1.00
C810   C     0.36434   0.13564   0.72526   0.00000  Uiso   1.00
C811   C     0.64810   0.13569   0.72601   0.00000  Uiso   1.00
C812   C     0.49915   0.08751   0.75373   0.00000  Uiso   1.00
C813   C     0.52590   0.16598   0.64967   0.00000  Uiso   1.00
C814   C     0.59897   0.16793   0.50559   0.00000  Uiso   1.00
C815   C     0.54004   0.16808   0.59180   0.00000  Uiso   1.00
C816   C     0.40950   0.18676   0.93493   0.00000  Uiso   1.00
C817   C     0.39574   0.19935   0.98798   0.00000  Uiso   1.00
C818   C     0.42937   0.19706   0.51628   0.00000  Uiso   1.00
Cu819  Cu    0.45311   0.16666   0.75000   0.00000  Uiso   1.00
Cu820  Cu    0.54689   0.16667   0.75000   0.00000  Uiso   1.00
H821   H     0.42182   0.29530   0.76661   0.00000  Uiso   1.00
H822   H     0.61500   0.22618   0.78382   0.00000  Uiso   1.00
H823   H     0.36645   0.22537   0.78678   0.00000  Uiso   1.00
H824   H     0.63484   0.11138   0.70566   0.00000  Uiso   1.00
H825   H     0.63522   0.16158   0.98051   0.00000  Uiso   1.00
H826   H     0.46796   0.18426   0.59367   0.00000  Uiso   1.00
H827   H     0.38229   0.18219   0.91507   0.00000  Uiso   1.00
H828   H     0.41676   0.20384   0.55784   0.00000  Uiso   1.00
H829   H     0.57472   0.29446   0.74871   0.00000  Uiso   1.00
N830   N     0.38265   0.16666   0.74998   0.00000  Uiso   1.00
N831   N     0.61735   0.16669   0.75000   0.00000  Uiso   1.00
O832   O     0.46042   0.22678   0.75000   0.00000  Uiso   1.00
O833   O     0.53961   0.22679   0.75001   0.00000  Uiso   1.00
O834   O     0.44108   0.16665   0.82549   0.00000  Uiso   1.00
O835   O     0.52027   0.16666   0.82549   0.00000  Uiso   1.00
O836   O     0.46039   0.10654   0.75000   0.00000  Uiso   1.00
O837   O     0.53958   0.10655   0.75000   0.00000  Uiso   1.00
O838   O     0.47973   0.16667   0.67451   0.00000  Uiso   1.00
O839   O     0.55892   0.16668   0.67451   0.00000  Uiso   1.00
C840   C     0.62327   0.13995   0.57859   0.00000  Uiso   1.00
N841   N     0.65236   0.12450   0.59408   0.00000  Uiso   1.00
C842   C     0.58408   0.03822   0.76515   0.00000  Uiso   1.00
N843   N     0.61860   0.05178   0.77257   0.00000  Uiso   1.00
N844   N     0.40824   0.04128   0.78154   0.00000  Uiso   1.00
H845   H     0.38162   0.02544   0.77061   0.00000  Uiso   1.00
C846   C     0.39186   0.05494   0.83593   0.00000  Uiso   1.00
H847   H     0.38523   0.02809   0.86191   0.00000  Uiso   1.00
H848   H     0.35757   0.07269   0.84301   0.00000  Uiso   1.00
H849   H     0.41904   0.07517   0.84590   0.00000  Uiso   1.00
N850   N     0.39502   0.10364   0.69703   0.00000  Uiso   1.00
H851   H     0.38095   0.07491   0.70663   0.00000  Uiso   1.00
C852   C     0.41190   0.10815   0.64073   0.00000  Uiso   1.00
H853   H     0.39343   0.08584   0.62099   0.00000  Uiso   1.00
H854   H     0.45137   0.10164   0.62678   0.00000  Uiso   1.00
H855   H     0.40494   0.13955   0.62908   0.00000  Uiso   1.00
C856   C     0.62407   0.21515   0.90868   0.00000  Uiso   1.00
N857   N     0.66175   0.22839   0.88832   0.00000  Uiso   1.00
N858   N     0.34933   0.21684   0.51205   0.00000  Uiso   1.00
H859   H     0.33675   0.21163   0.55166   0.00000  Uiso   1.00
C860   C     0.34596   0.26000   0.50208   0.00000  Uiso   1.00
H861   H     0.64087   0.27019   0.51646   0.00000  Uiso   1.00
H862   H     0.35959   0.26590   0.95953   0.00000  Uiso   1.00
H863   H     0.36754   0.27826   0.52293   0.00000  Uiso   1.00
N864   N     0.54372   0.23913   0.87176   0.00000  Uiso   1.00
H865   H     0.57747   0.25199   0.85938   0.00000  Uiso   1.00
C866   C     0.50697   0.27130   0.88439   0.00000  Uiso   1.00
H867   H     0.51866   0.29722   0.85758   0.00000  Uiso   1.00
H868   H     0.50133   0.28326   0.92516   0.00000  Uiso   1.00
H869   H     0.47231   0.25993   0.87950   0.00000  Uiso   1.00
C870   C     0.83316   0.24579   0.75045   0.00000  Uiso   1.00
C871   C     0.81197   0.19082   0.98964   0.00000  Uiso   1.00
C872   C     0.82613   0.19180   0.93453   0.00000  Uiso   1.00
C873   C     0.84836   0.18535   0.51480   0.00000  Uiso   1.00
C874   C     0.89731   0.18387   0.98400   0.00000  Uiso   1.00
C875   C     0.90938   0.20023   0.93327   0.00000  Uiso   1.00
C876   C     0.87200   0.20814   0.91037   0.00000  Uiso   1.00
C877   C     0.83761   0.17971   0.56878   0.00000  Uiso   1.00
C878   C     0.92042   0.15911   0.55903   0.00000  Uiso   1.00
C879   C     0.79207   0.18244   0.90713   0.00000  Uiso   1.00
C880   C     0.87474   0.31120   0.75188   0.00000  Uiso   1.00
C881   C     0.80741   0.17116   0.85003   0.00000  Uiso   1.00
C882   C     0.87436   0.02019   0.75711   0.00000  Uiso   1.00
C883   C     0.83144   0.04264   0.75976   0.00000  Uiso   1.00
C884   C     0.78746   0.02096   0.76688   0.00000  Uiso   1.00
C885   C     0.78873   0.31168   0.76193   0.00000  Uiso   1.00
C886   C     0.83238   0.29026   0.75324   0.00000  Uiso   1.00
C887   C     0.97007   0.19921   0.77008   0.00000  Uiso   1.00
C888   C     0.68581   0.19900   0.77078   0.00000  Uiso   1.00
C889   C     0.69767   0.13564   0.72526   0.00000  Uiso   1.00
C890   C     0.98143   0.13569   0.72601   0.00000  Uiso   1.00
C891   C     0.83249   0.08751   0.75373   0.00000  Uiso   1.00
C892   C     0.85923   0.16598   0.64967   0.00000  Uiso   1.00
C893   C     0.93230   0.16793   0.50559   0.00000  Uiso   1.00
C894   C     0.87337   0.16808   0.59180   0.00000  Uiso   1.00
C895   C     0.74283   0.18676   0.93493   0.00000  Uiso   1.00
C896   C     0.72907   0.19935   0.98798   0.00000  Uiso   1.00
C897   C     0.76270   0.19706   0.51628   0.00000  Uiso   1.00
Cu898  Cu    0.78645   0.16666   0.75000   0.00000  Uiso   1.00
Cu899  Cu    0.88022   0.16667   0.75000   0.00000  Uiso   1.00
H900   H     0.75515   0.29530   0.76661   0.00000  Uiso   1.00
H901   H     0.94834   0.22618   0.78382   0.00000  Uiso   1.00
H902   H     0.69979   0.22537   0.78678   0.00000  Uiso   1.00
H903   H     0.96818   0.11138   0.70566   0.00000  Uiso   1.00
H904   H     0.96855   0.16158   0.98051   0.00000  Uiso   1.00
H905   H     0.80129   0.18426   0.59367   0.00000  Uiso   1.00
H906   H     0.71563   0.18219   0.91507   0.00000  Uiso   1.00
H907   H     0.75009   0.20384   0.55784   0.00000  Uiso   1.00
H908   H     0.90806   0.29446   0.74871   0.00000  Uiso   1.00
N909   N     0.71598   0.16666   0.74998   0.00000  Uiso   1.00
N910   N     0.95069   0.16669   0.75000   0.00000  Uiso   1.00
O911   O     0.79375   0.22678   0.75000   0.00000  Uiso   1.00
O912   O     0.87294   0.22679   0.75001   0.00000  Uiso   1.00
O913   O     0.77441   0.16665   0.82549   0.00000  Uiso   1.00
O914   O     0.85360   0.16666   0.82549   0.00000  Uiso   1.00
O915   O     0.79373   0.10654   0.75000   0.00000  Uiso   1.00
O916   O     0.87292   0.10655   0.75000   0.00000  Uiso   1.00
O917   O     0.81306   0.16667   0.67451   0.00000  Uiso   1.00
O918   O     0.89225   0.16668   0.67451   0.00000  Uiso   1.00
C919   C     0.95660   0.13995   0.57859   0.00000  Uiso   1.00
N920   N     0.98569   0.12450   0.59408   0.00000  Uiso   1.00
C921   C     0.91742   0.03822   0.76515   0.00000  Uiso   1.00
N922   N     0.95194   0.05178   0.77257   0.00000  Uiso   1.00
N923   N     0.74157   0.04128   0.78154   0.00000  Uiso   1.00
H924   H     0.71495   0.02544   0.77061   0.00000  Uiso   1.00
C925   C     0.72520   0.05494   0.83593   0.00000  Uiso   1.00
H926   H     0.71856   0.02809   0.86191   0.00000  Uiso   1.00
H927   H     0.69090   0.07269   0.84301   0.00000  Uiso   1.00
H928   H     0.75238   0.07517   0.84590   0.00000  Uiso   1.00
N929   N     0.72836   0.10364   0.69703   0.00000  Uiso   1.00
H930   H     0.71428   0.07491   0.70663   0.00000  Uiso   1.00
C931   C     0.74523   0.10815   0.64073   0.00000  Uiso   1.00
H932   H     0.72676   0.08584   0.62099   0.00000  Uiso   1.00
H933   H     0.78470   0.10164   0.62678   0.00000  Uiso   1.00
H934   H     0.73828   0.13955   0.62908   0.00000  Uiso   1.00
C935   C     0.95740   0.21515   0.90868   0.00000  Uiso   1.00
N936   N     0.99508   0.22839   0.88832   0.00000  Uiso   1.00
N937   N     0.68267   0.21684   0.51205   0.00000  Uiso   1.00
H938   H     0.67008   0.21163   0.55166   0.00000  Uiso   1.00
C939   C     0.67929   0.26000   0.50208   0.00000  Uiso   1.00
H940   H     0.97420   0.27019   0.51646   0.00000  Uiso   1.00
H941   H     0.69292   0.26590   0.95953   0.00000  Uiso   1.00
H942   H     0.70088   0.27826   0.52293   0.00000  Uiso   1.00
N943   N     0.87706   0.23913   0.87176   0.00000  Uiso   1.00
H944   H     0.91081   0.25199   0.85938   0.00000  Uiso   1.00
C945   C     0.84030   0.27130   0.88439   0.00000  Uiso   1.00
H946   H     0.85199   0.29722   0.85758   0.00000  Uiso   1.00
H947   H     0.83466   0.28326   0.92516   0.00000  Uiso   1.00
H948   H     0.80564   0.25993   0.87950   0.00000  Uiso   1.00
C949   C     0.16649   0.57912   0.75045   0.00000  Uiso   1.00
C950   C     0.14531   0.52416   0.98964   0.00000  Uiso   1.00
C951   C     0.15947   0.52513   0.93453   0.00000  Uiso   1.00
C952   C     0.18169   0.51869   0.51480   0.00000  Uiso   1.00
C953   C     0.23065   0.51720   0.98400   0.00000  Uiso   1.00
C954   C     0.24271   0.53356   0.93327   0.00000  Uiso   1.00
C955   C     0.20533   0.54148   0.91037   0.00000  Uiso   1.00
C956   C     0.17095   0.51304   0.56878   0.00000  Uiso   1.00
C957   C     0.25375   0.49244   0.55903   0.00000  Uiso   1.00
C958   C     0.12540   0.51578   0.90713   0.00000  Uiso   1.00
C959   C     0.20807   0.64454   0.75188   0.00000  Uiso   1.00
C960   C     0.14074   0.50449   0.85003   0.00000  Uiso   1.00
C961   C     0.20770   0.35352   0.75711   0.00000  Uiso   1.00
C962   C     0.16477   0.37597   0.75976   0.00000  Uiso   1.00
C963   C     0.12079   0.35429   0.76688   0.00000  Uiso   1.00
C964   C     0.12207   0.64501   0.76193   0.00000  Uiso   1.00
C965   C     0.16572   0.62359   0.75324   0.00000  Uiso   1.00
C966   C     0.30340   0.53254   0.77008   0.00000  Uiso   1.00
C967   C     0.01914   0.53234   0.77078   0.00000  Uiso   1.00
C968   C     0.03101   0.46898   0.72526   0.00000  Uiso   1.00
C969   C     0.31477   0.46902   0.72601   0.00000  Uiso   1.00
C970   C     0.16582   0.42084   0.75373   0.00000  Uiso   1.00
C971   C     0.19257   0.49931   0.64967   0.00000  Uiso   1.00
C972   C     0.26563   0.50126   0.50559   0.00000  Uiso   1.00
C973   C     0.20670   0.50142   0.59180   0.00000  Uiso   1.00
C974   C     0.07616   0.52009   0.93493   0.00000  Uiso   1.00
C975   C     0.06241   0.53269   0.98798   0.00000  Uiso   1.00
C976   C     0.09604   0.53039   0.51628   0.00000  Uiso   1.00
Cu977  Cu    0.11978   0.49999   0.75000   0.00000  Uiso   1.00
Cu978  Cu    0.21355   0.50001   0.75000   0.00000  Uiso   1.00
H979   H     0.08849   0.62864   0.76661   0.00000  Uiso   1.00
H980   H     0.28167   0.55951   0.78382   0.00000  Uiso   1.00
H981   H     0.03312   0.55871   0.78678   0.00000  Uiso   1.00
H982   H     0.30151   0.44472   0.70566   0.00000  Uiso   1.00
H983   H     0.30188   0.49492   0.98051   0.00000  Uiso   1.00
H984   H     0.13463   0.51759   0.59367   0.00000  Uiso   1.00
H985   H     0.04896   0.51552   0.91507   0.00000  Uiso   1.00
H986   H     0.08342   0.53718   0.55784   0.00000  Uiso   1.00
H987   H     0.24139   0.62779   0.74871   0.00000  Uiso   1.00
N988   N     0.04931   0.49999   0.74998   0.00000  Uiso   1.00
N989   N     0.28402   0.50002   0.75000   0.00000  Uiso   1.00
O990   O     0.12708   0.56011   0.75000   0.00000  Uiso   1.00
O991   O     0.20627   0.56012   0.75001   0.00000  Uiso   1.00
O992   O     0.10775   0.49998   0.82549   0.00000  Uiso   1.00
O993   O     0.18694   0.49999   0.82549   0.00000  Uiso   1.00
O994   O     0.12706   0.43988   0.75000   0.00000  Uiso   1.00
O995   O     0.20625   0.43989   0.75000   0.00000  Uiso   1.00
O996   O     0.14640   0.50001   0.67451   0.00000  Uiso   1.00
O997   O     0.22559   0.50002   0.67451   0.00000  Uiso   1.00
C998   C     0.28993   0.47328   0.57859   0.00000  Uiso   1.00
N999   N     0.31903   0.45783   0.59408   0.00000  Uiso   1.00
C1000  C     0.25075   0.37155   0.76515   0.00000  Uiso   1.00
N1001  N     0.28527   0.38512   0.77257   0.00000  Uiso   1.00
N1002  N     0.07491   0.37462   0.78154   0.00000  Uiso   1.00
H1003  H     0.04828   0.35878   0.77061   0.00000  Uiso   1.00
C1004  C     0.05853   0.38828   0.83593   0.00000  Uiso   1.00
H1005  H     0.05190   0.36143   0.86191   0.00000  Uiso   1.00
H1006  H     0.02424   0.40602   0.84301   0.00000  Uiso   1.00
H1007  H     0.08571   0.40850   0.84590   0.00000  Uiso   1.00
N1008  N     0.06169   0.43697   0.69703   0.00000  Uiso   1.00
H1009  H     0.04762   0.40824   0.70663   0.00000  Uiso   1.00
C1010  C     0.07856   0.44149   0.64073   0.00000  Uiso   1.00
H1011  H     0.06010   0.41917   0.62099   0.00000  Uiso   1.00
H1012  H     0.11804   0.43497   0.62678   0.00000  Uiso   1.00
H1013  H     0.07161   0.47289   0.62908   0.00000  Uiso   1.00
C1014  C     0.29074   0.54849   0.90868   0.00000  Uiso   1.00
N1015  N     0.32842   0.56173   0.88832   0.00000  Uiso   1.00
N1016  N     0.01600   0.55017   0.51205   0.00000  Uiso   1.00
H1017  H     0.00341   0.54496   0.55166   0.00000  Uiso   1.00
C1018  C     0.01263   0.59333   0.50208   0.00000  Uiso   1.00
H1019  H     0.30753   0.60352   0.51646   0.00000  Uiso   1.00
H1020  H     0.02626   0.59924   0.95953   0.00000  Uiso   1.00
H1021  H     0.03421   0.61160   0.52293   0.00000  Uiso   1.00
N1022  N     0.21039   0.57246   0.87176   0.00000  Uiso   1.00
H1023  H     0.24414   0.58532   0.85938   0.00000  Uiso   1.00
C1024  C     0.17364   0.60463   0.88439   0.00000  Uiso   1.00
H1025  H     0.18533   0.63056   0.85758   0.00000  Uiso   1.00
H1026  H     0.16800   0.61659   0.92516   0.00000  Uiso   1.00
H1027  H     0.13898   0.59326   0.87950   0.00000  Uiso   1.00
C1028  C     0.49983   0.57912   0.75045   0.00000  Uiso   1.00
C1029  C     0.47864   0.52416   0.98964   0.00000  Uiso   1.00
C1030  C     0.49280   0.52513   0.93453   0.00000  Uiso   1.00
C1031  C     0.51503   0.51869   0.51480   0.00000  Uiso   1.00
C1032  C     0.56398   0.51720   0.98400   0.00000  Uiso   1.00
C1033  C     0.57605   0.53356   0.93327   0.00000  Uiso   1.00
C1034  C     0.53866   0.54148   0.91037   0.00000  Uiso   1.00
C1035  C     0.50428   0.51304   0.56878   0.00000  Uiso   1.00
C1036  C     0.58709   0.49244   0.55903   0.00000  Uiso   1.00
C1037  C     0.45873   0.51578   0.90713   0.00000  Uiso   1.00
C1038  C     0.54140   0.64454   0.75188   0.00000  Uiso   1.00
C1039  C     0.47408   0.50449   0.85003   0.00000  Uiso   1.00
C1040  C     0.54103   0.35352   0.75711   0.00000  Uiso   1.00
C1041  C     0.49810   0.37597   0.75976   0.00000  Uiso   1.00
C1042  C     0.45413   0.35429   0.76688   0.00000  Uiso   1.00
C1043  C     0.45540   0.64501   0.76193   0.00000  Uiso   1.00
C1044  C     0.49905   0.62359   0.75324   0.00000  Uiso   1.00
C1045  C     0.63673   0.53254   0.77008   0.00000  Uiso   1.00
C1046  C     0.35247   0.53234   0.77078   0.00000  Uiso   1.00
C1047  C     0.36434   0.46898   0.72526   0.00000  Uiso   1.00
C1048  C     0.64810   0.46902   0.72601   0.00000  Uiso   1.00
C1049  C     0.49915   0.42084   0.75373   0.00000  Uiso   1.00
C1050  C     0.52590   0.49931   0.64967   0.00000  Uiso   1.00
C1051  C     0.59897   0.50126   0.50559   0.00000  Uiso   1.00
C1052  C     0.54004   0.50142   0.59180   0.00000  Uiso   1.00
C1053  C     0.40950   0.52009   0.93493   0.00000  Uiso   1.00
C1054  C     0.39574   0.53269   0.98798   0.00000  Uiso   1.00
C1055  C     0.42937   0.53039   0.51628   0.00000  Uiso   1.00
Cu1056 Cu    0.45311   0.49999   0.75000   0.00000  Uiso   1.00
Cu1057 Cu    0.54689   0.50001   0.75000   0.00000  Uiso   1.00
H1058  H     0.42182   0.62864   0.76661   0.00000  Uiso   1.00
H1059  H     0.61500   0.55951   0.78382   0.00000  Uiso   1.00
H1060  H     0.36645   0.55871   0.78678   0.00000  Uiso   1.00
H1061  H     0.63484   0.44472   0.70566   0.00000  Uiso   1.00
H1062  H     0.63522   0.49492   0.98051   0.00000  Uiso   1.00
H1063  H     0.46796   0.51759   0.59367   0.00000  Uiso   1.00
H1064  H     0.38229   0.51552   0.91507   0.00000  Uiso   1.00
H1065  H     0.41676   0.53718   0.55784   0.00000  Uiso   1.00
H1066  H     0.57472   0.62779   0.74871   0.00000  Uiso   1.00
N1067  N     0.38265   0.49999   0.74998   0.00000  Uiso   1.00
N1068  N     0.61735   0.50002   0.75000   0.00000  Uiso   1.00
O1069  O     0.46042   0.56011   0.75000   0.00000  Uiso   1.00
O1070  O     0.53961   0.56012   0.75001   0.00000  Uiso   1.00
O1071  O     0.44108   0.49998   0.82549   0.00000  Uiso   1.00
O1072  O     0.52027   0.49999   0.82549   0.00000  Uiso   1.00
O1073  O     0.46039   0.43988   0.75000   0.00000  Uiso   1.00
O1074  O     0.53958   0.43989   0.75000   0.00000  Uiso   1.00
O1075  O     0.47973   0.50001   0.67451   0.00000  Uiso   1.00
O1076  O     0.55892   0.50002   0.67451   0.00000  Uiso   1.00
C1077  C     0.62327   0.47328   0.57859   0.00000  Uiso   1.00
N1078  N     0.65236   0.45783   0.59408   0.00000  Uiso   1.00
C1079  C     0.58408   0.37155   0.76515   0.00000  Uiso   1.00
N1080  N     0.61860   0.38512   0.77257   0.00000  Uiso   1.00
N1081  N     0.40824   0.37462   0.78154   0.00000  Uiso   1.00
H1082  H     0.38162   0.35878   0.77061   0.00000  Uiso   1.00
C1083  C     0.39186   0.38828   0.83593   0.00000  Uiso   1.00
H1084  H     0.38523   0.36143   0.86191   0.00000  Uiso   1.00
H1085  H     0.35757   0.40602   0.84301   0.00000  Uiso   1.00
H1086  H     0.41904   0.40850   0.84590   0.00000  Uiso   1.00
N1087  N     0.39502   0.43697   0.69703   0.00000  Uiso   1.00
H1088  H     0.38095   0.40824   0.70663   0.00000  Uiso   1.00
C1089  C     0.41190   0.44149   0.64073   0.00000  Uiso   1.00
H1090  H     0.39343   0.41917   0.62099   0.00000  Uiso   1.00
H1091  H     0.45137   0.43497   0.62678   0.00000  Uiso   1.00
H1092  H     0.40494   0.47289   0.62908   0.00000  Uiso   1.00
C1093  C     0.62407   0.54849   0.90868   0.00000  Uiso   1.00
N1094  N     0.66175   0.56173   0.88832   0.00000  Uiso   1.00
N1095  N     0.34933   0.55017   0.51205   0.00000  Uiso   1.00
H1096  H     0.33675   0.54496   0.55166   0.00000  Uiso   1.00
C1097  C     0.34596   0.59333   0.50208   0.00000  Uiso   1.00
H1098  H     0.64087   0.60352   0.51646   0.00000  Uiso   1.00
H1099  H     0.35959   0.59924   0.95953   0.00000  Uiso   1.00
H1100  H     0.36754   0.61160   0.52293   0.00000  Uiso   1.00
N1101  N     0.54372   0.57246   0.87176   0.00000  Uiso   1.00
H1102  H     0.57747   0.58532   0.85938   0.00000  Uiso   1.00
C1103  C     0.50697   0.60463   0.88439   0.00000  Uiso   1.00
H1104  H     0.51866   0.63056   0.85758   0.00000  Uiso   1.00
H1105  H     0.50133   0.61659   0.92516   0.00000  Uiso   1.00
H1106  H     0.47231   0.59326   0.87950   0.00000  Uiso   1.00
C1107  C     0.83316   0.57912   0.75045   0.00000  Uiso   1.00
C1108  C     0.81197   0.52416   0.98964   0.00000  Uiso   1.00
C1109  C     0.82613   0.52513   0.93453   0.00000  Uiso   1.00
C1110  C     0.84836   0.51869   0.51480   0.00000  Uiso   1.00
C1111  C     0.89731   0.51720   0.98400   0.00000  Uiso   1.00
C1112  C     0.90938   0.53356   0.93327   0.00000  Uiso   1.00
C1113  C     0.87200   0.54148   0.91037   0.00000  Uiso   1.00
C1114  C     0.83761   0.51304   0.56878   0.00000  Uiso   1.00
C1115  C     0.92042   0.49244   0.55903   0.00000  Uiso   1.00
C1116  C     0.79207   0.51578   0.90713   0.00000  Uiso   1.00
C1117  C     0.87474   0.64454   0.75188   0.00000  Uiso   1.00
C1118  C     0.80741   0.50449   0.85003   0.00000  Uiso   1.00
C1119  C     0.87436   0.35352   0.75711   0.00000  Uiso   1.00
C1120  C     0.83144   0.37597   0.75976   0.00000  Uiso   1.00
C1121  C     0.78746   0.35429   0.76688   0.00000  Uiso   1.00
C1122  C     0.78873   0.64501   0.76193   0.00000  Uiso   1.00
C1123  C     0.83238   0.62359   0.75324   0.00000  Uiso   1.00
C1124  C     0.97007   0.53254   0.77008   0.00000  Uiso   1.00
C1125  C     0.68581   0.53234   0.77078   0.00000  Uiso   1.00
C1126  C     0.69767   0.46898   0.72526   0.00000  Uiso   1.00
C1127  C     0.98143   0.46902   0.72601   0.00000  Uiso   1.00
C1128  C     0.83249   0.42084   0.75373   0.00000  Uiso   1.00
C1129  C     0.85923   0.49931   0.64967   0.00000  Uiso   1.00
C1130  C     0.93230   0.50126   0.50559   0.00000  Uiso   1.00
C1131  C     0.87337   0.50142   0.59180   0.00000  Uiso   1.00
C1132  C     0.74283   0.52009   0.93493   0.00000  Uiso   1.00
C1133  C     0.72907   0.53269   0.98798   0.00000  Uiso   1.00
C1134  C     0.76270   0.53039   0.51628   0.00000  Uiso   1.00
Cu1135 Cu    0.78645   0.49999   0.75000   0.00000  Uiso   1.00
Cu1136 Cu    0.88022   0.50001   0.75000   0.00000  Uiso   1.00
H1137  H     0.75515   0.62864   0.76661   0.00000  Uiso   1.00
H1138  H     0.94834   0.55951   0.78382   0.00000  Uiso   1.00
H1139  H     0.69979   0.55871   0.78678   0.00000  Uiso   1.00
H1140  H     0.96818   0.44472   0.70566   0.00000  Uiso   1.00
H1141  H     0.96855   0.49492   0.98051   0.00000  Uiso   1.00
H1142  H     0.80129   0.51759   0.59367   0.00000  Uiso   1.00
H1143  H     0.71563   0.51552   0.91507   0.00000  Uiso   1.00
H1144  H     0.75009   0.53718   0.55784   0.00000  Uiso   1.00
H1145  H     0.90806   0.62779   0.74871   0.00000  Uiso   1.00
N1146  N     0.71598   0.49999   0.74998   0.00000  Uiso   1.00
N1147  N     0.95069   0.50002   0.75000   0.00000  Uiso   1.00
O1148  O     0.79375   0.56011   0.75000   0.00000  Uiso   1.00
O1149  O     0.87294   0.56012   0.75001   0.00000  Uiso   1.00
O1150  O     0.77441   0.49998   0.82549   0.00000  Uiso   1.00
O1151  O     0.85360   0.49999   0.82549   0.00000  Uiso   1.00
O1152  O     0.79373   0.43988   0.75000   0.00000  Uiso   1.00
O1153  O     0.87292   0.43989   0.75000   0.00000  Uiso   1.00
O1154  O     0.81306   0.50001   0.67451   0.00000  Uiso   1.00
O1155  O     0.89225   0.50002   0.67451   0.00000  Uiso   1.00
C1156  C     0.95660   0.47328   0.57859   0.00000  Uiso   1.00
N1157  N     0.98569   0.45783   0.59408   0.00000  Uiso   1.00
C1158  C     0.91742   0.37155   0.76515   0.00000  Uiso   1.00
N1159  N     0.95194   0.38512   0.77257   0.00000  Uiso   1.00
N1160  N     0.74157   0.37462   0.78154   0.00000  Uiso   1.00
H1161  H     0.71495   0.35878   0.77061   0.00000  Uiso   1.00
C1162  C     0.72520   0.38828   0.83593   0.00000  Uiso   1.00
H1163  H     0.71856   0.36143   0.86191   0.00000  Uiso   1.00
H1164  H     0.69090   0.40602   0.84301   0.00000  Uiso   1.00
H1165  H     0.75238   0.40850   0.84590   0.00000  Uiso   1.00
N1166  N     0.72836   0.43697   0.69703   0.00000  Uiso   1.00
H1167  H     0.71428   0.40824   0.70663   0.00000  Uiso   1.00
C1168  C     0.74523   0.44149   0.64073   0.00000  Uiso   1.00
H1169  H     0.72676   0.41917   0.62099   0.00000  Uiso   1.00
H1170  H     0.78470   0.43497   0.62678   0.00000  Uiso   1.00
H1171  H     0.73828   0.47289   0.62908   0.00000  Uiso   1.00
C1172  C     0.95740   0.54849   0.90868   0.00000  Uiso   1.00
N1173  N     0.99508   0.56173   0.88832   0.00000  Uiso   1.00
N1174  N     0.68267   0.55017   0.51205   0.00000  Uiso   1.00
H1175  H     0.67008   0.54496   0.55166   0.00000  Uiso   1.00
C1176  C     0.67929   0.59333   0.50208   0.00000  Uiso   1.00
H1177  H     0.97420   0.60352   0.51646   0.00000  Uiso   1.00
H1178  H     0.69292   0.59924   0.95953   0.00000  Uiso   1.00
H1179  H     0.70088   0.61160   0.52293   0.00000  Uiso   1.00
N1180  N     0.87706   0.57246   0.87176   0.00000  Uiso   1.00
H1181  H     0.91081   0.58532   0.85938   0.00000  Uiso   1.00
C1182  C     0.84030   0.60463   0.88439   0.00000  Uiso   1.00
H1183  H     0.85199   0.63056   0.85758   0.00000  Uiso   1.00
H1184  H     0.83466   0.61659   0.92516   0.00000  Uiso   1.00
H1185  H     0.80564   0.59326   0.87950   0.00000  Uiso   1.00
C1186  C     0.16649   0.91245   0.75045   0.00000  Uiso   1.00
C1187  C     0.14531   0.85749   0.98964   0.00000  Uiso   1.00
C1188  C     0.15947   0.85846   0.93453   0.00000  Uiso   1.00
C1189  C     0.18169   0.85202   0.51480   0.00000  Uiso   1.00
C1190  C     0.23065   0.85054   0.98400   0.00000  Uiso   1.00
C1191  C     0.24271   0.86689   0.93327   0.00000  Uiso   1.00
C1192  C     0.20533   0.87481   0.91037   0.00000  Uiso   1.00
C1193  C     0.17095   0.84638   0.56878   0.00000  Uiso   1.00
C1194  C     0.25375   0.82577   0.55903   0.00000  Uiso   1.00
C1195  C     0.12540   0.84911   0.90713   0.00000  Uiso   1.00
C1196  C     0.20807   0.97787   0.75188   0.00000  Uiso   1.00
C1197  C     0.14074   0.83783   0.85003   0.00000  Uiso   1.00
C1198  C     0.20770   0.68685   0.75711   0.00000  Uiso   1.00
C1199  C     0.16477   0.70931   0.75976   0.00000  Uiso   1.00
C1200  C     0.12079   0.68763   0.76688   0.00000  Uiso   1.00
C1201  C     0.12207   0.97835   0.76193   0.00000  Uiso   1.00
C1202  C     0.16572   0.95693   0.75324   0.00000  Uiso   1.00
C1203  C     0.30340   0.86588   0.77008   0.00000  Uiso   1.00
C1204  C     0.01914   0.86567   0.77078   0.00000  Uiso   1.00
C1205  C     0.03101   0.80231   0.72526   0.00000  Uiso   1.00
C1206  C     0.31477   0.80236   0.72601   0.00000  Uiso   1.00
C1207  C     0.16582   0.75417   0.75373   0.00000  Uiso   1.00
C1208  C     0.19257   0.83265   0.64967   0.00000  Uiso   1.00
C1209  C     0.26563   0.83459   0.50559   0.00000  Uiso   1.00
C1210  C     0.20670   0.83475   0.59180   0.00000  Uiso   1.00
C1211  C     0.07616   0.85343   0.93493   0.00000  Uiso   1.00
C1212  C     0.06241   0.86602   0.98798   0.00000  Uiso   1.00
C1213  C     0.09604   0.86373   0.51628   0.00000  Uiso   1.00
Cu1214 Cu    0.11978   0.83333   0.75000   0.00000  Uiso   1.00
Cu1215 Cu    0.21355   0.83334   0.75000   0.00000  Uiso   1.00
H1216  H     0.08849   0.96197   0.76661   0.00000  Uiso   1.00
H1217  H     0.28167   0.89284   0.78382   0.00000  Uiso   1.00
H1218  H     0.03312   0.89204   0.78678   0.00000  Uiso   1.00
H1219  H     0.30151   0.77805   0.70566   0.00000  Uiso   1.00
H1220  H     0.30188   0.82825   0.98051   0.00000  Uiso   1.00
H1221  H     0.13463   0.85092   0.59367   0.00000  Uiso   1.00
H1222  H     0.04896   0.84885   0.91507   0.00000  Uiso   1.00
H1223  H     0.08342   0.87051   0.55784   0.00000  Uiso   1.00
H1224  H     0.24139   0.96112   0.74871   0.00000  Uiso   1.00
N1225  N     0.04931   0.83332   0.74998   0.00000  Uiso   1.00
N1226  N     0.28402   0.83335   0.75000   0.00000  Uiso   1.00
O1227  O     0.12708   0.89345   0.75000   0.00000  Uiso   1.00
O1228  O     0.20627   0.89346   0.75001   0.00000  Uiso   1.00
O1229  O     0.10775   0.83332   0.82549   0.00000  Uiso   1.00
O1230  O     0.18694   0.83333   0.82549   0.00000  Uiso   1.00
O1231  O     0.12706   0.77321   0.75000   0.00000  Uiso   1.00
O1232  O     0.20625   0.77322   0.75000   0.00000  Uiso   1.00
O1233  O     0.14640   0.83334   0.67451   0.00000  Uiso   1.00
O1234  O     0.22559   0.83335   0.67451   0.00000  Uiso   1.00
C1235  C     0.28993   0.80662   0.57859   0.00000  Uiso   1.00
N1236  N     0.31903   0.79117   0.59408   0.00000  Uiso   1.00
C1237  C     0.25075   0.70488   0.76515   0.00000  Uiso   1.00
N1238  N     0.28527   0.71845   0.77257   0.00000  Uiso   1.00
N1239  N     0.07491   0.70795   0.78154   0.00000  Uiso   1.00
H1240  H     0.04828   0.69211   0.77061   0.00000  Uiso   1.00
C1241  C     0.05853   0.72161   0.83593   0.00000  Uiso   1.00
H1242  H     0.05190   0.69476   0.86191   0.00000  Uiso   1.00
H1243  H     0.02424   0.73935   0.84301   0.00000  Uiso   1.00
H1244  H     0.08571   0.74183   0.84590   0.00000  Uiso   1.00
N1245  N     0.06169   0.77030   0.69703   0.00000  Uiso   1.00
H1246  H     0.04762   0.74157   0.70663   0.00000  Uiso   1.00
C1247  C     0.07856   0.77482   0.64073   0.00000  Uiso   1.00
H1248  H     0.06010   0.75250   0.62099   0.00000  Uiso   1.00
H1249  H     0.11804   0.76831   0.62678   0.00000  Uiso   1.00
H1250  H     0.07161   0.80622   0.62908   0.00000  Uiso   1.00
C1251  C     0.29074   0.88182   0.90868   0.00000  Uiso   1.00
N1252  N     0.32842   0.89506   0.88832   0.00000  Uiso   1.00
N1253  N     0.01600   0.88351   0.51205   0.00000  Uiso   1.00
H1254  H     0.00341   0.87830   0.55166   0.00000  Uiso   1.00
C1255  C     0.01263   0.92667   0.50208   0.00000  Uiso   1.00
H1256  H     0.30753   0.93685   0.51646   0.00000  Uiso   1.00
H1257  H     0.02626   0.93257   0.95953   0.00000  Uiso   1.00
H1258  H     0.03421   0.94493   0.52293   0.00000  Uiso   1.00
N1259  N     0.21039   0.90580   0.87176   0.00000  Uiso   1.00
H1260  H     0.24414   0.91866   0.85938   0.00000  Uiso   1.00
C1261  C     0.17364   0.93797   0.88439   0.00000  Uiso   1.00
H1262  H     0.18533   0.96389   0.85758   0.00000  Uiso   1.00
H1263  H     0.16800   0.94992   0.92516   0.00000  Uiso   1.00
H1264  H     0.13898   0.92660   0.87950   0.00000  Uiso   1.00
C1265  C     0.49983   0.91245   0.75045   0.00000  Uiso   1.00
C1266  C     0.47864   0.85749   0.98964   0.00000  Uiso   1.00
C1267  C     0.49280   0.85846   0.93453   0.00000  Uiso   1.00
C1268  C     0.51503   0.85202   0.51480   0.00000  Uiso   1.00
C1269  C     0.56398   0.85054   0.98400   0.00000  Uiso   1.00
C1270  C     0.57605   0.86689   0.93327   0.00000  Uiso   1.00
C1271  C     0.53866   0.87481   0.91037   0.00000  Uiso   1.00
C1272  C     0.50428   0.84638   0.56878   0.00000  Uiso   1.00
C1273  C     0.58709   0.82577   0.55903   0.00000  Uiso   1.00
C1274  C     0.45873   0.84911   0.90713   0.00000  Uiso   1.00
C1275  C     0.54140   0.97787   0.75188   0.00000  Uiso   1.00
C1276  C     0.47408   0.83783   0.85003   0.00000  Uiso   1.00
C1277  C     0.54103   0.68685   0.75711   0.00000  Uiso   1.00
C1278  C     0.49810   0.70931   0.75976   0.00000  Uiso   1.00
C1279  C     0.45413   0.68763   0.76688   0.00000  Uiso   1.00
C1280  C     0.45540   0.97835   0.76193   0.00000  Uiso   1.00
C1281  C     0.49905   0.95693   0.75324   0.00000  Uiso   1.00
C1282  C     0.63673   0.86588   0.77008   0.00000  Uiso   1.00
C1283  C     0.35247   0.86567   0.77078   0.00000  Uiso   1.00
C1284  C     0.36434   0.80231   0.72526   0.00000  Uiso   1.00
C1285  C     0.64810   0.80236   0.72601   0.00000  Uiso   1.00
C1286  C     0.49915   0.75417   0.75373   0.00000  Uiso   1.00
C1287  C     0.52590   0.83265   0.64967   0.00000  Uiso   1.00
C1288  C     0.59897   0.83459   0.50559   0.00000  Uiso   1.00
C1289  C     0.54004   0.83475   0.59180   0.00000  Uiso   1.00
C1290  C     0.40950   0.85343   0.93493   0.00000  Uiso   1.00
C1291  C     0.39574   0.86602   0.98798   0.00000  Uiso   1.00
C1292  C     0.42937   0.86373   0.51628   0.00000  Uiso   1.00
Cu1293 Cu    0.45311   0.83333   0.75000   0.00000  Uiso   1.00
Cu1294 Cu    0.54689   0.83334   0.75000   0.00000  Uiso   1.00
H1295  H     0.42182   0.96197   0.76661   0.00000  Uiso   1.00
H1296  H     0.61500   0.89284   0.78382   0.00000  Uiso   1.00
H1297  H     0.36645   0.89204   0.78678   0.00000  Uiso   1.00
H1298  H     0.63484   0.77805   0.70566   0.00000  Uiso   1.00
H1299  H     0.63522   0.82825   0.98051   0.00000  Uiso   1.00
H1300  H     0.46796   0.85092   0.59367   0.00000  Uiso   1.00
H1301  H     0.38229   0.84885   0.91507   0.00000  Uiso   1.00
H1302  H     0.41676   0.87051   0.55784   0.00000  Uiso   1.00
H1303  H     0.57472   0.96112   0.74871   0.00000  Uiso   1.00
N1304  N     0.38265   0.83332   0.74998   0.00000  Uiso   1.00
N1305  N     0.61735   0.83335   0.75000   0.00000  Uiso   1.00
O1306  O     0.46042   0.89345   0.75000   0.00000  Uiso   1.00
O1307  O     0.53961   0.89346   0.75001   0.00000  Uiso   1.00
O1308  O     0.44108   0.83332   0.82549   0.00000  Uiso   1.00
O1309  O     0.52027   0.83333   0.82549   0.00000  Uiso   1.00
O1310  O     0.46039   0.77321   0.75000   0.00000  Uiso   1.00
O1311  O     0.53958   0.77322   0.75000   0.00000  Uiso   1.00
O1312  O     0.47973   0.83334   0.67451   0.00000  Uiso   1.00
O1313  O     0.55892   0.83335   0.67451   0.00000  Uiso   1.00
C1314  C     0.62327   0.80662   0.57859   0.00000  Uiso   1.00
N1315  N     0.65236   0.79117   0.59408   0.00000  Uiso   1.00
C1316  C     0.58408   0.70488   0.76515   0.00000  Uiso   1.00
N1317  N     0.61860   0.71845   0.77257   0.00000  Uiso   1.00
N1318  N     0.40824   0.70795   0.78154   0.00000  Uiso   1.00
H1319  H     0.38162   0.69211   0.77061   0.00000  Uiso   1.00
C1320  C     0.39186   0.72161   0.83593   0.00000  Uiso   1.00
H1321  H     0.38523   0.69476   0.86191   0.00000  Uiso   1.00
H1322  H     0.35757   0.73935   0.84301   0.00000  Uiso   1.00
H1323  H     0.41904   0.74183   0.84590   0.00000  Uiso   1.00
N1324  N     0.39502   0.77030   0.69703   0.00000  Uiso   1.00
H1325  H     0.38095   0.74157   0.70663   0.00000  Uiso   1.00
C1326  C     0.41190   0.77482   0.64073   0.00000  Uiso   1.00
H1327  H     0.39343   0.75250   0.62099   0.00000  Uiso   1.00
H1328  H     0.45137   0.76831   0.62678   0.00000  Uiso   1.00
H1329  H     0.40494   0.80622   0.62908   0.00000  Uiso   1.00
C1330  C     0.62407   0.88182   0.90868   0.00000  Uiso   1.00
N1331  N     0.66175   0.89506   0.88832   0.00000  Uiso   1.00
N1332  N     0.34933   0.88351   0.51205   0.00000  Uiso   1.00
H1333  H     0.33675   0.87830   0.55166   0.00000  Uiso   1.00
C1334  C     0.34596   0.92667   0.50208   0.00000  Uiso   1.00
H1335  H     0.64087   0.93685   0.51646   0.00000  Uiso   1.00
H1336  H     0.35959   0.93257   0.95953   0.00000  Uiso   1.00
H1337  H     0.36754   0.94493   0.52293   0.00000  Uiso   1.00
N1338  N     0.54372   0.90580   0.87176   0.00000  Uiso   1.00
H1339  H     0.57747   0.91866   0.85938   0.00000  Uiso   1.00
C1340  C     0.50697   0.93797   0.88439   0.00000  Uiso   1.00
H1341  H     0.51866   0.96389   0.85758   0.00000  Uiso   1.00
H1342  H     0.50133   0.94992   0.92516   0.00000  Uiso   1.00
H1343  H     0.47231   0.92660   0.87950   0.00000  Uiso   1.00
C1344  C     0.83316   0.91245   0.75045   0.00000  Uiso   1.00
C1345  C     0.81197   0.85749   0.98964   0.00000  Uiso   1.00
C1346  C     0.82613   0.85846   0.93453   0.00000  Uiso   1.00
C1347  C     0.84836   0.85202   0.51480   0.00000  Uiso   1.00
C1348  C     0.89731   0.85054   0.98400   0.00000  Uiso   1.00
C1349  C     0.90938   0.86689   0.93327   0.00000  Uiso   1.00
C1350  C     0.87200   0.87481   0.91037   0.00000  Uiso   1.00
C1351  C     0.83761   0.84638   0.56878   0.00000  Uiso   1.00
C1352  C     0.92042   0.82577   0.55903   0.00000  Uiso   1.00
C1353  C     0.79207   0.84911   0.90713   0.00000  Uiso   1.00
C1354  C     0.87474   0.97787   0.75188   0.00000  Uiso   1.00
C1355  C     0.80741   0.83783   0.85003   0.00000  Uiso   1.00
C1356  C     0.87436   0.68685   0.75711   0.00000  Uiso   1.00
C1357  C     0.83144   0.70931   0.75976   0.00000  Uiso   1.00
C1358  C     0.78746   0.68763   0.76688   0.00000  Uiso   1.00
C1359  C     0.78873   0.97835   0.76193   0.00000  Uiso   1.00
C1360  C     0.83238   0.95693   0.75324   0.00000  Uiso   1.00
C1361  C     0.97007   0.86588   0.77008   0.00000  Uiso   1.00
C1362  C     0.68581   0.86567   0.77078   0.00000  Uiso   1.00
C1363  C     0.69767   0.80231   0.72526   0.00000  Uiso   1.00
C1364  C     0.98143   0.80236   0.72601   0.00000  Uiso   1.00
C1365  C     0.83249   0.75417   0.75373   0.00000  Uiso   1.00
C1366  C     0.85923   0.83265   0.64967   0.00000  Uiso   1.00
C1367  C     0.93230   0.83459   0.50559   0.00000  Uiso   1.00
C1368  C     0.87337   0.83475   0.59180   0.00000  Uiso   1.00
C1369  C     0.74283   0.85343   0.93493   0.00000  Uiso   1.00
C1370  C     0.72907   0.86602   0.98798   0.00000  Uiso   1.00
C1371  C     0.76270   0.86373   0.51628   0.00000  Uiso   1.00
Cu1372 Cu    0.78645   0.83333   0.75000   0.00000  Uiso   1.00
Cu1373 Cu    0.88022   0.83334   0.75000   0.00000  Uiso   1.00
H1374  H     0.75515   0.96197   0.76661   0.00000  Uiso   1.00
H1375  H     0.94834   0.89284   0.78382   0.00000  Uiso   1.00
H1376  H     0.69979   0.89204   0.78678   0.00000  Uiso   1.00
H1377  H     0.96818   0.77805   0.70566   0.00000  Uiso   1.00
H1378  H     0.96855   0.82825   0.98051   0.00000  Uiso   1.00
H1379  H     0.80129   0.85092   0.59367   0.00000  Uiso   1.00
H1380  H     0.71563   0.84885   0.91507   0.00000  Uiso   1.00
H1381  H     0.75009   0.87051   0.55784   0.00000  Uiso   1.00
H1382  H     0.90806   0.96112   0.74871   0.00000  Uiso   1.00
N1383  N     0.71598   0.83332   0.74998   0.00000  Uiso   1.00
N1384  N     0.95069   0.83335   0.75000   0.00000  Uiso   1.00
O1385  O     0.79375   0.89345   0.75000   0.00000  Uiso   1.00
O1386  O     0.87294   0.89346   0.75001   0.00000  Uiso   1.00
O1387  O     0.77441   0.83332   0.82549   0.00000  Uiso   1.00
O1388  O     0.85360   0.83333   0.82549   0.00000  Uiso   1.00
O1389  O     0.79373   0.77321   0.75000   0.00000  Uiso   1.00
O1390  O     0.87292   0.77322   0.75000   0.00000  Uiso   1.00
O1391  O     0.81306   0.83334   0.67451   0.00000  Uiso   1.00
O1392  O     0.89225   0.83335   0.67451   0.00000  Uiso   1.00
C1393  C     0.95660   0.80662   0.57859   0.00000  Uiso   1.00
N1394  N     0.98569   0.79117   0.59408   0.00000  Uiso   1.00
C1395  C     0.91742   0.70488   0.76515   0.00000  Uiso   1.00
N1396  N     0.95194   0.71845   0.77257   0.00000  Uiso   1.00
N1397  N     0.74157   0.70795   0.78154   0.00000  Uiso   1.00
H1398  H     0.71495   0.69211   0.77061   0.00000  Uiso   1.00
C1399  C     0.72520   0.72161   0.83593   0.00000  Uiso   1.00
H1400  H     0.71856   0.69476   0.86191   0.00000  Uiso   1.00
H1401  H     0.69090   0.73935   0.84301   0.00000  Uiso   1.00
H1402  H     0.75238   0.74183   0.84590   0.00000  Uiso   1.00
N1403  N     0.72836   0.77030   0.69703   0.00000  Uiso   1.00
H1404  H     0.71428   0.74157   0.70663   0.00000  Uiso   1.00
C1405  C     0.74523   0.77482   0.64073   0.00000  Uiso   1.00
H1406  H     0.72676   0.75250   0.62099   0.00000  Uiso   1.00
H1407  H     0.78470   0.76831   0.62678   0.00000  Uiso   1.00
H1408  H     0.73828   0.80622   0.62908   0.00000  Uiso   1.00
C1409  C     0.95740   0.88182   0.90868   0.00000  Uiso   1.00
N1410  N     0.99508   0.89506   0.88832   0.00000  Uiso   1.00
N1411  N     0.68267   0.88351   0.51205   0.00000  Uiso   1.00
H1412  H     0.67008   0.87830   0.55166   0.00000  Uiso   1.00
C1413  C     0.67929   0.92667   0.50208   0.00000  Uiso   1.00
H1414  H     0.97420   0.93685   0.51646   0.00000  Uiso   1.00
H1415  H     0.69292   0.93257   0.95953   0.00000  Uiso   1.00
H1416  H     0.70088   0.94493   0.52293   0.00000  Uiso   1.00
N1417  N     0.87706   0.90580   0.87176   0.00000  Uiso   1.00
H1418  H     0.91081   0.91866   0.85938   0.00000  Uiso   1.00
C1419  C     0.84030   0.93797   0.88439   0.00000  Uiso   1.00
H1420  H     0.85199   0.96389   0.85758   0.00000  Uiso   1.00
H1421  H     0.83466   0.94992   0.92516   0.00000  Uiso   1.00
H1422  H     0.80564   0.92660   0.87950   0.00000  Uiso   1.00
loop_
_geom_bond_atom_site_label_1
_geom_bond_atom_site_label_2
_geom_bond_distance
_geom_bond_site_symmetry_2
_ccdc_geom_bond_type
C1     O43     1.300   .     A
C1     C17     1.450   .     S
C1     O42     1.299   .     A
C2     C3      1.407   .     A
C2     C715    1.413   .     S
C2     C739    1.405   .     S
C3     C7      1.406   .     A
C3     C10     1.413   .     A
C4     C8      1.398   .     A
C4     C713    1.413   1_554 S
C4     C716    1.414   1_554 S
C5     C6      1.413   .     A
C5     C715    1.414   .     S
C5     C735    1.403   .     S
C6     C7      1.410   .     A
C6     C66     1.442   .     S
C7     N74     1.437   .     S
C8     H36     1.074   .     S
C8     C25     1.400   .     A
C9     C25     1.411   .     A
C9     C50     1.442   .     S
C9     C24     1.403   .     A
C10    C26     1.404   .     A
C10    C12     1.493   .     S
C11    H39     1.085   .     S
C11    C17     1.392   .     A
C11    C250    1.383   .     S
C12    O45     1.310   .     A
C12    O44     1.308   .     A
C13    C14     1.421   .     A
C13    C52     1.444   .     S
C13    C485    1.383   1_545 S
C14    C22     1.475   .     S
C14    C15     1.420   .     A
C15    N54     1.424   .     S
C15    C490    1.392   1_545 S
C16    H31     1.084   .     S
C16    C17     1.395   .     A
C16    C252    1.392   .     S
C18    N41     1.368   .     A
C18    H32     1.072   .     S
C18    C98     1.421   .     S
C19    H33     1.080   .     S
C19    N40     1.366   .     A
C19    C176    1.421   1_455 S
C20    N40     1.381   .     A
C20    N60     1.418   .     S
C20    C179    1.424   1_455 S
C21    H34     1.081   .     S
C21    N41     1.362   .     A
C21    C99     1.424   .     S
C22    O47     1.302   .     A
C22    O46     1.308   .     A
C23    O49     1.308   .     A
C23    O48     1.305   .     A
C23    C25     1.481   .     S
C24    C716    1.403   1_554 S
C24    H746    1.082   1_554 S
C26    C27     1.404   .     A
C26    H37     1.075   .     S
C27    C739    1.393   .     S
C27    N779    1.418   .     S
C28    H38     1.078   .     S
C28    C738    1.393   1_554 S
C28    C713    1.405   1_554 S
Cu29   O42     1.972   .     S
Cu29   Cu30    2.705   .     S
Cu29   O48     1.935   .     S
Cu29   O44     1.940   .     S
Cu29   O46     1.971   .     S
Cu29   N40     2.033   .     S
Cu30   O45     1.935   .     S
Cu30   N41     2.033   .     S
Cu30   O47     1.972   .     S
Cu30   O49     1.940   .     S
Cu30   O43     1.971   .     S
H35    C735    1.082   .     S
C50    N51     1.156   .     T
C52    N53     1.156   .     T
N54    C56     1.448   .     S
N54    H55     1.032   .     S
C56    H57     1.112   .     S
C56    H59     1.111   .     S
C56    H58     1.111   .     S
N60    C62     1.449   .     S
N60    H61     1.030   .     S
C62    H64     1.109   .     S
C62    H63     1.111   .     S
C62    H65     1.111   .     S
C66    N67     1.155   .     T
N68    H69     1.031   .     S
N68    C70     1.447   .     S
N68    C738    1.418   1_554 S
C70    H73     1.112   .     S
C70    H229    1.110   1_455 S
C70    H783    1.110   1_554 S
H71    C149    1.110   .     S
H72    C781    1.110   .     S
N74    C76     1.452   .     S
N74    H75     1.027   .     S
C76    H79     1.108   .     S
C76    H78     1.112   .     S
C76    H77     1.109   .     S
C80    O122    1.300   .     A
C80    C96     1.450   .     S
C80    O121    1.299   .     A
C81    C82     1.407   .     A
C81    C794    1.413   .     S
C81    C818    1.405   .     S
C82    C86     1.406   .     A
C82    C89     1.413   .     A
C83    C87     1.398   .     A
C83    C792    1.413   1_554 S
C83    C795    1.414   1_554 S
C84    C85     1.413   .     A
C84    C794    1.414   .     S
C84    C814    1.403   .     S
C85    C86     1.410   .     A
C85    C145    1.442   .     S
C86    N153    1.437   .     S
C87    H115    1.074   .     S
C87    C104    1.400   .     A
C88    C104    1.411   .     A
C88    C129    1.442   .     S
C88    C103    1.403   .     A
C89    C105    1.404   .     A
C89    C91     1.493   .     S
C90    H118    1.085   .     S
C90    C96     1.392   .     A
C90    C329    1.383   .     S
C91    O124    1.310   .     A
C91    O123    1.308   .     A
C92    C93     1.421   .     A
C92    C131    1.444   .     S
C92    C564    1.383   1_545 S
C93    C101    1.475   .     S
C93    C94     1.420   .     A
C94    N133    1.424   .     S
C94    C569    1.392   1_545 S
C95    H110    1.084   .     S
C95    C96     1.395   .     A
C95    C331    1.392   .     S
C97    N120    1.368   .     A
C97    H111    1.072   .     S
C97    C177    1.421   .     S
C98    H112    1.080   .     S
C98    N119    1.366   .     A
C99    N119    1.381   .     A
C99    N139    1.418   .     S
C100   H113    1.081   .     S
C100   N120    1.362   .     A
C100   C178    1.424   .     S
C101   O126    1.302   .     A
C101   O125    1.308   .     A
C102   O128    1.308   .     A
C102   O127    1.305   .     A
C102   C104    1.481   .     S
C103   C795    1.403   1_554 S
C103   H825    1.082   1_554 S
C105   C106    1.404   .     A
C105   H116    1.075   .     S
C106   C818    1.393   .     S
C106   N858    1.418   .     S
C107   H117    1.078   .     S
C107   C817    1.393   1_554 S
C107   C792    1.405   1_554 S
Cu108  O121    1.972   .     S
Cu108  Cu109   2.705   .     S
Cu108  O127    1.935   .     S
Cu108  O123    1.940   .     S
Cu108  O125    1.971   .     S
Cu108  N119    2.033   .     S
Cu109  O124    1.935   .     S
Cu109  N120    2.033   .     S
Cu109  O126    1.972   .     S
Cu109  O128    1.940   .     S
Cu109  O122    1.971   .     S
H114   C814    1.082   .     S
C129   N130    1.156   .     T
C131   N132    1.156   .     T
N133   C135    1.448   .     S
N133   H134    1.032   .     S
C135   H136    1.112   .     S
C135   H138    1.111   .     S
C135   H137    1.111   .     S
N139   C141    1.449   .     S
N139   H140    1.030   .     S
C141   H143    1.109   .     S
C141   H142    1.111   .     S
C141   H144    1.111   .     S
C145   N146    1.155   .     T
N147   H148    1.031   .     S
N147   C149    1.447   .     S
N147   C817    1.418   1_554 S
C149   H152    1.112   .     S
C149   H862    1.110   1_554 S
H150   C228    1.110   .     S
H151   C860    1.110   .     S
N153   C155    1.452   .     S
N153   H154    1.027   .     S
C155   H158    1.108   .     S
C155   H157    1.112   .     S
C155   H156    1.109   .     S
C159   O201    1.300   .     A
C159   C175    1.450   .     S
C159   O200    1.299   .     A
C160   C161    1.407   .     A
C160   C873    1.413   .     S
C160   C897    1.405   .     S
C161   C165    1.406   .     A
C161   C168    1.413   .     A
C162   C166    1.398   .     A
C162   C871    1.413   1_554 S
C162   C874    1.414   1_554 S
C163   C164    1.413   .     A
C163   C873    1.414   .     S
C163   C893    1.403   .     S
C164   C165    1.410   .     A
C164   C224    1.442   .     S
C165   N232    1.437   .     S
C166   H194    1.074   .     S
C166   C183    1.400   .     A
C167   C183    1.411   .     A
C167   C208    1.442   .     S
C167   C182    1.403   .     A
C168   C184    1.404   .     A
C168   C170    1.493   .     S
C169   H197    1.085   .     S
C169   C175    1.392   .     A
C169   C408    1.383   .     S
C170   O203    1.310   .     A
C170   O202    1.308   .     A
C171   C172    1.421   .     A
C171   C210    1.444   .     S
C171   C643    1.383   1_545 S
C172   C180    1.475   .     S
C172   C173    1.420   .     A
C173   N212    1.424   .     S
C173   C648    1.392   1_545 S
C174   H189    1.084   .     S
C174   C175    1.395   .     A
C174   C410    1.392   .     S
C176   N199    1.368   .     A
C176   H190    1.072   .     S
C176   C19     1.421   1_655 S
C177   H191    1.080   .     S
C177   N198    1.366   .     A
C178   N198    1.381   .     A
C178   N218    1.418   .     S
C179   H192    1.081   .     S
C179   N199    1.362   .     A
C179   C20     1.424   1_655 S
C180   O205    1.302   .     A
C180   O204    1.308   .     A
C181   O207    1.308   .     A
C181   O206    1.305   .     A
C181   C183    1.481   .     S
C182   C874    1.403   1_554 S
C182   H904    1.082   1_554 S
C184   C185    1.404   .     A
C184   H195    1.075   .     S
C185   C897    1.393   .     S
C185   N937    1.418   .     S
C186   H196    1.078   .     S
C186   C896    1.393   1_554 S
C186   C871    1.405   1_554 S
Cu187  O200    1.972   .     S
Cu187  Cu188   2.705   .     S
Cu187  O206    1.935   .     S
Cu187  O202    1.940   .     S
Cu187  O204    1.971   .     S
Cu187  N198    2.033   .     S
Cu188  O203    1.935   .     S
Cu188  N199    2.033   .     S
Cu188  O205    1.972   .     S
Cu188  O207    1.940   .     S
Cu188  O201    1.971   .     S
H193   C893    1.082   .     S
C208   N209    1.156   .     T
C210   N211    1.156   .     T
N212   C214    1.448   .     S
N212   H213    1.032   .     S
C214   H215    1.112   .     S
C214   H217    1.111   .     S
C214   H216    1.111   .     S
N218   C220    1.449   .     S
N218   H219    1.030   .     S
C220   H222    1.109   .     S
C220   H221    1.111   .     S
C220   H223    1.111   .     S
C224   N225    1.155   .     T
N226   H227    1.031   .     S
N226   C228    1.447   .     S
N226   C896    1.418   1_554 S
C228   H231    1.112   .     S
C228   H941    1.110   1_554 S
H229   C70     1.110   1_655 S
H230   C939    1.110   .     S
N232   C234    1.452   .     S
N232   H233    1.027   .     S
C234   H237    1.108   .     S
C234   H236    1.112   .     S
C234   H235    1.109   .     S
C238   O280    1.300   .     A
C238   C254    1.450   .     S
C238   O279    1.299   .     A
C239   C240    1.407   .     A
C239   C952    1.413   .     S
C239   C976    1.405   .     S
C240   C244    1.406   .     A
C240   C247    1.413   .     A
C241   C245    1.398   .     A
C241   C950    1.413   1_554 S
C241   C953    1.414   1_554 S
C242   C243    1.413   .     A
C242   C952    1.414   .     S
C242   C972    1.403   .     S
C243   C244    1.410   .     A
C243   C303    1.442   .     S
C244   N311    1.437   .     S
C245   H273    1.074   .     S
C245   C262    1.400   .     A
C246   C262    1.411   .     A
C246   C287    1.442   .     S
C246   C261    1.403   .     A
C247   C263    1.404   .     A
C247   C249    1.493   .     S
C248   H276    1.085   .     S
C248   C254    1.392   .     A
C248   C487    1.383   .     S
C249   O282    1.310   .     A
C249   O281    1.308   .     A
C250   C251    1.421   .     A
C250   C289    1.444   .     S
C251   C259    1.475   .     S
C251   C252    1.420   .     A
C252   N291    1.424   .     S
C253   H268    1.084   .     S
C253   C254    1.395   .     A
C253   C489    1.392   .     S
C255   N278    1.368   .     A
C255   H269    1.072   .     S
C255   C335    1.421   .     S
C256   H270    1.080   .     S
C256   N277    1.366   .     A
C256   C413    1.421   1_455 S
C257   N277    1.381   .     A
C257   N297    1.418   .     S
C257   C416    1.424   1_455 S
C258   H271    1.081   .     S
C258   N278    1.362   .     A
C258   C336    1.424   .     S
C259   O284    1.302   .     A
C259   O283    1.308   .     A
C260   O286    1.308   .     A
C260   O285    1.305   .     A
C260   C262    1.481   .     S
C261   C953    1.403   1_554 S
C261   H983    1.082   1_554 S
C263   C264    1.404   .     A
C263   H274    1.075   .     S
C264   C976    1.393   .     S
C264   N1016   1.418   .     S
C265   H275    1.078   .     S
C265   C975    1.393   1_554 S
C265   C950    1.405   1_554 S
Cu266  O279    1.972   .     S
Cu266  Cu267   2.705   .     S
Cu266  O285    1.935   .     S
Cu266  O281    1.940   .     S
Cu266  O283    1.971   .     S
Cu266  N277    2.033   .     S
Cu267  O282    1.935   .     S
Cu267  N278    2.033   .     S
Cu267  O284    1.972   .     S
Cu267  O286    1.940   .     S
Cu267  O280    1.971   .     S
H272   C972    1.082   .     S
C287   N288    1.156   .     T
C289   N290    1.156   .     T
N291   C293    1.448   .     S
N291   H292    1.032   .     S
C293   H294    1.112   .     S
C293   H296    1.111   .     S
C293   H295    1.111   .     S
N297   C299    1.449   .     S
N297   H298    1.030   .     S
C299   H301    1.109   .     S
C299   H300    1.111   .     S
C299   H302    1.111   .     S
C303   N304    1.155   .     T
N305   H306    1.031   .     S
N305   C307    1.447   .     S
N305   C975    1.418   1_554 S
C307   H310    1.112   .     S
C307   H466    1.110   1_455 S
C307   H1020   1.110   1_554 S
H308   C386    1.110   .     S
H309   C1018   1.110   .     S
N311   C313    1.452   .     S
N311   H312    1.027   .     S
C313   H316    1.108   .     S
C313   H315    1.112   .     S
C313   H314    1.109   .     S
C317   O359    1.300   .     A
C317   C333    1.450   .     S
C317   O358    1.299   .     A
C318   C319    1.407   .     A
C318   C1031   1.413   .     S
C318   C1055   1.405   .     S
C319   C323    1.406   .     A
C319   C326    1.413   .     A
C320   C324    1.398   .     A
C320   C1029   1.413   1_554 S
C320   C1032   1.414   1_554 S
C321   C322    1.413   .     A
C321   C1031   1.414   .     S
C321   C1051   1.403   .     S
C322   C323    1.410   .     A
C322   C382    1.442   .     S
C323   N390    1.437   .     S
C324   H352    1.074   .     S
C324   C341    1.400   .     A
C325   C341    1.411   .     A
C325   C366    1.442   .     S
C325   C340    1.403   .     A
C326   C342    1.404   .     A
C326   C328    1.493   .     S
C327   H355    1.085   .     S
C327   C333    1.392   .     A
C327   C566    1.383   .     S
C328   O361    1.310   .     A
C328   O360    1.308   .     A
C329   C330    1.421   .     A
C329   C368    1.444   .     S
C330   C338    1.475   .     S
C330   C331    1.420   .     A
C331   N370    1.424   .     S
C332   H347    1.084   .     S
C332   C333    1.395   .     A
C332   C568    1.392   .     S
C334   N357    1.368   .     A
C334   H348    1.072   .     S
C334   C414    1.421   .     S
C335   H349    1.080   .     S
C335   N356    1.366   .     A
C336   N356    1.381   .     A
C336   N376    1.418   .     S
C337   H350    1.081   .     S
C337   N357    1.362   .     A
C337   C415    1.424   .     S
C338   O363    1.302   .     A
C338   O362    1.308   .     A
C339   O365    1.308   .     A
C339   O364    1.305   .     A
C339   C341    1.481   .     S
C340   C1032   1.403   1_554 S
C340   H1062   1.082   1_554 S
C342   C343    1.404   .     A
C342   H353    1.075   .     S
C343   C1055   1.393   .     S
C343   N1095   1.418   .     S
C344   H354    1.078   .     S
C344   C1054   1.393   1_554 S
C344   C1029   1.405   1_554 S
Cu345  O358    1.972   .     S
Cu345  Cu346   2.705   .     S
Cu345  O364    1.935   .     S
Cu345  O360    1.940   .     S
Cu345  O362    1.971   .     S
Cu345  N356    2.033   .     S
Cu346  O361    1.935   .     S
Cu346  N357    2.033   .     S
Cu346  O363    1.972   .     S
Cu346  O365    1.940   .     S
Cu346  O359    1.971   .     S
H351   C1051   1.082   .     S
C366   N367    1.156   .     T
C368   N369    1.156   .     T
N370   C372    1.448   .     S
N370   H371    1.032   .     S
C372   H373    1.112   .     S
C372   H375    1.111   .     S
C372   H374    1.111   .     S
N376   C378    1.449   .     S
N376   H377    1.030   .     S
C378   H380    1.109   .     S
C378   H379    1.111   .     S
C378   H381    1.111   .     S
C382   N383    1.155   .     T
N384   H385    1.031   .     S
N384   C386    1.447   .     S
N384   C1054   1.418   1_554 S
C386   H389    1.112   .     S
C386   H1099   1.110   1_554 S
H387   C465    1.110   .     S
H388   C1097   1.110   .     S
N390   C392    1.452   .     S
N390   H391    1.027   .     S
C392   H395    1.108   .     S
C392   H394    1.112   .     S
C392   H393    1.109   .     S
C396   O438    1.300   .     A
C396   C412    1.450   .     S
C396   O437    1.299   .     A
C397   C398    1.407   .     A
C397   C1110   1.413   .     S
C397   C1134   1.405   .     S
C398   C402    1.406   .     A
C398   C405    1.413   .     A
C399   C403    1.398   .     A
C399   C1108   1.413   1_554 S
C399   C1111   1.414   1_554 S
C400   C401    1.413   .     A
C400   C1110   1.414   .     S
C400   C1130   1.403   .     S
C401   C402    1.410   .     A
C401   C461    1.442   .     S
C402   N469    1.437   .     S
C403   H431    1.074   .     S
C403   C420    1.400   .     A
C404   C420    1.411   .     A
C404   C445    1.442   .     S
C404   C419    1.403   .     A
C405   C421    1.404   .     A
C405   C407    1.493   .     S
C406   H434    1.085   .     S
C406   C412    1.392   .     A
C406   C645    1.383   .     S
C407   O440    1.310   .     A
C407   O439    1.308   .     A
C408   C409    1.421   .     A
C408   C447    1.444   .     S
C409   C417    1.475   .     S
C409   C410    1.420   .     A
C410   N449    1.424   .     S
C411   H426    1.084   .     S
C411   C412    1.395   .     A
C411   C647    1.392   .     S
C413   N436    1.368   .     A
C413   H427    1.072   .     S
C413   C256    1.421   1_655 S
C414   H428    1.080   .     S
C414   N435    1.366   .     A
C415   N435    1.381   .     A
C415   N455    1.418   .     S
C416   H429    1.081   .     S
C416   N436    1.362   .     A
C416   C257    1.424   1_655 S
C417   O442    1.302   .     A
C417   O441    1.308   .     A
C418   O444    1.308   .     A
C418   O443    1.305   .     A
C418   C420    1.481   .     S
C419   C1111   1.403   1_554 S
C419   H1141   1.082   1_554 S
C421   C422    1.404   .     A
C421   H432    1.075   .     S
C422   C1134   1.393   .     S
C422   N1174   1.418   .     S
C423   H433    1.078   .     S
C423   C1133   1.393   1_554 S
C423   C1108   1.405   1_554 S
Cu424  O437    1.972   .     S
Cu424  Cu425   2.705   .     S
Cu424  O443    1.935   .     S
Cu424  O439    1.940   .     S
Cu424  O441    1.971   .     S
Cu424  N435    2.033   .     S
Cu425  O440    1.935   .     S
Cu425  N436    2.033   .     S
Cu425  O442    1.972   .     S
Cu425  O444    1.940   .     S
Cu425  O438    1.971   .     S
H430   C1130   1.082   .     S
C445   N446    1.156   .     T
C447   N448    1.156   .     T
N449   C451    1.448   .     S
N449   H450    1.032   .     S
C451   H452    1.112   .     S
C451   H454    1.111   .     S
C451   H453    1.111   .     S
N455   C457    1.449   .     S
N455   H456    1.030   .     S
C457   H459    1.109   .     S
C457   H458    1.111   .     S
C457   H460    1.111   .     S
C461   N462    1.155   .     T
N463   H464    1.031   .     S
N463   C465    1.447   .     S
N463   C1133   1.418   1_554 S
C465   H468    1.112   .     S
C465   H1178   1.110   1_554 S
H466   C307    1.110   1_655 S
H467   C1176   1.110   .     S
N469   C471    1.452   .     S
N469   H470    1.027   .     S
C471   H474    1.108   .     S
C471   H473    1.112   .     S
C471   H472    1.109   .     S
C475   O517    1.300   .     A
C475   C491    1.450   .     S
C475   O516    1.299   .     A
C476   C477    1.407   .     A
C476   C1189   1.413   .     S
C476   C1213   1.405   .     S
C477   C481    1.406   .     A
C477   C484    1.413   .     A
C478   C482    1.398   .     A
C478   C1187   1.413   1_554 S
C478   C1190   1.414   1_554 S
C479   C480    1.413   .     A
C479   C1189   1.414   .     S
C479   C1209   1.403   .     S
C480   C481    1.410   .     A
C480   C540    1.442   .     S
C481   N548    1.437   .     S
C482   H510    1.074   .     S
C482   C499    1.400   .     A
C483   C499    1.411   .     A
C483   C524    1.442   .     S
C483   C498    1.403   .     A
C484   C500    1.404   .     A
C484   C486    1.493   .     S
C485   H513    1.085   .     S
C485   C491    1.392   .     A
C485   C13     1.383   1_565 S
C486   O519    1.310   .     A
C486   O518    1.308   .     A
C487   C488    1.421   .     A
C487   C526    1.444   .     S
C488   C496    1.475   .     S
C488   C489    1.420   .     A
C489   N528    1.424   .     S
C490   H505    1.084   .     S
C490   C491    1.395   .     A
C490   C15     1.392   1_565 S
C492   N515    1.368   .     A
C492   H506    1.072   .     S
C492   C572    1.421   .     S
C493   H507    1.080   .     S
C493   N514    1.366   .     A
C493   C650    1.421   1_455 S
C494   N514    1.381   .     A
C494   N534    1.418   .     S
C494   C653    1.424   1_455 S
C495   H508    1.081   .     S
C495   N515    1.362   .     A
C495   C573    1.424   .     S
C496   O521    1.302   .     A
C496   O520    1.308   .     A
C497   O523    1.308   .     A
C497   O522    1.305   .     A
C497   C499    1.481   .     S
C498   C1190   1.403   1_554 S
C498   H1220   1.082   1_554 S
C500   C501    1.404   .     A
C500   H511    1.075   .     S
C501   C1213   1.393   .     S
C501   N1253   1.418   .     S
C502   H512    1.078   .     S
C502   C1212   1.393   1_554 S
C502   C1187   1.405   1_554 S
Cu503  O516    1.972   .     S
Cu503  Cu504   2.705   .     S
Cu503  O522    1.935   .     S
Cu503  O518    1.940   .     S
Cu503  O520    1.971   .     S
Cu503  N514    2.033   .     S
Cu504  O519    1.935   .     S
Cu504  N515    2.033   .     S
Cu504  O521    1.972   .     S
Cu504  O523    1.940   .     S
Cu504  O517    1.971   .     S
H509   C1209   1.082   .     S
C524   N525    1.156   .     T
C526   N527    1.156   .     T
N528   C530    1.448   .     S
N528   H529    1.032   .     S
C530   H531    1.112   .     S
C530   H533    1.111   .     S
C530   H532    1.111   .     S
N534   C536    1.449   .     S
N534   H535    1.030   .     S
C536   H538    1.109   .     S
C536   H537    1.111   .     S
C536   H539    1.111   .     S
C540   N541    1.155   .     T
N542   H543    1.031   .     S
N542   C544    1.447   .     S
N542   C1212   1.418   1_554 S
C544   H547    1.112   .     S
C544   H703    1.110   1_455 S
C544   H1257   1.110   1_554 S
H545   C623    1.110   .     S
H546   C1255   1.110   .     S
N548   C550    1.452   .     S
N548   H549    1.027   .     S
C550   H553    1.108   .     S
C550   H552    1.112   .     S
C550   H551    1.109   .     S
C554   O596    1.300   .     A
C554   C570    1.450   .     S
C554   O595    1.299   .     A
C555   C556    1.407   .     A
C555   C1268   1.413   .     S
C555   C1292   1.405   .     S
C556   C560    1.406   .     A
C556   C563    1.413   .     A
C557   C561    1.398   .     A
C557   C1266   1.413   1_554 S
C557   C1269   1.414   1_554 S
C558   C559    1.413   .     A
C558   C1268   1.414   .     S
C558   C1288   1.403   .     S
C559   C560    1.410   .     A
C559   C619    1.442   .     S
C560   N627    1.437   .     S
C561   H589    1.074   .     S
C561   C578    1.400   .     A
C562   C578    1.411   .     A
C562   C603    1.442   .     S
C562   C577    1.403   .     A
C563   C579    1.404   .     A
C563   C565    1.493   .     S
C564   H592    1.085   .     S
C564   C570    1.392   .     A
C564   C92     1.383   1_565 S
C565   O598    1.310   .     A
C565   O597    1.308   .     A
C566   C567    1.421   .     A
C566   C605    1.444   .     S
C567   C575    1.475   .     S
C567   C568    1.420   .     A
C568   N607    1.424   .     S
C569   H584    1.084   .     S
C569   C570    1.395   .     A
C569   C94     1.392   1_565 S
C571   N594    1.368   .     A
C571   H585    1.072   .     S
C571   C651    1.421   .     S
C572   H586    1.080   .     S
C572   N593    1.366   .     A
C573   N593    1.381   .     A
C573   N613    1.418   .     S
C574   H587    1.081   .     S
C574   N594    1.362   .     A
C574   C652    1.424   .     S
C575   O600    1.302   .     A
C575   O599    1.308   .     A
C576   O602    1.308   .     A
C576   O601    1.305   .     A
C576   C578    1.481   .     S
C577   C1269   1.403   1_554 S
C577   H1299   1.082   1_554 S
C579   C580    1.404   .     A
C579   H590    1.075   .     S
C580   C1292   1.393   .     S
C580   N1332   1.418   .     S
C581   H591    1.078   .     S
C581   C1291   1.393   1_554 S
C581   C1266   1.405   1_554 S
Cu582  O595    1.972   .     S
Cu582  Cu583   2.705   .     S
Cu582  O601    1.935   .     S
Cu582  O597    1.940   .     S
Cu582  O599    1.971   .     S
Cu582  N593    2.033   .     S
Cu583  O598    1.935   .     S
Cu583  N594    2.033   .     S
Cu583  O600    1.972   .     S
Cu583  O602    1.940   .     S
Cu583  O596    1.971   .     S
H588   C1288   1.082   .     S
C603   N604    1.156   .     T
C605   N606    1.156   .     T
N607   C609    1.448   .     S
N607   H608    1.032   .     S
C609   H610    1.112   .     S
C609   H612    1.111   .     S
C609   H611    1.111   .     S
N613   C615    1.449   .     S
N613   H614    1.030   .     S
C615   H617    1.109   .     S
C615   H616    1.111   .     S
C615   H618    1.111   .     S
C619   N620    1.155   .     T
N621   H622    1.031   .     S
N621   C623    1.447   .     S
N621   C1291   1.418   1_554 S
C623   H626    1.112   .     S
C623   H1336   1.110   1_554 S
H624   C702    1.110   .     S
H625   C1334   1.110   .     S
N627   C629    1.452   .     S
N627   H628    1.027   .     S
C629   H632    1.108   .     S
C629   H631    1.112   .     S
C629   H630    1.109   .     S
C633   O675    1.300   .     A
C633   C649    1.450   .     S
C633   O674    1.299   .     A
C634   C635    1.407   .     A
C634   C1347   1.413   .     S
C634   C1371   1.405   .     S
C635   C639    1.406   .     A
C635   C642    1.413   .     A
C636   C640    1.398   .     A
C636   C1345   1.413   1_554 S
C636   C1348   1.414   1_554 S
C637   C638    1.413   .     A
C637   C1347   1.414   .     S
C637   C1367   1.403   .     S
C638   C639    1.410   .     A
C638   C698    1.442   .     S
C639   N706    1.437   .     S
C640   H668    1.074   .     S
C640   C657    1.400   .     A
C641   C657    1.411   .     A
C641   C682    1.442   .     S
C641   C656    1.403   .     A
C642   C658    1.404   .     A
C642   C644    1.493   .     S
C643   H671    1.085   .     S
C643   C649    1.392   .     A
C643   C171    1.383   1_565 S
C644   O677    1.310   .     A
C644   O676    1.308   .     A
C645   C646    1.421   .     A
C645   C684    1.444   .     S
C646   C654    1.475   .     S
C646   C647    1.420   .     A
C647   N686    1.424   .     S
C648   H663    1.084   .     S
C648   C649    1.395   .     A
C648   C173    1.392   1_565 S
C650   N673    1.368   .     A
C650   H664    1.072   .     S
C650   C493    1.421   1_655 S
C651   H665    1.080   .     S
C651   N672    1.366   .     A
C652   N672    1.381   .     A
C652   N692    1.418   .     S
C653   H666    1.081   .     S
C653   N673    1.362   .     A
C653   C494    1.424   1_655 S
C654   O679    1.302   .     A
C654   O678    1.308   .     A
C655   O681    1.308   .     A
C655   O680    1.305   .     A
C655   C657    1.481   .     S
C656   C1348   1.403   1_554 S
C656   H1378   1.082   1_554 S
C658   C659    1.404   .     A
C658   H669    1.075   .     S
C659   C1371   1.393   .     S
C659   N1411   1.418   .     S
C660   H670    1.078   .     S
C660   C1370   1.393   1_554 S
C660   C1345   1.405   1_554 S
Cu661  O674    1.972   .     S
Cu661  Cu662   2.705   .     S
Cu661  O680    1.935   .     S
Cu661  O676    1.940   .     S
Cu661  O678    1.971   .     S
Cu661  N672    2.033   .     S
Cu662  O677    1.935   .     S
Cu662  N673    2.033   .     S
Cu662  O679    1.972   .     S
Cu662  O681    1.940   .     S
Cu662  O675    1.971   .     S
H667   C1367   1.082   .     S
C682   N683    1.156   .     T
C684   N685    1.156   .     T
N686   C688    1.448   .     S
N686   H687    1.032   .     S
C688   H689    1.112   .     S
C688   H691    1.111   .     S
C688   H690    1.111   .     S
N692   C694    1.449   .     S
N692   H693    1.030   .     S
C694   H696    1.109   .     S
C694   H695    1.111   .     S
C694   H697    1.111   .     S
C698   N699    1.155   .     T
N700   H701    1.031   .     S
N700   C702    1.447   .     S
N700   C1370   1.418   1_554 S
C702   H705    1.112   .     S
C702   H1415   1.110   1_554 S
H703   C544    1.110   1_655 S
H704   C1413   1.110   .     S
N706   C708    1.452   .     S
N706   H707    1.027   .     S
C708   H711    1.108   .     S
C708   H710    1.112   .     S
C708   H709    1.109   .     S
C712   O754    1.300   .     A
C712   C728    1.450   .     S
C712   O753    1.299   .     A
C713   C714    1.407   .     A
C713   C4      1.413   1_556 S
C713   C28     1.405   1_556 S
C714   C718    1.406   .     A
C714   C721    1.413   .     A
C715   C719    1.398   .     A
C716   C717    1.413   .     A
C716   C4      1.414   1_556 S
C716   C24     1.403   1_556 S
C717   C718    1.410   .     A
C717   C777    1.442   .     S
C718   N785    1.437   .     S
C719   H747    1.074   .     S
C719   C736    1.400   .     A
C720   C736    1.411   .     A
C720   C761    1.442   .     S
C720   C735    1.403   .     A
C721   C737    1.404   .     A
C721   C723    1.493   .     S
C722   H750    1.085   .     S
C722   C728    1.392   .     A
C722   C961    1.383   .     S
C723   O756    1.310   .     A
C723   O755    1.308   .     A
C724   C725    1.421   .     A
C724   C763    1.444   .     S
C724   C1196   1.383   1_545 S
C725   C733    1.475   .     S
C725   C726    1.420   .     A
C726   N765    1.424   .     S
C726   C1201   1.392   1_545 S
C727   H742    1.084   .     S
C727   C728    1.395   .     A
C727   C963    1.392   .     S
C729   N752    1.368   .     A
C729   H743    1.072   .     S
C729   C809    1.421   .     S
C730   H744    1.080   .     S
C730   N751    1.366   .     A
C730   C887    1.421   1_455 S
C731   N751    1.381   .     A
C731   N771    1.418   .     S
C731   C890    1.424   1_455 S
C732   H745    1.081   .     S
C732   N752    1.362   .     A
C732   C810    1.424   .     S
C733   O758    1.302   .     A
C733   O757    1.308   .     A
C734   O760    1.308   .     A
C734   O759    1.305   .     A
C734   C736    1.481   .     S
C737   C738    1.404   .     A
C737   H748    1.075   .     S
C738   C28     1.393   1_556 S
C738   N68     1.418   1_556 S
C739   H749    1.078   .     S
Cu740  O753    1.972   .     S
Cu740  Cu741   2.705   .     S
Cu740  O759    1.935   .     S
Cu740  O755    1.940   .     S
Cu740  O757    1.971   .     S
Cu740  N751    2.033   .     S
Cu741  O756    1.935   .     S
Cu741  N752    2.033   .     S
Cu741  O758    1.972   .     S
Cu741  O760    1.940   .     S
Cu741  O754    1.971   .     S
H746   C24     1.082   1_556 S
C761   N762    1.156   .     T
C763   N764    1.156   .     T
N765   C767    1.448   .     S
N765   H766    1.032   .     S
C767   H768    1.112   .     S
C767   H770    1.111   .     S
C767   H769    1.111   .     S
N771   C773    1.449   .     S
N771   H772    1.030   .     S
C773   H775    1.109   .     S
C773   H774    1.111   .     S
C773   H776    1.111   .     S
C777   N778    1.155   .     T
N779   H780    1.031   .     S
N779   C781    1.447   .     S
C781   H784    1.112   .     S
C781   H940    1.110   1_455 S
H782   C860    1.110   .     S
H783   C70     1.110   1_556 S
N785   C787    1.452   .     S
N785   H786    1.027   .     S
C787   H790    1.108   .     S
C787   H789    1.112   .     S
C787   H788    1.109   .     S
C791   O833    1.300   .     A
C791   C807    1.450   .     S
C791   O832    1.299   .     A
C792   C793    1.407   .     A
C792   C83     1.413   1_556 S
C792   C107    1.405   1_556 S
C793   C797    1.406   .     A
C793   C800    1.413   .     A
C794   C798    1.398   .     A
C795   C796    1.413   .     A
C795   C83     1.414   1_556 S
C795   C103    1.403   1_556 S
C796   C797    1.410   .     A
C796   C856    1.442   .     S
C797   N864    1.437   .     S
C798   H826    1.074   .     S
C798   C815    1.400   .     A
C799   C815    1.411   .     A
C799   C840    1.442   .     S
C799   C814    1.403   .     A
C800   C816    1.404   .     A
C800   C802    1.493   .     S
C801   H829    1.085   .     S
C801   C807    1.392   .     A
C801   C1040   1.383   .     S
C802   O835    1.310   .     A
C802   O834    1.308   .     A
C803   C804    1.421   .     A
C803   C842    1.444   .     S
C803   C1275   1.383   1_545 S
C804   C812    1.475   .     S
C804   C805    1.420   .     A
C805   N844    1.424   .     S
C805   C1280   1.392   1_545 S
C806   H821    1.084   .     S
C806   C807    1.395   .     A
C806   C1042   1.392   .     S
C808   N831    1.368   .     A
C808   H822    1.072   .     S
C808   C888    1.421   .     S
C809   H823    1.080   .     S
C809   N830    1.366   .     A
C810   N830    1.381   .     A
C810   N850    1.418   .     S
C811   H824    1.081   .     S
C811   N831    1.362   .     A
C811   C889    1.424   .     S
C812   O837    1.302   .     A
C812   O836    1.308   .     A
C813   O839    1.308   .     A
C813   O838    1.305   .     A
C813   C815    1.481   .     S
C816   C817    1.404   .     A
C816   H827    1.075   .     S
C817   C107    1.393   1_556 S
C817   N147    1.418   1_556 S
C818   H828    1.078   .     S
Cu819  O832    1.972   .     S
Cu819  Cu820   2.705   .     S
Cu819  O838    1.935   .     S
Cu819  O834    1.940   .     S
Cu819  O836    1.971   .     S
Cu819  N830    2.033   .     S
Cu820  O835    1.935   .     S
Cu820  N831    2.033   .     S
Cu820  O837    1.972   .     S
Cu820  O839    1.940   .     S
Cu820  O833    1.971   .     S
H825   C103    1.082   1_556 S
C840   N841    1.156   .     T
C842   N843    1.156   .     T
N844   C846    1.448   .     S
N844   H845    1.032   .     S
C846   H847    1.112   .     S
C846   H849    1.111   .     S
C846   H848    1.111   .     S
N850   C852    1.449   .     S
N850   H851    1.030   .     S
C852   H854    1.109   .     S
C852   H853    1.111   .     S
C852   H855    1.111   .     S
C856   N857    1.155   .     T
N858   H859    1.031   .     S
N858   C860    1.447   .     S
C860   H863    1.112   .     S
H861   C939    1.110   .     S
H862   C149    1.110   1_556 S
N864   C866    1.452   .     S
N864   H865    1.027   .     S
C866   H869    1.108   .     S
C866   H868    1.112   .     S
C866   H867    1.109   .     S
C870   O912    1.300   .     A
C870   C886    1.450   .     S
C870   O911    1.299   .     A
C871   C872    1.407   .     A
C871   C162    1.413   1_556 S
C871   C186    1.405   1_556 S
C872   C876    1.406   .     A
C872   C879    1.413   .     A
C873   C877    1.398   .     A
C874   C875    1.413   .     A
C874   C162    1.414   1_556 S
C874   C182    1.403   1_556 S
C875   C876    1.410   .     A
C875   C935    1.442   .     S
C876   N943    1.437   .     S
C877   H905    1.074   .     S
C877   C894    1.400   .     A
C878   C894    1.411   .     A
C878   C919    1.442   .     S
C878   C893    1.403   .     A
C879   C895    1.404   .     A
C879   C881    1.493   .     S
C880   H908    1.085   .     S
C880   C886    1.392   .     A
C880   C1119   1.383   .     S
C881   O914    1.310   .     A
C881   O913    1.308   .     A
C882   C883    1.421   .     A
C882   C921    1.444   .     S
C882   C1354   1.383   1_545 S
C883   C891    1.475   .     S
C883   C884    1.420   .     A
C884   N923    1.424   .     S
C884   C1359   1.392   1_545 S
C885   H900    1.084   .     S
C885   C886    1.395   .     A
C885   C1121   1.392   .     S
C887   N910    1.368   .     A
C887   H901    1.072   .     S
C887   C730    1.421   1_655 S
C888   H902    1.080   .     S
C888   N909    1.366   .     A
C889   N909    1.381   .     A
C889   N929    1.418   .     S
C890   H903    1.081   .     S
C890   N910    1.362   .     A
C890   C731    1.424   1_655 S
C891   O916    1.302   .     A
C891   O915    1.308   .     A
C892   O918    1.308   .     A
C892   O917    1.305   .     A
C892   C894    1.481   .     S
C895   C896    1.404   .     A
C895   H906    1.075   .     S
C896   C186    1.393   1_556 S
C896   N226    1.418   1_556 S
C897   H907    1.078   .     S
Cu898  O911    1.972   .     S
Cu898  Cu899   2.705   .     S
Cu898  O917    1.935   .     S
Cu898  O913    1.940   .     S
Cu898  O915    1.971   .     S
Cu898  N909    2.033   .     S
Cu899  O914    1.935   .     S
Cu899  N910    2.033   .     S
Cu899  O916    1.972   .     S
Cu899  O918    1.940   .     S
Cu899  O912    1.971   .     S
H904   C182    1.082   1_556 S
C919   N920    1.156   .     T
C921   N922    1.156   .     T
N923   C925    1.448   .     S
N923   H924    1.032   .     S
C925   H926    1.112   .     S
C925   H928    1.111   .     S
C925   H927    1.111   .     S
N929   C931    1.449   .     S
N929   H930    1.030   .     S
C931   H933    1.109   .     S
C931   H932    1.111   .     S
C931   H934    1.111   .     S
C935   N936    1.155   .     T
N937   H938    1.031   .     S
N937   C939    1.447   .     S
C939   H942    1.112   .     S
H940   C781    1.110   1_655 S
H941   C228    1.110   1_556 S
N943   C945    1.452   .     S
N943   H944    1.027   .     S
C945   H948    1.108   .     S
C945   H947    1.112   .     S
C945   H946    1.109   .     S
C949   O991    1.300   .     A
C949   C965    1.450   .     S
C949   O990    1.299   .     A
C950   C951    1.407   .     A
C950   C241    1.413   1_556 S
C950   C265    1.405   1_556 S
C951   C955    1.406   .     A
C951   C958    1.413   .     A
C952   C956    1.398   .     A
C953   C954    1.413   .     A
C953   C241    1.414   1_556 S
C953   C261    1.403   1_556 S
C954   C955    1.410   .     A
C954   C1014   1.442   .     S
C955   N1022   1.437   .     S
C956   H984    1.074   .     S
C956   C973    1.400   .     A
C957   C973    1.411   .     A
C957   C998    1.442   .     S
C957   C972    1.403   .     A
C958   C974    1.404   .     A
C958   C960    1.493   .     S
C959   H987    1.085   .     S
C959   C965    1.392   .     A
C959   C1198   1.383   .     S
C960   O993    1.310   .     A
C960   O992    1.308   .     A
C961   C962    1.421   .     A
C961   C1000   1.444   .     S
C962   C970    1.475   .     S
C962   C963    1.420   .     A
C963   N1002   1.424   .     S
C964   H979    1.084   .     S
C964   C965    1.395   .     A
C964   C1200   1.392   .     S
C966   N989    1.368   .     A
C966   H980    1.072   .     S
C966   C1046   1.421   .     S
C967   H981    1.080   .     S
C967   N988    1.366   .     A
C967   C1124   1.421   1_455 S
C968   N988    1.381   .     A
C968   N1008   1.418   .     S
C968   C1127   1.424   1_455 S
C969   H982    1.081   .     S
C969   N989    1.362   .     A
C969   C1047   1.424   .     S
C970   O995    1.302   .     A
C970   O994    1.308   .     A
C971   O997    1.308   .     A
C971   O996    1.305   .     A
C971   C973    1.481   .     S
C974   C975    1.404   .     A
C974   H985    1.075   .     S
C975   C265    1.393   1_556 S
C975   N305    1.418   1_556 S
C976   H986    1.078   .     S
Cu977  O990    1.972   .     S
Cu977  Cu978   2.705   .     S
Cu977  O996    1.935   .     S
Cu977  O992    1.940   .     S
Cu977  O994    1.971   .     S
Cu977  N988    2.033   .     S
Cu978  O993    1.935   .     S
Cu978  N989    2.033   .     S
Cu978  O995    1.972   .     S
Cu978  O997    1.940   .     S
Cu978  O991    1.971   .     S
H983   C261    1.082   1_556 S
C998   N999    1.156   .     T
C1000  N1001   1.156   .     T
N1002  C1004   1.448   .     S
N1002  H1003   1.032   .     S
C1004  H1005   1.112   .     S
C1004  H1007   1.111   .     S
C1004  H1006   1.111   .     S
N1008  C1010   1.449   .     S
N1008  H1009   1.030   .     S
C1010  H1012   1.109   .     S
C1010  H1011   1.111   .     S
C1010  H1013   1.111   .     S
C1014  N1015   1.155   .     T
N1016  H1017   1.031   .     S
N1016  C1018   1.447   .     S
C1018  H1021   1.112   .     S
C1018  H1177   1.110   1_455 S
H1019  C1097   1.110   .     S
H1020  C307    1.110   1_556 S
N1022  C1024   1.452   .     S
N1022  H1023   1.027   .     S
C1024  H1027   1.108   .     S
C1024  H1026   1.112   .     S
C1024  H1025   1.109   .     S
C1028  O1070   1.300   .     A
C1028  C1044   1.450   .     S
C1028  O1069   1.299   .     A
C1029  C1030   1.407   .     A
C1029  C320    1.413   1_556 S
C1029  C344    1.405   1_556 S
C1030  C1034   1.406   .     A
C1030  C1037   1.413   .     A
C1031  C1035   1.398   .     A
C1032  C1033   1.413   .     A
C1032  C320    1.414   1_556 S
C1032  C340    1.403   1_556 S
C1033  C1034   1.410   .     A
C1033  C1093   1.442   .     S
C1034  N1101   1.437   .     S
C1035  H1063   1.074   .     S
C1035  C1052   1.400   .     A
C1036  C1052   1.411   .     A
C1036  C1077   1.442   .     S
C1036  C1051   1.403   .     A
C1037  C1053   1.404   .     A
C1037  C1039   1.493   .     S
C1038  H1066   1.085   .     S
C1038  C1044   1.392   .     A
C1038  C1277   1.383   .     S
C1039  O1072   1.310   .     A
C1039  O1071   1.308   .     A
C1040  C1041   1.421   .     A
C1040  C1079   1.444   .     S
C1041  C1049   1.475   .     S
C1041  C1042   1.420   .     A
C1042  N1081   1.424   .     S
C1043  H1058   1.084   .     S
C1043  C1044   1.395   .     A
C1043  C1279   1.392   .     S
C1045  N1068   1.368   .     A
C1045  H1059   1.072   .     S
C1045  C1125   1.421   .     S
C1046  H1060   1.080   .     S
C1046  N1067   1.366   .     A
C1047  N1067   1.381   .     A
C1047  N1087   1.418   .     S
C1048  H1061   1.081   .     S
C1048  N1068   1.362   .     A
C1048  C1126   1.424   .     S
C1049  O1074   1.302   .     A
C1049  O1073   1.308   .     A
C1050  O1076   1.308   .     A
C1050  O1075   1.305   .     A
C1050  C1052   1.481   .     S
C1053  C1054   1.404   .     A
C1053  H1064   1.075   .     S
C1054  C344    1.393   1_556 S
C1054  N384    1.418   1_556 S
C1055  H1065   1.078   .     S
Cu1056 O1069   1.972   .     S
Cu1056 Cu1057  2.705   .     S
Cu1056 O1075   1.935   .     S
Cu1056 O1071   1.940   .     S
Cu1056 O1073   1.971   .     S
Cu1056 N1067   2.033   .     S
Cu1057 O1072   1.935   .     S
Cu1057 N1068   2.033   .     S
Cu1057 O1074   1.972   .     S
Cu1057 O1076   1.940   .     S
Cu1057 O1070   1.971   .     S
H1062  C340    1.082   1_556 S
C1077  N1078   1.156   .     T
C1079  N1080   1.156   .     T
N1081  C1083   1.448   .     S
N1081  H1082   1.032   .     S
C1083  H1084   1.112   .     S
C1083  H1086   1.111   .     S
C1083  H1085   1.111   .     S
N1087  C1089   1.449   .     S
N1087  H1088   1.030   .     S
C1089  H1091   1.109   .     S
C1089  H1090   1.111   .     S
C1089  H1092   1.111   .     S
C1093  N1094   1.155   .     T
N1095  H1096   1.031   .     S
N1095  C1097   1.447   .     S
C1097  H1100   1.112   .     S
H1098  C1176   1.110   .     S
H1099  C386    1.110   1_556 S
N1101  C1103   1.452   .     S
N1101  H1102   1.027   .     S
C1103  H1106   1.108   .     S
C1103  H1105   1.112   .     S
C1103  H1104   1.109   .     S
C1107  O1149   1.300   .     A
C1107  C1123   1.450   .     S
C1107  O1148   1.299   .     A
C1108  C1109   1.407   .     A
C1108  C399    1.413   1_556 S
C1108  C423    1.405   1_556 S
C1109  C1113   1.406   .     A
C1109  C1116   1.413   .     A
C1110  C1114   1.398   .     A
C1111  C1112   1.413   .     A
C1111  C399    1.414   1_556 S
C1111  C419    1.403   1_556 S
C1112  C1113   1.410   .     A
C1112  C1172   1.442   .     S
C1113  N1180   1.437   .     S
C1114  H1142   1.074   .     S
C1114  C1131   1.400   .     A
C1115  C1131   1.411   .     A
C1115  C1156   1.442   .     S
C1115  C1130   1.403   .     A
C1116  C1132   1.404   .     A
C1116  C1118   1.493   .     S
C1117  H1145   1.085   .     S
C1117  C1123   1.392   .     A
C1117  C1356   1.383   .     S
C1118  O1151   1.310   .     A
C1118  O1150   1.308   .     A
C1119  C1120   1.421   .     A
C1119  C1158   1.444   .     S
C1120  C1128   1.475   .     S
C1120  C1121   1.420   .     A
C1121  N1160   1.424   .     S
C1122  H1137   1.084   .     S
C1122  C1123   1.395   .     A
C1122  C1358   1.392   .     S
C1124  N1147   1.368   .     A
C1124  H1138   1.072   .     S
C1124  C967    1.421   1_655 S
C1125  H1139   1.080   .     S
C1125  N1146   1.366   .     A
C1126  N1146   1.381   .     A
C1126  N1166   1.418   .     S
C1127  H1140   1.081   .     S
C1127  N1147   1.362   .     A
C1127  C968    1.424   1_655 S
C1128  O1153   1.302   .     A
C1128  O1152   1.308   .     A
C1129  O1155   1.308   .     A
C1129  O1154   1.305   .     A
C1129  C1131   1.481   .     S
C1132  C1133   1.404   .     A
C1132  H1143   1.075   .     S
C1133  C423    1.393   1_556 S
C1133  N463    1.418   1_556 S
C1134  H1144   1.078   .     S
Cu1135 O1148   1.972   .     S
Cu1135 Cu1136  2.705   .     S
Cu1135 O1154   1.935   .     S
Cu1135 O1150   1.940   .     S
Cu1135 O1152   1.971   .     S
Cu1135 N1146   2.033   .     S
Cu1136 O1151   1.935   .     S
Cu1136 N1147   2.033   .     S
Cu1136 O1153   1.972   .     S
Cu1136 O1155   1.940   .     S
Cu1136 O1149   1.971   .     S
H1141  C419    1.082   1_556 S
C1156  N1157   1.156   .     T
C1158  N1159   1.156   .     T
N1160  C1162   1.448   .     S
N1160  H1161   1.032   .     S
C1162  H1163   1.112   .     S
C1162  H1165   1.111   .     S
C1162  H1164   1.111   .     S
N1166  C1168   1.449   .     S
N1166  H1167   1.030   .     S
C1168  H1170   1.109   .     S
C1168  H1169   1.111   .     S
C1168  H1171   1.111   .     S
C1172  N1173   1.155   .     T
N1174  H1175   1.031   .     S
N1174  C1176   1.447   .     S
C1176  H1179   1.112   .     S
H1177  C1018   1.110   1_655 S
H1178  C465    1.110   1_556 S
N1180  C1182   1.452   .     S
N1180  H1181   1.027   .     S
C1182  H1185   1.108   .     S
C1182  H1184   1.112   .     S
C1182  H1183   1.109   .     S
C1186  O1228   1.300   .     A
C1186  C1202   1.450   .     S
C1186  O1227   1.299   .     A
C1187  C1188   1.407   .     A
C1187  C478    1.413   1_556 S
C1187  C502    1.405   1_556 S
C1188  C1192   1.406   .     A
C1188  C1195   1.413   .     A
C1189  C1193   1.398   .     A
C1190  C1191   1.413   .     A
C1190  C478    1.414   1_556 S
C1190  C498    1.403   1_556 S
C1191  C1192   1.410   .     A
C1191  C1251   1.442   .     S
C1192  N1259   1.437   .     S
C1193  H1221   1.074   .     S
C1193  C1210   1.400   .     A
C1194  C1210   1.411   .     A
C1194  C1235   1.442   .     S
C1194  C1209   1.403   .     A
C1195  C1211   1.404   .     A
C1195  C1197   1.493   .     S
C1196  H1224   1.085   .     S
C1196  C1202   1.392   .     A
C1196  C724    1.383   1_565 S
C1197  O1230   1.310   .     A
C1197  O1229   1.308   .     A
C1198  C1199   1.421   .     A
C1198  C1237   1.444   .     S
C1199  C1207   1.475   .     S
C1199  C1200   1.420   .     A
C1200  N1239   1.424   .     S
C1201  H1216   1.084   .     S
C1201  C1202   1.395   .     A
C1201  C726    1.392   1_565 S
C1203  N1226   1.368   .     A
C1203  H1217   1.072   .     S
C1203  C1283   1.421   .     S
C1204  H1218   1.080   .     S
C1204  N1225   1.366   .     A
C1204  C1361   1.421   1_455 S
C1205  N1225   1.381   .     A
C1205  N1245   1.418   .     S
C1205  C1364   1.424   1_455 S
C1206  H1219   1.081   .     S
C1206  N1226   1.362   .     A
C1206  C1284   1.424   .     S
C1207  O1232   1.302   .     A
C1207  O1231   1.308   .     A
C1208  O1234   1.308   .     A
C1208  O1233   1.305   .     A
C1208  C1210   1.481   .     S
C1211  C1212   1.404   .     A
C1211  H1222   1.075   .     S
C1212  C502    1.393   1_556 S
C1212  N542    1.418   1_556 S
C1213  H1223   1.078   .     S
Cu1214 O1227   1.972   .     S
Cu1214 Cu1215  2.705   .     S
Cu1214 O1233   1.935   .     S
Cu1214 O1229   1.940   .     S
Cu1214 O1231   1.971   .     S
Cu1214 N1225   2.033   .     S
Cu1215 O1230   1.935   .     S
Cu1215 N1226   2.033   .     S
Cu1215 O1232   1.972   .     S
Cu1215 O1234   1.940   .     S
Cu1215 O1228   1.971   .     S
H1220  C498    1.082   1_556 S
C1235  N1236   1.156   .     T
C1237  N1238   1.156   .     T
N1239  C1241   1.448   .     S
N1239  H1240   1.032   .     S
C1241  H1242   1.112   .     S
C1241  H1244   1.111   .     S
C1241  H1243   1.111   .     S
N1245  C1247   1.449   .     S
N1245  H1246   1.030   .     S
C1247  H1249   1.109   .     S
C1247  H1248   1.111   .     S
C1247  H1250   1.111   .     S
C1251  N1252   1.155   .     T
N1253  H1254   1.031   .     S
N1253  C1255   1.447   .     S
C1255  H1258   1.112   .     S
C1255  H1414   1.110   1_455 S
H1256  C1334   1.110   .     S
H1257  C544    1.110   1_556 S
N1259  C1261   1.452   .     S
N1259  H1260   1.027   .     S
C1261  H1264   1.108   .     S
C1261  H1263   1.112   .     S
C1261  H1262   1.109   .     S
C1265  O1307   1.300   .     A
C1265  C1281   1.450   .     S
C1265  O1306   1.299   .     A
C1266  C1267   1.407   .     A
C1266  C557    1.413   1_556 S
C1266  C581    1.405   1_556 S
C1267  C1271   1.406   .     A
C1267  C1274   1.413   .     A
C1268  C1272   1.398   .     A
C1269  C1270   1.413   .     A
C1269  C557    1.414   1_556 S
C1269  C577    1.403   1_556 S
C1270  C1271   1.410   .     A
C1270  C1330   1.442   .     S
C1271  N1338   1.437   .     S
C1272  H1300   1.074   .     S
C1272  C1289   1.400   .     A
C1273  C1289   1.411   .     A
C1273  C1314   1.442   .     S
C1273  C1288   1.403   .     A
C1274  C1290   1.404   .     A
C1274  C1276   1.493   .     S
C1275  H1303   1.085   .     S
C1275  C1281   1.392   .     A
C1275  C803    1.383   1_565 S
C1276  O1309   1.310   .     A
C1276  O1308   1.308   .     A
C1277  C1278   1.421   .     A
C1277  C1316   1.444   .     S
C1278  C1286   1.475   .     S
C1278  C1279   1.420   .     A
C1279  N1318   1.424   .     S
C1280  H1295   1.084   .     S
C1280  C1281   1.395   .     A
C1280  C805    1.392   1_565 S
C1282  N1305   1.368   .     A
C1282  H1296   1.072   .     S
C1282  C1362   1.421   .     S
C1283  H1297   1.080   .     S
C1283  N1304   1.366   .     A
C1284  N1304   1.381   .     A
C1284  N1324   1.418   .     S
C1285  H1298   1.081   .     S
C1285  N1305   1.362   .     A
C1285  C1363   1.424   .     S
C1286  O1311   1.302   .     A
C1286  O1310   1.308   .     A
C1287  O1313   1.308   .     A
C1287  O1312   1.305   .     A
C1287  C1289   1.481   .     S
C1290  C1291   1.404   .     A
C1290  H1301   1.075   .     S
C1291  C581    1.393   1_556 S
C1291  N621    1.418   1_556 S
C1292  H1302   1.078   .     S
Cu1293 O1306   1.972   .     S
Cu1293 Cu1294  2.705   .     S
Cu1293 O1312   1.935   .     S
Cu1293 O1308   1.940   .     S
Cu1293 O1310   1.971   .     S
Cu1293 N1304   2.033   .     S
Cu1294 O1309   1.935   .     S
Cu1294 N1305   2.033   .     S
Cu1294 O1311   1.972   .     S
Cu1294 O1313   1.940   .     S
Cu1294 O1307   1.971   .     S
H1299  C577    1.082   1_556 S
C1314  N1315   1.156   .     T
C1316  N1317   1.156   .     T
N1318  C1320   1.448   .     S
N1318  H1319   1.032   .     S
C1320  H1321   1.112   .     S
C1320  H1323   1.111   .     S
C1320  H1322   1.111   .     S
N1324  C1326   1.449   .     S
N1324  H1325   1.030   .     S
C1326  H1328   1.109   .     S
C1326  H1327   1.111   .     S
C1326  H1329   1.111   .     S
C1330  N1331   1.155   .     T
N1332  H1333   1.031   .     S
N1332  C1334   1.447   .     S
C1334  H1337   1.112   .     S
H1335  C1413   1.110   .     S
H1336  C623    1.110   1_556 S
N1338  C1340   1.452   .     S
N1338  H1339   1.027   .     S
C1340  H1343   1.108   .     S
C1340  H1342   1.112   .     S
C1340  H1341   1.109   .     S
C1344  O1386   1.300   .     A
C1344  C1360   1.450   .     S
C1344  O1385   1.299   .     A
C1345  C1346   1.407   .     A
C1345  C636    1.413   1_556 S
C1345  C660    1.405   1_556 S
C1346  C1350   1.406   .     A
C1346  C1353   1.413   .     A
C1347  C1351   1.398   .     A
C1348  C1349   1.413   .     A
C1348  C636    1.414   1_556 S
C1348  C656    1.403   1_556 S
C1349  C1350   1.410   .     A
C1349  C1409   1.442   .     S
C1350  N1417   1.437   .     S
C1351  H1379   1.074   .     S
C1351  C1368   1.400   .     A
C1352  C1368   1.411   .     A
C1352  C1393   1.442   .     S
C1352  C1367   1.403   .     A
C1353  C1369   1.404   .     A
C1353  C1355   1.493   .     S
C1354  H1382   1.085   .     S
C1354  C1360   1.392   .     A
C1354  C882    1.383   1_565 S
C1355  O1388   1.310   .     A
C1355  O1387   1.308   .     A
C1356  C1357   1.421   .     A
C1356  C1395   1.444   .     S
C1357  C1365   1.475   .     S
C1357  C1358   1.420   .     A
C1358  N1397   1.424   .     S
C1359  H1374   1.084   .     S
C1359  C1360   1.395   .     A
C1359  C884    1.392   1_565 S
C1361  N1384   1.368   .     A
C1361  H1375   1.072   .     S
C1361  C1204   1.421   1_655 S
C1362  H1376   1.080   .     S
C1362  N1383   1.366   .     A
C1363  N1383   1.381   .     A
C1363  N1403   1.418   .     S
C1364  H1377   1.081   .     S
C1364  N1384   1.362   .     A
C1364  C1205   1.424   1_655 S
C1365  O1390   1.302   .     A
C1365  O1389   1.308   .     A
C1366  O1392   1.308   .     A
C1366  O1391   1.305   .     A
C1366  C1368   1.481   .     S
C1369  C1370   1.404   .     A
C1369  H1380   1.075   .     S
C1370  C660    1.393   1_556 S
C1370  N700    1.418   1_556 S
C1371  H1381   1.078   .     S
Cu1372 O1385   1.972   .     S
Cu1372 Cu1373  2.705   .     S
Cu1372 O1391   1.935   .     S
Cu1372 O1387   1.940   .     S
Cu1372 O1389   1.971   .     S
Cu1372 N1383   2.033   .     S
Cu1373 O1388   1.935   .     S
Cu1373 N1384   2.033   .     S
Cu1373 O1390   1.972   .     S
Cu1373 O1392   1.940   .     S
Cu1373 O1386   1.971   .     S
H1378  C656    1.082   1_556 S
C1393  N1394   1.156   .     T
C1395  N1396   1.156   .     T
N1397  C1399   1.448   .     S
N1397  H1398   1.032   .     S
C1399  H1400   1.112   .     S
C1399  H1402   1.111   .     S
C1399  H1401   1.111   .     S
N1403  C1405   1.449   .     S
N1403  H1404   1.030   .     S
C1405  H1407   1.109   .     S
C1405  H1406   1.111   .     S
C1405  H1408   1.111   .     S
C1409  N1410   1.155   .     T
N1411  H1412   1.031   .     S
N1411  C1413   1.447   .     S
C1413  H1416   1.112   .     S
H1414  C1255   1.110   1_655 S
H1415  C702    1.110   1_556 S
N1417  C1419   1.452   .     S
N1417  H1418   1.027   .     S
C1419  H1422   1.108   .     S
C1419  H1421   1.112   .     S
C1419  H1420   1.109   .     S
