data_str_m2_o1_o10_pcu_sym.106
_audit_creation_date              2020-01-03
_audit_creation_method            'Materials Studio'
_symmetry_space_group_name_H-M    'P1'
_symmetry_Int_Tables_number       1
_symmetry_cell_setting            triclinic
loop_
_symmetry_equiv_pos_as_xyz
  x,y,z
_cell_length_a                    26.2063
_cell_length_b                    32.5025
_cell_length_c                    28.5886
_cell_angle_alpha                 90.0698
_cell_angle_beta                  98.0011
_cell_angle_gamma                 90.2469
loop_
_atom_site_label
_atom_site_type_symbol
_atom_site_fract_x
_atom_site_fract_y
_atom_site_fract_z
_atom_site_U_iso_or_equiv
_atom_site_adp_type
_atom_site_occupancy
C1     C     0.16662   0.08737   0.16663   0.00000  Uiso   1.00
C2     C     0.16671   0.24597   0.16670   0.00000  Uiso   1.00
C3     C     0.06792   0.16665   0.15456   0.00000  Uiso   1.00
C4     C     0.26542   0.16668   0.17877   0.00000  Uiso   1.00
C5     C     0.01262   0.16667   0.14792   0.00000  Uiso   1.00
C6     C     0.32071   0.16666   0.18542   0.00000  Uiso   1.00
C7     C     0.16671   0.02123   0.12415   0.00000  Uiso   1.00
C8     C     0.16662   0.31210   0.20918   0.00000  Uiso   1.00
C9     C     0.16678   0.31200   0.12419   0.00000  Uiso   1.00
C10    C     0.16656   0.02134   0.20915   0.00000  Uiso   1.00
C11    C     0.16672   0.29059   0.16670   0.00000  Uiso   1.00
C12    C     0.16662   0.04274   0.16663   0.00000  Uiso   1.00
C13    C     0.13403   0.14148   0.02051   0.00000  Uiso   1.00
C14    C     0.19930   0.19185   0.31283   0.00000  Uiso   1.00
C15    C     0.13407   0.14153   0.30428   0.00000  Uiso   1.00
C16    C     0.19926   0.19180   0.02905   0.00000  Uiso   1.00
Cu17   Cu    0.16667   0.16667   0.21355   0.00000  Uiso   1.00
Cu18   Cu    0.16667   0.16666   0.11978   0.00000  Uiso   1.00
H19    H     0.32594   0.16672   0.11195   0.00000  Uiso   1.00
H20    H     0.00740   0.16662   0.22138   0.00000  Uiso   1.00
H21    H     0.16675   0.03719   0.09092   0.00000  Uiso   1.00
H22    H     0.16658   0.29614   0.24242   0.00000  Uiso   1.00
H23    H     0.16687   0.29595   0.09097   0.00000  Uiso   1.00
H24    H     0.16646   0.03738   0.24237   0.00000  Uiso   1.00
H25    H     0.10801   0.12136   0.28218   0.00000  Uiso   1.00
H26    H     0.22533   0.21197   0.05115   0.00000  Uiso   1.00
N27    N     0.16668   0.16668   0.28403   0.00000  Uiso   1.00
N28    N     0.16665   0.16666   0.04931   0.00000  Uiso   1.00
O29    O     0.16666   0.10655   0.20625   0.00000  Uiso   1.00
O30    O     0.16667   0.22678   0.12709   0.00000  Uiso   1.00
O31    O     0.16666   0.10654   0.12706   0.00000  Uiso   1.00
O32    O     0.16667   0.22679   0.20628   0.00000  Uiso   1.00
O33    O     0.09161   0.16667   0.19712   0.00000  Uiso   1.00
O34    O     0.24172   0.16666   0.13621   0.00000  Uiso   1.00
O35    O     0.09161   0.16666   0.11793   0.00000  Uiso   1.00
O36    O     0.24172   0.16667   0.21540   0.00000  Uiso   1.00
F37    F     0.10129   0.11603   0.03940   0.00000  Uiso   1.00
F38    F     0.23204   0.21730   0.29394   0.00000  Uiso   1.00
C39    C     0.49996   0.08737   0.16663   0.00000  Uiso   1.00
C40    C     0.50004   0.24597   0.16670   0.00000  Uiso   1.00
C41    C     0.40125   0.16665   0.15456   0.00000  Uiso   1.00
C42    C     0.59875   0.16668   0.17877   0.00000  Uiso   1.00
C43    C     0.34595   0.16667   0.14792   0.00000  Uiso   1.00
C44    C     0.65405   0.16666   0.18542   0.00000  Uiso   1.00
C45    C     0.50005   0.02123   0.12415   0.00000  Uiso   1.00
C46    C     0.49995   0.31210   0.20918   0.00000  Uiso   1.00
C47    C     0.50011   0.31200   0.12419   0.00000  Uiso   1.00
C48    C     0.49989   0.02134   0.20915   0.00000  Uiso   1.00
C49    C     0.50005   0.29059   0.16670   0.00000  Uiso   1.00
C50    C     0.49995   0.04274   0.16663   0.00000  Uiso   1.00
C51    C     0.46737   0.14148   0.02051   0.00000  Uiso   1.00
C52    C     0.53263   0.19185   0.31283   0.00000  Uiso   1.00
C53    C     0.46741   0.14153   0.30428   0.00000  Uiso   1.00
C54    C     0.53259   0.19180   0.02905   0.00000  Uiso   1.00
Cu55   Cu    0.50000   0.16667   0.21355   0.00000  Uiso   1.00
Cu56   Cu    0.50000   0.16666   0.11978   0.00000  Uiso   1.00
H57    H     0.65927   0.16672   0.11195   0.00000  Uiso   1.00
H58    H     0.34073   0.16662   0.22138   0.00000  Uiso   1.00
H59    H     0.50008   0.03719   0.09092   0.00000  Uiso   1.00
H60    H     0.49992   0.29614   0.24242   0.00000  Uiso   1.00
H61    H     0.50021   0.29595   0.09097   0.00000  Uiso   1.00
H62    H     0.49979   0.03738   0.24237   0.00000  Uiso   1.00
H63    H     0.44134   0.12136   0.28218   0.00000  Uiso   1.00
H64    H     0.55866   0.21197   0.05115   0.00000  Uiso   1.00
N65    N     0.50001   0.16668   0.28403   0.00000  Uiso   1.00
N66    N     0.49999   0.16666   0.04931   0.00000  Uiso   1.00
O67    O     0.50000   0.10655   0.20625   0.00000  Uiso   1.00
O68    O     0.50000   0.22678   0.12709   0.00000  Uiso   1.00
O69    O     0.50000   0.10654   0.12706   0.00000  Uiso   1.00
O70    O     0.50000   0.22679   0.20628   0.00000  Uiso   1.00
O71    O     0.42495   0.16667   0.19712   0.00000  Uiso   1.00
O72    O     0.57505   0.16666   0.13621   0.00000  Uiso   1.00
O73    O     0.42494   0.16666   0.11793   0.00000  Uiso   1.00
O74    O     0.57506   0.16667   0.21540   0.00000  Uiso   1.00
F75    F     0.43462   0.11603   0.03940   0.00000  Uiso   1.00
F76    F     0.56538   0.21730   0.29394   0.00000  Uiso   1.00
C77    C     0.83329   0.08737   0.16663   0.00000  Uiso   1.00
C78    C     0.83338   0.24597   0.16670   0.00000  Uiso   1.00
C79    C     0.73458   0.16665   0.15456   0.00000  Uiso   1.00
C80    C     0.93209   0.16668   0.17877   0.00000  Uiso   1.00
C81    C     0.67929   0.16667   0.14792   0.00000  Uiso   1.00
C82    C     0.98738   0.16666   0.18542   0.00000  Uiso   1.00
C83    C     0.83338   0.02123   0.12415   0.00000  Uiso   1.00
C84    C     0.83329   0.31210   0.20918   0.00000  Uiso   1.00
C85    C     0.83344   0.31200   0.12419   0.00000  Uiso   1.00
C86    C     0.83322   0.02134   0.20915   0.00000  Uiso   1.00
C87    C     0.83338   0.29059   0.16670   0.00000  Uiso   1.00
C88    C     0.83328   0.04274   0.16663   0.00000  Uiso   1.00
C89    C     0.80070   0.14148   0.02051   0.00000  Uiso   1.00
C90    C     0.86597   0.19185   0.31283   0.00000  Uiso   1.00
C91    C     0.80074   0.14153   0.30428   0.00000  Uiso   1.00
C92    C     0.86593   0.19180   0.02905   0.00000  Uiso   1.00
Cu93   Cu    0.83333   0.16667   0.21355   0.00000  Uiso   1.00
Cu94   Cu    0.83333   0.16666   0.11978   0.00000  Uiso   1.00
H95    H     0.99260   0.16672   0.11195   0.00000  Uiso   1.00
H96    H     0.67406   0.16662   0.22138   0.00000  Uiso   1.00
H97    H     0.83342   0.03719   0.09092   0.00000  Uiso   1.00
H98    H     0.83325   0.29614   0.24242   0.00000  Uiso   1.00
H99    H     0.83354   0.29595   0.09097   0.00000  Uiso   1.00
H100   H     0.83313   0.03738   0.24237   0.00000  Uiso   1.00
H101   H     0.77467   0.12136   0.28218   0.00000  Uiso   1.00
H102   H     0.89199   0.21197   0.05115   0.00000  Uiso   1.00
N103   N     0.83335   0.16668   0.28403   0.00000  Uiso   1.00
N104   N     0.83332   0.16666   0.04931   0.00000  Uiso   1.00
O105   O     0.83333   0.10655   0.20625   0.00000  Uiso   1.00
O106   O     0.83334   0.22678   0.12709   0.00000  Uiso   1.00
O107   O     0.83333   0.10654   0.12706   0.00000  Uiso   1.00
O108   O     0.83334   0.22679   0.20628   0.00000  Uiso   1.00
O109   O     0.75828   0.16667   0.19712   0.00000  Uiso   1.00
O110   O     0.90839   0.16666   0.13621   0.00000  Uiso   1.00
O111   O     0.75828   0.16666   0.11793   0.00000  Uiso   1.00
O112   O     0.90839   0.16667   0.21540   0.00000  Uiso   1.00
F113   F     0.76796   0.11603   0.03940   0.00000  Uiso   1.00
F114   F     0.89871   0.21730   0.29394   0.00000  Uiso   1.00
C115   C     0.16662   0.42070   0.16663   0.00000  Uiso   1.00
C116   C     0.16671   0.57930   0.16670   0.00000  Uiso   1.00
C117   C     0.06792   0.49998   0.15456   0.00000  Uiso   1.00
C118   C     0.26542   0.50002   0.17877   0.00000  Uiso   1.00
C119   C     0.01262   0.50001   0.14792   0.00000  Uiso   1.00
C120   C     0.32071   0.49999   0.18542   0.00000  Uiso   1.00
C121   C     0.16671   0.35456   0.12415   0.00000  Uiso   1.00
C122   C     0.16662   0.64544   0.20918   0.00000  Uiso   1.00
C123   C     0.16678   0.64533   0.12419   0.00000  Uiso   1.00
C124   C     0.16656   0.35467   0.20915   0.00000  Uiso   1.00
C125   C     0.16672   0.62392   0.16670   0.00000  Uiso   1.00
C126   C     0.16662   0.37608   0.16663   0.00000  Uiso   1.00
C127   C     0.13403   0.47481   0.02051   0.00000  Uiso   1.00
C128   C     0.19930   0.52519   0.31283   0.00000  Uiso   1.00
C129   C     0.13407   0.47486   0.30428   0.00000  Uiso   1.00
C130   C     0.19926   0.52514   0.02905   0.00000  Uiso   1.00
Cu131  Cu    0.16667   0.50001   0.21355   0.00000  Uiso   1.00
Cu132  Cu    0.16667   0.49999   0.11978   0.00000  Uiso   1.00
H133   H     0.32594   0.50005   0.11195   0.00000  Uiso   1.00
H134   H     0.00740   0.49995   0.22138   0.00000  Uiso   1.00
H135   H     0.16675   0.37053   0.09092   0.00000  Uiso   1.00
H136   H     0.16658   0.62947   0.24242   0.00000  Uiso   1.00
H137   H     0.16687   0.62928   0.09097   0.00000  Uiso   1.00
H138   H     0.16646   0.37072   0.24237   0.00000  Uiso   1.00
H139   H     0.10801   0.45470   0.28218   0.00000  Uiso   1.00
H140   H     0.22533   0.54530   0.05115   0.00000  Uiso   1.00
N141   N     0.16668   0.50001   0.28403   0.00000  Uiso   1.00
N142   N     0.16665   0.49999   0.04931   0.00000  Uiso   1.00
O143   O     0.16666   0.43989   0.20625   0.00000  Uiso   1.00
O144   O     0.16667   0.56011   0.12709   0.00000  Uiso   1.00
O145   O     0.16666   0.43988   0.12706   0.00000  Uiso   1.00
O146   O     0.16667   0.56012   0.20628   0.00000  Uiso   1.00
O147   O     0.09161   0.50000   0.19712   0.00000  Uiso   1.00
O148   O     0.24172   0.50000   0.13621   0.00000  Uiso   1.00
O149   O     0.09161   0.49999   0.11793   0.00000  Uiso   1.00
O150   O     0.24172   0.50001   0.21540   0.00000  Uiso   1.00
F151   F     0.10129   0.44937   0.03940   0.00000  Uiso   1.00
F152   F     0.23204   0.55063   0.29394   0.00000  Uiso   1.00
C153   C     0.49996   0.42070   0.16663   0.00000  Uiso   1.00
C154   C     0.50004   0.57930   0.16670   0.00000  Uiso   1.00
C155   C     0.40125   0.49998   0.15456   0.00000  Uiso   1.00
C156   C     0.59875   0.50002   0.17877   0.00000  Uiso   1.00
C157   C     0.34595   0.50001   0.14792   0.00000  Uiso   1.00
C158   C     0.65405   0.49999   0.18542   0.00000  Uiso   1.00
C159   C     0.50005   0.35456   0.12415   0.00000  Uiso   1.00
C160   C     0.49995   0.64544   0.20918   0.00000  Uiso   1.00
C161   C     0.50011   0.64533   0.12419   0.00000  Uiso   1.00
C162   C     0.49989   0.35467   0.20915   0.00000  Uiso   1.00
C163   C     0.50005   0.62392   0.16670   0.00000  Uiso   1.00
C164   C     0.49995   0.37608   0.16663   0.00000  Uiso   1.00
C165   C     0.46737   0.47481   0.02051   0.00000  Uiso   1.00
C166   C     0.53263   0.52519   0.31283   0.00000  Uiso   1.00
C167   C     0.46741   0.47486   0.30428   0.00000  Uiso   1.00
C168   C     0.53259   0.52514   0.02905   0.00000  Uiso   1.00
Cu169  Cu    0.50000   0.50001   0.21355   0.00000  Uiso   1.00
Cu170  Cu    0.50000   0.49999   0.11978   0.00000  Uiso   1.00
H171   H     0.65927   0.50005   0.11195   0.00000  Uiso   1.00
H172   H     0.34073   0.49995   0.22138   0.00000  Uiso   1.00
H173   H     0.50008   0.37053   0.09092   0.00000  Uiso   1.00
H174   H     0.49992   0.62947   0.24242   0.00000  Uiso   1.00
H175   H     0.50021   0.62928   0.09097   0.00000  Uiso   1.00
H176   H     0.49979   0.37072   0.24237   0.00000  Uiso   1.00
H177   H     0.44134   0.45470   0.28218   0.00000  Uiso   1.00
H178   H     0.55866   0.54530   0.05115   0.00000  Uiso   1.00
N179   N     0.50001   0.50001   0.28403   0.00000  Uiso   1.00
N180   N     0.49999   0.49999   0.04931   0.00000  Uiso   1.00
O181   O     0.50000   0.43989   0.20625   0.00000  Uiso   1.00
O182   O     0.50000   0.56011   0.12709   0.00000  Uiso   1.00
O183   O     0.50000   0.43988   0.12706   0.00000  Uiso   1.00
O184   O     0.50000   0.56012   0.20628   0.00000  Uiso   1.00
O185   O     0.42495   0.50000   0.19712   0.00000  Uiso   1.00
O186   O     0.57505   0.50000   0.13621   0.00000  Uiso   1.00
O187   O     0.42494   0.49999   0.11793   0.00000  Uiso   1.00
O188   O     0.57506   0.50001   0.21540   0.00000  Uiso   1.00
F189   F     0.43462   0.44937   0.03940   0.00000  Uiso   1.00
F190   F     0.56538   0.55063   0.29394   0.00000  Uiso   1.00
C191   C     0.83329   0.42070   0.16663   0.00000  Uiso   1.00
C192   C     0.83338   0.57930   0.16670   0.00000  Uiso   1.00
C193   C     0.73458   0.49998   0.15456   0.00000  Uiso   1.00
C194   C     0.93209   0.50002   0.17877   0.00000  Uiso   1.00
C195   C     0.67929   0.50001   0.14792   0.00000  Uiso   1.00
C196   C     0.98738   0.49999   0.18542   0.00000  Uiso   1.00
C197   C     0.83338   0.35456   0.12415   0.00000  Uiso   1.00
C198   C     0.83329   0.64544   0.20918   0.00000  Uiso   1.00
C199   C     0.83344   0.64533   0.12419   0.00000  Uiso   1.00
C200   C     0.83322   0.35467   0.20915   0.00000  Uiso   1.00
C201   C     0.83338   0.62392   0.16670   0.00000  Uiso   1.00
C202   C     0.83328   0.37608   0.16663   0.00000  Uiso   1.00
C203   C     0.80070   0.47481   0.02051   0.00000  Uiso   1.00
C204   C     0.86597   0.52519   0.31283   0.00000  Uiso   1.00
C205   C     0.80074   0.47486   0.30428   0.00000  Uiso   1.00
C206   C     0.86593   0.52514   0.02905   0.00000  Uiso   1.00
Cu207  Cu    0.83333   0.50001   0.21355   0.00000  Uiso   1.00
Cu208  Cu    0.83333   0.49999   0.11978   0.00000  Uiso   1.00
H209   H     0.99260   0.50005   0.11195   0.00000  Uiso   1.00
H210   H     0.67406   0.49995   0.22138   0.00000  Uiso   1.00
H211   H     0.83342   0.37053   0.09092   0.00000  Uiso   1.00
H212   H     0.83325   0.62947   0.24242   0.00000  Uiso   1.00
H213   H     0.83354   0.62928   0.09097   0.00000  Uiso   1.00
H214   H     0.83313   0.37072   0.24237   0.00000  Uiso   1.00
H215   H     0.77467   0.45470   0.28218   0.00000  Uiso   1.00
H216   H     0.89199   0.54530   0.05115   0.00000  Uiso   1.00
N217   N     0.83335   0.50001   0.28403   0.00000  Uiso   1.00
N218   N     0.83332   0.49999   0.04931   0.00000  Uiso   1.00
O219   O     0.83333   0.43989   0.20625   0.00000  Uiso   1.00
O220   O     0.83334   0.56011   0.12709   0.00000  Uiso   1.00
O221   O     0.83333   0.43988   0.12706   0.00000  Uiso   1.00
O222   O     0.83334   0.56012   0.20628   0.00000  Uiso   1.00
O223   O     0.75828   0.50000   0.19712   0.00000  Uiso   1.00
O224   O     0.90839   0.50000   0.13621   0.00000  Uiso   1.00
O225   O     0.75828   0.49999   0.11793   0.00000  Uiso   1.00
O226   O     0.90839   0.50001   0.21540   0.00000  Uiso   1.00
F227   F     0.76796   0.44937   0.03940   0.00000  Uiso   1.00
F228   F     0.89871   0.55063   0.29394   0.00000  Uiso   1.00
C229   C     0.16662   0.75403   0.16663   0.00000  Uiso   1.00
C230   C     0.16671   0.91263   0.16670   0.00000  Uiso   1.00
C231   C     0.06792   0.83332   0.15456   0.00000  Uiso   1.00
C232   C     0.26542   0.83335   0.17877   0.00000  Uiso   1.00
C233   C     0.01262   0.83334   0.14792   0.00000  Uiso   1.00
C234   C     0.32071   0.83333   0.18542   0.00000  Uiso   1.00
C235   C     0.16671   0.68790   0.12415   0.00000  Uiso   1.00
C236   C     0.16662   0.97877   0.20918   0.00000  Uiso   1.00
C237   C     0.16678   0.97866   0.12419   0.00000  Uiso   1.00
C238   C     0.16656   0.68800   0.20915   0.00000  Uiso   1.00
C239   C     0.16672   0.95726   0.16670   0.00000  Uiso   1.00
C240   C     0.16662   0.70941   0.16663   0.00000  Uiso   1.00
C241   C     0.13403   0.80815   0.02051   0.00000  Uiso   1.00
C242   C     0.19930   0.85852   0.31283   0.00000  Uiso   1.00
C243   C     0.13407   0.80820   0.30428   0.00000  Uiso   1.00
C244   C     0.19926   0.85847   0.02905   0.00000  Uiso   1.00
Cu245  Cu    0.16667   0.83334   0.21355   0.00000  Uiso   1.00
Cu246  Cu    0.16667   0.83333   0.11978   0.00000  Uiso   1.00
H247   H     0.32594   0.83338   0.11195   0.00000  Uiso   1.00
H248   H     0.00740   0.83328   0.22138   0.00000  Uiso   1.00
H249   H     0.16675   0.70386   0.09092   0.00000  Uiso   1.00
H250   H     0.16658   0.96281   0.24242   0.00000  Uiso   1.00
H251   H     0.16687   0.96261   0.09097   0.00000  Uiso   1.00
H252   H     0.16646   0.70405   0.24237   0.00000  Uiso   1.00
H253   H     0.10801   0.78803   0.28218   0.00000  Uiso   1.00
H254   H     0.22533   0.87864   0.05115   0.00000  Uiso   1.00
N255   N     0.16668   0.83334   0.28403   0.00000  Uiso   1.00
N256   N     0.16665   0.83332   0.04931   0.00000  Uiso   1.00
O257   O     0.16666   0.77322   0.20625   0.00000  Uiso   1.00
O258   O     0.16667   0.89345   0.12709   0.00000  Uiso   1.00
O259   O     0.16666   0.77321   0.12706   0.00000  Uiso   1.00
O260   O     0.16667   0.89346   0.20628   0.00000  Uiso   1.00
O261   O     0.09161   0.83334   0.19712   0.00000  Uiso   1.00
O262   O     0.24172   0.83333   0.13621   0.00000  Uiso   1.00
O263   O     0.09161   0.83333   0.11793   0.00000  Uiso   1.00
O264   O     0.24172   0.83334   0.21540   0.00000  Uiso   1.00
F265   F     0.10129   0.78270   0.03940   0.00000  Uiso   1.00
F266   F     0.23204   0.88396   0.29394   0.00000  Uiso   1.00
C267   C     0.49996   0.75403   0.16663   0.00000  Uiso   1.00
C268   C     0.50004   0.91263   0.16670   0.00000  Uiso   1.00
C269   C     0.40125   0.83332   0.15456   0.00000  Uiso   1.00
C270   C     0.59875   0.83335   0.17877   0.00000  Uiso   1.00
C271   C     0.34595   0.83334   0.14792   0.00000  Uiso   1.00
C272   C     0.65405   0.83333   0.18542   0.00000  Uiso   1.00
C273   C     0.50005   0.68790   0.12415   0.00000  Uiso   1.00
C274   C     0.49995   0.97877   0.20918   0.00000  Uiso   1.00
C275   C     0.50011   0.97866   0.12419   0.00000  Uiso   1.00
C276   C     0.49989   0.68800   0.20915   0.00000  Uiso   1.00
C277   C     0.50005   0.95726   0.16670   0.00000  Uiso   1.00
C278   C     0.49995   0.70941   0.16663   0.00000  Uiso   1.00
C279   C     0.46737   0.80815   0.02051   0.00000  Uiso   1.00
C280   C     0.53263   0.85852   0.31283   0.00000  Uiso   1.00
C281   C     0.46741   0.80820   0.30428   0.00000  Uiso   1.00
C282   C     0.53259   0.85847   0.02905   0.00000  Uiso   1.00
Cu283  Cu    0.50000   0.83334   0.21355   0.00000  Uiso   1.00
Cu284  Cu    0.50000   0.83333   0.11978   0.00000  Uiso   1.00
H285   H     0.65927   0.83338   0.11195   0.00000  Uiso   1.00
H286   H     0.34073   0.83328   0.22138   0.00000  Uiso   1.00
H287   H     0.50008   0.70386   0.09092   0.00000  Uiso   1.00
H288   H     0.49992   0.96281   0.24242   0.00000  Uiso   1.00
H289   H     0.50021   0.96261   0.09097   0.00000  Uiso   1.00
H290   H     0.49979   0.70405   0.24237   0.00000  Uiso   1.00
H291   H     0.44134   0.78803   0.28218   0.00000  Uiso   1.00
H292   H     0.55866   0.87864   0.05115   0.00000  Uiso   1.00
N293   N     0.50001   0.83334   0.28403   0.00000  Uiso   1.00
N294   N     0.49999   0.83332   0.04931   0.00000  Uiso   1.00
O295   O     0.50000   0.77322   0.20625   0.00000  Uiso   1.00
O296   O     0.50000   0.89345   0.12709   0.00000  Uiso   1.00
O297   O     0.50000   0.77321   0.12706   0.00000  Uiso   1.00
O298   O     0.50000   0.89346   0.20628   0.00000  Uiso   1.00
O299   O     0.42495   0.83334   0.19712   0.00000  Uiso   1.00
O300   O     0.57505   0.83333   0.13621   0.00000  Uiso   1.00
O301   O     0.42494   0.83333   0.11793   0.00000  Uiso   1.00
O302   O     0.57506   0.83334   0.21540   0.00000  Uiso   1.00
F303   F     0.43462   0.78270   0.03940   0.00000  Uiso   1.00
F304   F     0.56538   0.88396   0.29394   0.00000  Uiso   1.00
C305   C     0.83329   0.75403   0.16663   0.00000  Uiso   1.00
C306   C     0.83338   0.91263   0.16670   0.00000  Uiso   1.00
C307   C     0.73458   0.83332   0.15456   0.00000  Uiso   1.00
C308   C     0.93209   0.83335   0.17877   0.00000  Uiso   1.00
C309   C     0.67929   0.83334   0.14792   0.00000  Uiso   1.00
C310   C     0.98738   0.83333   0.18542   0.00000  Uiso   1.00
C311   C     0.83338   0.68790   0.12415   0.00000  Uiso   1.00
C312   C     0.83329   0.97877   0.20918   0.00000  Uiso   1.00
C313   C     0.83344   0.97866   0.12419   0.00000  Uiso   1.00
C314   C     0.83322   0.68800   0.20915   0.00000  Uiso   1.00
C315   C     0.83338   0.95726   0.16670   0.00000  Uiso   1.00
C316   C     0.83328   0.70941   0.16663   0.00000  Uiso   1.00
C317   C     0.80070   0.80815   0.02051   0.00000  Uiso   1.00
C318   C     0.86597   0.85852   0.31283   0.00000  Uiso   1.00
C319   C     0.80074   0.80820   0.30428   0.00000  Uiso   1.00
C320   C     0.86593   0.85847   0.02905   0.00000  Uiso   1.00
Cu321  Cu    0.83333   0.83334   0.21355   0.00000  Uiso   1.00
Cu322  Cu    0.83333   0.83333   0.11978   0.00000  Uiso   1.00
H323   H     0.99260   0.83338   0.11195   0.00000  Uiso   1.00
H324   H     0.67406   0.83328   0.22138   0.00000  Uiso   1.00
H325   H     0.83342   0.70386   0.09092   0.00000  Uiso   1.00
H326   H     0.83325   0.96281   0.24242   0.00000  Uiso   1.00
H327   H     0.83354   0.96261   0.09097   0.00000  Uiso   1.00
H328   H     0.83313   0.70405   0.24237   0.00000  Uiso   1.00
H329   H     0.77467   0.78803   0.28218   0.00000  Uiso   1.00
H330   H     0.89199   0.87864   0.05115   0.00000  Uiso   1.00
N331   N     0.83335   0.83334   0.28403   0.00000  Uiso   1.00
N332   N     0.83332   0.83332   0.04931   0.00000  Uiso   1.00
O333   O     0.83333   0.77322   0.20625   0.00000  Uiso   1.00
O334   O     0.83334   0.89345   0.12709   0.00000  Uiso   1.00
O335   O     0.83333   0.77321   0.12706   0.00000  Uiso   1.00
O336   O     0.83334   0.89346   0.20628   0.00000  Uiso   1.00
O337   O     0.75828   0.83334   0.19712   0.00000  Uiso   1.00
O338   O     0.90839   0.83333   0.13621   0.00000  Uiso   1.00
O339   O     0.75828   0.83333   0.11793   0.00000  Uiso   1.00
O340   O     0.90839   0.83334   0.21540   0.00000  Uiso   1.00
F341   F     0.76796   0.78270   0.03940   0.00000  Uiso   1.00
F342   F     0.89871   0.88396   0.29394   0.00000  Uiso   1.00
C343   C     0.16662   0.08737   0.49997   0.00000  Uiso   1.00
C344   C     0.16671   0.24597   0.50003   0.00000  Uiso   1.00
C345   C     0.06792   0.16665   0.48790   0.00000  Uiso   1.00
C346   C     0.26542   0.16668   0.51210   0.00000  Uiso   1.00
C347   C     0.01262   0.16667   0.48125   0.00000  Uiso   1.00
C348   C     0.32071   0.16666   0.51875   0.00000  Uiso   1.00
C349   C     0.16671   0.02123   0.45749   0.00000  Uiso   1.00
C350   C     0.16662   0.31210   0.54251   0.00000  Uiso   1.00
C351   C     0.16678   0.31200   0.45752   0.00000  Uiso   1.00
C352   C     0.16656   0.02134   0.54248   0.00000  Uiso   1.00
C353   C     0.16672   0.29059   0.50003   0.00000  Uiso   1.00
C354   C     0.16662   0.04274   0.49997   0.00000  Uiso   1.00
C355   C     0.13403   0.14148   0.35384   0.00000  Uiso   1.00
C356   C     0.19930   0.19185   0.64616   0.00000  Uiso   1.00
C357   C     0.13407   0.14153   0.63761   0.00000  Uiso   1.00
C358   C     0.19926   0.19180   0.36239   0.00000  Uiso   1.00
Cu359  Cu    0.16667   0.16667   0.54689   0.00000  Uiso   1.00
Cu360  Cu    0.16667   0.16666   0.45311   0.00000  Uiso   1.00
H361   H     0.32594   0.16672   0.44528   0.00000  Uiso   1.00
H362   H     0.00740   0.16662   0.55472   0.00000  Uiso   1.00
H363   H     0.16675   0.03719   0.42425   0.00000  Uiso   1.00
H364   H     0.16658   0.29614   0.57575   0.00000  Uiso   1.00
H365   H     0.16687   0.29595   0.42430   0.00000  Uiso   1.00
H366   H     0.16646   0.03738   0.57570   0.00000  Uiso   1.00
H367   H     0.10801   0.12136   0.61552   0.00000  Uiso   1.00
H368   H     0.22533   0.21197   0.38448   0.00000  Uiso   1.00
N369   N     0.16668   0.16668   0.61736   0.00000  Uiso   1.00
N370   N     0.16665   0.16666   0.38264   0.00000  Uiso   1.00
O371   O     0.16666   0.10655   0.53958   0.00000  Uiso   1.00
O372   O     0.16667   0.22678   0.46042   0.00000  Uiso   1.00
O373   O     0.16666   0.10654   0.46039   0.00000  Uiso   1.00
O374   O     0.16667   0.22679   0.53961   0.00000  Uiso   1.00
O375   O     0.09161   0.16667   0.53046   0.00000  Uiso   1.00
O376   O     0.24172   0.16666   0.46954   0.00000  Uiso   1.00
O377   O     0.09161   0.16666   0.45127   0.00000  Uiso   1.00
O378   O     0.24172   0.16667   0.54873   0.00000  Uiso   1.00
F379   F     0.10129   0.11603   0.37273   0.00000  Uiso   1.00
F380   F     0.23204   0.21730   0.62727   0.00000  Uiso   1.00
C381   C     0.49996   0.08737   0.49997   0.00000  Uiso   1.00
C382   C     0.50004   0.24597   0.50003   0.00000  Uiso   1.00
C383   C     0.40125   0.16665   0.48790   0.00000  Uiso   1.00
C384   C     0.59875   0.16668   0.51210   0.00000  Uiso   1.00
C385   C     0.34595   0.16667   0.48125   0.00000  Uiso   1.00
C386   C     0.65405   0.16666   0.51875   0.00000  Uiso   1.00
C387   C     0.50005   0.02123   0.45749   0.00000  Uiso   1.00
C388   C     0.49995   0.31210   0.54251   0.00000  Uiso   1.00
C389   C     0.50011   0.31200   0.45752   0.00000  Uiso   1.00
C390   C     0.49989   0.02134   0.54248   0.00000  Uiso   1.00
C391   C     0.50005   0.29059   0.50003   0.00000  Uiso   1.00
C392   C     0.49995   0.04274   0.49997   0.00000  Uiso   1.00
C393   C     0.46737   0.14148   0.35384   0.00000  Uiso   1.00
C394   C     0.53263   0.19185   0.64616   0.00000  Uiso   1.00
C395   C     0.46741   0.14153   0.63761   0.00000  Uiso   1.00
C396   C     0.53259   0.19180   0.36239   0.00000  Uiso   1.00
Cu397  Cu    0.50000   0.16667   0.54689   0.00000  Uiso   1.00
Cu398  Cu    0.50000   0.16666   0.45311   0.00000  Uiso   1.00
H399   H     0.65927   0.16672   0.44528   0.00000  Uiso   1.00
H400   H     0.34073   0.16662   0.55472   0.00000  Uiso   1.00
H401   H     0.50008   0.03719   0.42425   0.00000  Uiso   1.00
H402   H     0.49992   0.29614   0.57575   0.00000  Uiso   1.00
H403   H     0.50021   0.29595   0.42430   0.00000  Uiso   1.00
H404   H     0.49979   0.03738   0.57570   0.00000  Uiso   1.00
H405   H     0.44134   0.12136   0.61552   0.00000  Uiso   1.00
H406   H     0.55866   0.21197   0.38448   0.00000  Uiso   1.00
N407   N     0.50001   0.16668   0.61736   0.00000  Uiso   1.00
N408   N     0.49999   0.16666   0.38264   0.00000  Uiso   1.00
O409   O     0.50000   0.10655   0.53958   0.00000  Uiso   1.00
O410   O     0.50000   0.22678   0.46042   0.00000  Uiso   1.00
O411   O     0.50000   0.10654   0.46039   0.00000  Uiso   1.00
O412   O     0.50000   0.22679   0.53961   0.00000  Uiso   1.00
O413   O     0.42495   0.16667   0.53046   0.00000  Uiso   1.00
O414   O     0.57505   0.16666   0.46954   0.00000  Uiso   1.00
O415   O     0.42494   0.16666   0.45127   0.00000  Uiso   1.00
O416   O     0.57506   0.16667   0.54873   0.00000  Uiso   1.00
F417   F     0.43462   0.11603   0.37273   0.00000  Uiso   1.00
F418   F     0.56538   0.21730   0.62727   0.00000  Uiso   1.00
C419   C     0.83329   0.08737   0.49997   0.00000  Uiso   1.00
C420   C     0.83338   0.24597   0.50003   0.00000  Uiso   1.00
C421   C     0.73458   0.16665   0.48790   0.00000  Uiso   1.00
C422   C     0.93209   0.16668   0.51210   0.00000  Uiso   1.00
C423   C     0.67929   0.16667   0.48125   0.00000  Uiso   1.00
C424   C     0.98738   0.16666   0.51875   0.00000  Uiso   1.00
C425   C     0.83338   0.02123   0.45749   0.00000  Uiso   1.00
C426   C     0.83329   0.31210   0.54251   0.00000  Uiso   1.00
C427   C     0.83344   0.31200   0.45752   0.00000  Uiso   1.00
C428   C     0.83322   0.02134   0.54248   0.00000  Uiso   1.00
C429   C     0.83338   0.29059   0.50003   0.00000  Uiso   1.00
C430   C     0.83328   0.04274   0.49997   0.00000  Uiso   1.00
C431   C     0.80070   0.14148   0.35384   0.00000  Uiso   1.00
C432   C     0.86597   0.19185   0.64616   0.00000  Uiso   1.00
C433   C     0.80074   0.14153   0.63761   0.00000  Uiso   1.00
C434   C     0.86593   0.19180   0.36239   0.00000  Uiso   1.00
Cu435  Cu    0.83333   0.16667   0.54689   0.00000  Uiso   1.00
Cu436  Cu    0.83333   0.16666   0.45311   0.00000  Uiso   1.00
H437   H     0.99260   0.16672   0.44528   0.00000  Uiso   1.00
H438   H     0.67406   0.16662   0.55472   0.00000  Uiso   1.00
H439   H     0.83342   0.03719   0.42425   0.00000  Uiso   1.00
H440   H     0.83325   0.29614   0.57575   0.00000  Uiso   1.00
H441   H     0.83354   0.29595   0.42430   0.00000  Uiso   1.00
H442   H     0.83313   0.03738   0.57570   0.00000  Uiso   1.00
H443   H     0.77467   0.12136   0.61552   0.00000  Uiso   1.00
H444   H     0.89199   0.21197   0.38448   0.00000  Uiso   1.00
N445   N     0.83335   0.16668   0.61736   0.00000  Uiso   1.00
N446   N     0.83332   0.16666   0.38264   0.00000  Uiso   1.00
O447   O     0.83333   0.10655   0.53958   0.00000  Uiso   1.00
O448   O     0.83334   0.22678   0.46042   0.00000  Uiso   1.00
O449   O     0.83333   0.10654   0.46039   0.00000  Uiso   1.00
O450   O     0.83334   0.22679   0.53961   0.00000  Uiso   1.00
O451   O     0.75828   0.16667   0.53046   0.00000  Uiso   1.00
O452   O     0.90839   0.16666   0.46954   0.00000  Uiso   1.00
O453   O     0.75828   0.16666   0.45127   0.00000  Uiso   1.00
O454   O     0.90839   0.16667   0.54873   0.00000  Uiso   1.00
F455   F     0.76796   0.11603   0.37273   0.00000  Uiso   1.00
F456   F     0.89871   0.21730   0.62727   0.00000  Uiso   1.00
C457   C     0.16662   0.42070   0.49997   0.00000  Uiso   1.00
C458   C     0.16671   0.57930   0.50003   0.00000  Uiso   1.00
C459   C     0.06792   0.49998   0.48790   0.00000  Uiso   1.00
C460   C     0.26542   0.50002   0.51210   0.00000  Uiso   1.00
C461   C     0.01262   0.50001   0.48125   0.00000  Uiso   1.00
C462   C     0.32071   0.49999   0.51875   0.00000  Uiso   1.00
C463   C     0.16671   0.35456   0.45749   0.00000  Uiso   1.00
C464   C     0.16662   0.64544   0.54251   0.00000  Uiso   1.00
C465   C     0.16678   0.64533   0.45752   0.00000  Uiso   1.00
C466   C     0.16656   0.35467   0.54248   0.00000  Uiso   1.00
C467   C     0.16672   0.62392   0.50003   0.00000  Uiso   1.00
C468   C     0.16662   0.37608   0.49997   0.00000  Uiso   1.00
C469   C     0.13403   0.47481   0.35384   0.00000  Uiso   1.00
C470   C     0.19930   0.52519   0.64616   0.00000  Uiso   1.00
C471   C     0.13407   0.47486   0.63761   0.00000  Uiso   1.00
C472   C     0.19926   0.52514   0.36239   0.00000  Uiso   1.00
Cu473  Cu    0.16667   0.50001   0.54689   0.00000  Uiso   1.00
Cu474  Cu    0.16667   0.49999   0.45311   0.00000  Uiso   1.00
H475   H     0.32594   0.50005   0.44528   0.00000  Uiso   1.00
H476   H     0.00740   0.49995   0.55472   0.00000  Uiso   1.00
H477   H     0.16675   0.37053   0.42425   0.00000  Uiso   1.00
H478   H     0.16658   0.62947   0.57575   0.00000  Uiso   1.00
H479   H     0.16687   0.62928   0.42430   0.00000  Uiso   1.00
H480   H     0.16646   0.37072   0.57570   0.00000  Uiso   1.00
H481   H     0.10801   0.45470   0.61552   0.00000  Uiso   1.00
H482   H     0.22533   0.54530   0.38448   0.00000  Uiso   1.00
N483   N     0.16668   0.50001   0.61736   0.00000  Uiso   1.00
N484   N     0.16665   0.49999   0.38264   0.00000  Uiso   1.00
O485   O     0.16666   0.43989   0.53958   0.00000  Uiso   1.00
O486   O     0.16667   0.56011   0.46042   0.00000  Uiso   1.00
O487   O     0.16666   0.43988   0.46039   0.00000  Uiso   1.00
O488   O     0.16667   0.56012   0.53961   0.00000  Uiso   1.00
O489   O     0.09161   0.50000   0.53046   0.00000  Uiso   1.00
O490   O     0.24172   0.50000   0.46954   0.00000  Uiso   1.00
O491   O     0.09161   0.49999   0.45127   0.00000  Uiso   1.00
O492   O     0.24172   0.50001   0.54873   0.00000  Uiso   1.00
F493   F     0.10129   0.44937   0.37273   0.00000  Uiso   1.00
F494   F     0.23204   0.55063   0.62727   0.00000  Uiso   1.00
C495   C     0.49996   0.42070   0.49997   0.00000  Uiso   1.00
C496   C     0.50004   0.57930   0.50003   0.00000  Uiso   1.00
C497   C     0.40125   0.49998   0.48790   0.00000  Uiso   1.00
C498   C     0.59875   0.50002   0.51210   0.00000  Uiso   1.00
C499   C     0.34595   0.50001   0.48125   0.00000  Uiso   1.00
C500   C     0.65405   0.49999   0.51875   0.00000  Uiso   1.00
C501   C     0.50005   0.35456   0.45749   0.00000  Uiso   1.00
C502   C     0.49995   0.64544   0.54251   0.00000  Uiso   1.00
C503   C     0.50011   0.64533   0.45752   0.00000  Uiso   1.00
C504   C     0.49989   0.35467   0.54248   0.00000  Uiso   1.00
C505   C     0.50005   0.62392   0.50003   0.00000  Uiso   1.00
C506   C     0.49995   0.37608   0.49997   0.00000  Uiso   1.00
C507   C     0.46737   0.47481   0.35384   0.00000  Uiso   1.00
C508   C     0.53263   0.52519   0.64616   0.00000  Uiso   1.00
C509   C     0.46741   0.47486   0.63761   0.00000  Uiso   1.00
C510   C     0.53259   0.52514   0.36239   0.00000  Uiso   1.00
Cu511  Cu    0.50000   0.50001   0.54689   0.00000  Uiso   1.00
Cu512  Cu    0.50000   0.49999   0.45311   0.00000  Uiso   1.00
H513   H     0.65927   0.50005   0.44528   0.00000  Uiso   1.00
H514   H     0.34073   0.49995   0.55472   0.00000  Uiso   1.00
H515   H     0.50008   0.37053   0.42425   0.00000  Uiso   1.00
H516   H     0.49992   0.62947   0.57575   0.00000  Uiso   1.00
H517   H     0.50021   0.62928   0.42430   0.00000  Uiso   1.00
H518   H     0.49979   0.37072   0.57570   0.00000  Uiso   1.00
H519   H     0.44134   0.45470   0.61552   0.00000  Uiso   1.00
H520   H     0.55866   0.54530   0.38448   0.00000  Uiso   1.00
N521   N     0.50001   0.50001   0.61736   0.00000  Uiso   1.00
N522   N     0.49999   0.49999   0.38264   0.00000  Uiso   1.00
O523   O     0.50000   0.43989   0.53958   0.00000  Uiso   1.00
O524   O     0.50000   0.56011   0.46042   0.00000  Uiso   1.00
O525   O     0.50000   0.43988   0.46039   0.00000  Uiso   1.00
O526   O     0.50000   0.56012   0.53961   0.00000  Uiso   1.00
O527   O     0.42495   0.50000   0.53046   0.00000  Uiso   1.00
O528   O     0.57505   0.50000   0.46954   0.00000  Uiso   1.00
O529   O     0.42494   0.49999   0.45127   0.00000  Uiso   1.00
O530   O     0.57506   0.50001   0.54873   0.00000  Uiso   1.00
F531   F     0.43462   0.44937   0.37273   0.00000  Uiso   1.00
F532   F     0.56538   0.55063   0.62727   0.00000  Uiso   1.00
C533   C     0.83329   0.42070   0.49997   0.00000  Uiso   1.00
C534   C     0.83338   0.57930   0.50003   0.00000  Uiso   1.00
C535   C     0.73458   0.49998   0.48790   0.00000  Uiso   1.00
C536   C     0.93209   0.50002   0.51210   0.00000  Uiso   1.00
C537   C     0.67929   0.50001   0.48125   0.00000  Uiso   1.00
C538   C     0.98738   0.49999   0.51875   0.00000  Uiso   1.00
C539   C     0.83338   0.35456   0.45749   0.00000  Uiso   1.00
C540   C     0.83329   0.64544   0.54251   0.00000  Uiso   1.00
C541   C     0.83344   0.64533   0.45752   0.00000  Uiso   1.00
C542   C     0.83322   0.35467   0.54248   0.00000  Uiso   1.00
C543   C     0.83338   0.62392   0.50003   0.00000  Uiso   1.00
C544   C     0.83328   0.37608   0.49997   0.00000  Uiso   1.00
C545   C     0.80070   0.47481   0.35384   0.00000  Uiso   1.00
C546   C     0.86597   0.52519   0.64616   0.00000  Uiso   1.00
C547   C     0.80074   0.47486   0.63761   0.00000  Uiso   1.00
C548   C     0.86593   0.52514   0.36239   0.00000  Uiso   1.00
Cu549  Cu    0.83333   0.50001   0.54689   0.00000  Uiso   1.00
Cu550  Cu    0.83333   0.49999   0.45311   0.00000  Uiso   1.00
H551   H     0.99260   0.50005   0.44528   0.00000  Uiso   1.00
H552   H     0.67406   0.49995   0.55472   0.00000  Uiso   1.00
H553   H     0.83342   0.37053   0.42425   0.00000  Uiso   1.00
H554   H     0.83325   0.62947   0.57575   0.00000  Uiso   1.00
H555   H     0.83354   0.62928   0.42430   0.00000  Uiso   1.00
H556   H     0.83313   0.37072   0.57570   0.00000  Uiso   1.00
H557   H     0.77467   0.45470   0.61552   0.00000  Uiso   1.00
H558   H     0.89199   0.54530   0.38448   0.00000  Uiso   1.00
N559   N     0.83335   0.50001   0.61736   0.00000  Uiso   1.00
N560   N     0.83332   0.49999   0.38264   0.00000  Uiso   1.00
O561   O     0.83333   0.43989   0.53958   0.00000  Uiso   1.00
O562   O     0.83334   0.56011   0.46042   0.00000  Uiso   1.00
O563   O     0.83333   0.43988   0.46039   0.00000  Uiso   1.00
O564   O     0.83334   0.56012   0.53961   0.00000  Uiso   1.00
O565   O     0.75828   0.50000   0.53046   0.00000  Uiso   1.00
O566   O     0.90839   0.50000   0.46954   0.00000  Uiso   1.00
O567   O     0.75828   0.49999   0.45127   0.00000  Uiso   1.00
O568   O     0.90839   0.50001   0.54873   0.00000  Uiso   1.00
F569   F     0.76796   0.44937   0.37273   0.00000  Uiso   1.00
F570   F     0.89871   0.55063   0.62727   0.00000  Uiso   1.00
C571   C     0.16662   0.75403   0.49997   0.00000  Uiso   1.00
C572   C     0.16671   0.91263   0.50003   0.00000  Uiso   1.00
C573   C     0.06792   0.83332   0.48790   0.00000  Uiso   1.00
C574   C     0.26542   0.83335   0.51210   0.00000  Uiso   1.00
C575   C     0.01262   0.83334   0.48125   0.00000  Uiso   1.00
C576   C     0.32071   0.83333   0.51875   0.00000  Uiso   1.00
C577   C     0.16671   0.68790   0.45749   0.00000  Uiso   1.00
C578   C     0.16662   0.97877   0.54251   0.00000  Uiso   1.00
C579   C     0.16678   0.97866   0.45752   0.00000  Uiso   1.00
C580   C     0.16656   0.68800   0.54248   0.00000  Uiso   1.00
C581   C     0.16672   0.95726   0.50003   0.00000  Uiso   1.00
C582   C     0.16662   0.70941   0.49997   0.00000  Uiso   1.00
C583   C     0.13403   0.80815   0.35384   0.00000  Uiso   1.00
C584   C     0.19930   0.85852   0.64616   0.00000  Uiso   1.00
C585   C     0.13407   0.80820   0.63761   0.00000  Uiso   1.00
C586   C     0.19926   0.85847   0.36239   0.00000  Uiso   1.00
Cu587  Cu    0.16667   0.83334   0.54689   0.00000  Uiso   1.00
Cu588  Cu    0.16667   0.83333   0.45311   0.00000  Uiso   1.00
H589   H     0.32594   0.83338   0.44528   0.00000  Uiso   1.00
H590   H     0.00740   0.83328   0.55472   0.00000  Uiso   1.00
H591   H     0.16675   0.70386   0.42425   0.00000  Uiso   1.00
H592   H     0.16658   0.96281   0.57575   0.00000  Uiso   1.00
H593   H     0.16687   0.96261   0.42430   0.00000  Uiso   1.00
H594   H     0.16646   0.70405   0.57570   0.00000  Uiso   1.00
H595   H     0.10801   0.78803   0.61552   0.00000  Uiso   1.00
H596   H     0.22533   0.87864   0.38448   0.00000  Uiso   1.00
N597   N     0.16668   0.83334   0.61736   0.00000  Uiso   1.00
N598   N     0.16665   0.83332   0.38264   0.00000  Uiso   1.00
O599   O     0.16666   0.77322   0.53958   0.00000  Uiso   1.00
O600   O     0.16667   0.89345   0.46042   0.00000  Uiso   1.00
O601   O     0.16666   0.77321   0.46039   0.00000  Uiso   1.00
O602   O     0.16667   0.89346   0.53961   0.00000  Uiso   1.00
O603   O     0.09161   0.83334   0.53046   0.00000  Uiso   1.00
O604   O     0.24172   0.83333   0.46954   0.00000  Uiso   1.00
O605   O     0.09161   0.83333   0.45127   0.00000  Uiso   1.00
O606   O     0.24172   0.83334   0.54873   0.00000  Uiso   1.00
F607   F     0.10129   0.78270   0.37273   0.00000  Uiso   1.00
F608   F     0.23204   0.88396   0.62727   0.00000  Uiso   1.00
C609   C     0.49996   0.75403   0.49997   0.00000  Uiso   1.00
C610   C     0.50004   0.91263   0.50003   0.00000  Uiso   1.00
C611   C     0.40125   0.83332   0.48790   0.00000  Uiso   1.00
C612   C     0.59875   0.83335   0.51210   0.00000  Uiso   1.00
C613   C     0.34595   0.83334   0.48125   0.00000  Uiso   1.00
C614   C     0.65405   0.83333   0.51875   0.00000  Uiso   1.00
C615   C     0.50005   0.68790   0.45749   0.00000  Uiso   1.00
C616   C     0.49995   0.97877   0.54251   0.00000  Uiso   1.00
C617   C     0.50011   0.97866   0.45752   0.00000  Uiso   1.00
C618   C     0.49989   0.68800   0.54248   0.00000  Uiso   1.00
C619   C     0.50005   0.95726   0.50003   0.00000  Uiso   1.00
C620   C     0.49995   0.70941   0.49997   0.00000  Uiso   1.00
C621   C     0.46737   0.80815   0.35384   0.00000  Uiso   1.00
C622   C     0.53263   0.85852   0.64616   0.00000  Uiso   1.00
C623   C     0.46741   0.80820   0.63761   0.00000  Uiso   1.00
C624   C     0.53259   0.85847   0.36239   0.00000  Uiso   1.00
Cu625  Cu    0.50000   0.83334   0.54689   0.00000  Uiso   1.00
Cu626  Cu    0.50000   0.83333   0.45311   0.00000  Uiso   1.00
H627   H     0.65927   0.83338   0.44528   0.00000  Uiso   1.00
H628   H     0.34073   0.83328   0.55472   0.00000  Uiso   1.00
H629   H     0.50008   0.70386   0.42425   0.00000  Uiso   1.00
H630   H     0.49992   0.96281   0.57575   0.00000  Uiso   1.00
H631   H     0.50021   0.96261   0.42430   0.00000  Uiso   1.00
H632   H     0.49979   0.70405   0.57570   0.00000  Uiso   1.00
H633   H     0.44134   0.78803   0.61552   0.00000  Uiso   1.00
H634   H     0.55866   0.87864   0.38448   0.00000  Uiso   1.00
N635   N     0.50001   0.83334   0.61736   0.00000  Uiso   1.00
N636   N     0.49999   0.83332   0.38264   0.00000  Uiso   1.00
O637   O     0.50000   0.77322   0.53958   0.00000  Uiso   1.00
O638   O     0.50000   0.89345   0.46042   0.00000  Uiso   1.00
O639   O     0.50000   0.77321   0.46039   0.00000  Uiso   1.00
O640   O     0.50000   0.89346   0.53961   0.00000  Uiso   1.00
O641   O     0.42495   0.83334   0.53046   0.00000  Uiso   1.00
O642   O     0.57505   0.83333   0.46954   0.00000  Uiso   1.00
O643   O     0.42494   0.83333   0.45127   0.00000  Uiso   1.00
O644   O     0.57506   0.83334   0.54873   0.00000  Uiso   1.00
F645   F     0.43462   0.78270   0.37273   0.00000  Uiso   1.00
F646   F     0.56538   0.88396   0.62727   0.00000  Uiso   1.00
C647   C     0.83329   0.75403   0.49997   0.00000  Uiso   1.00
C648   C     0.83338   0.91263   0.50003   0.00000  Uiso   1.00
C649   C     0.73458   0.83332   0.48790   0.00000  Uiso   1.00
C650   C     0.93209   0.83335   0.51210   0.00000  Uiso   1.00
C651   C     0.67929   0.83334   0.48125   0.00000  Uiso   1.00
C652   C     0.98738   0.83333   0.51875   0.00000  Uiso   1.00
C653   C     0.83338   0.68790   0.45749   0.00000  Uiso   1.00
C654   C     0.83329   0.97877   0.54251   0.00000  Uiso   1.00
C655   C     0.83344   0.97866   0.45752   0.00000  Uiso   1.00
C656   C     0.83322   0.68800   0.54248   0.00000  Uiso   1.00
C657   C     0.83338   0.95726   0.50003   0.00000  Uiso   1.00
C658   C     0.83328   0.70941   0.49997   0.00000  Uiso   1.00
C659   C     0.80070   0.80815   0.35384   0.00000  Uiso   1.00
C660   C     0.86597   0.85852   0.64616   0.00000  Uiso   1.00
C661   C     0.80074   0.80820   0.63761   0.00000  Uiso   1.00
C662   C     0.86593   0.85847   0.36239   0.00000  Uiso   1.00
Cu663  Cu    0.83333   0.83334   0.54689   0.00000  Uiso   1.00
Cu664  Cu    0.83333   0.83333   0.45311   0.00000  Uiso   1.00
H665   H     0.99260   0.83338   0.44528   0.00000  Uiso   1.00
H666   H     0.67406   0.83328   0.55472   0.00000  Uiso   1.00
H667   H     0.83342   0.70386   0.42425   0.00000  Uiso   1.00
H668   H     0.83325   0.96281   0.57575   0.00000  Uiso   1.00
H669   H     0.83354   0.96261   0.42430   0.00000  Uiso   1.00
H670   H     0.83313   0.70405   0.57570   0.00000  Uiso   1.00
H671   H     0.77467   0.78803   0.61552   0.00000  Uiso   1.00
H672   H     0.89199   0.87864   0.38448   0.00000  Uiso   1.00
N673   N     0.83335   0.83334   0.61736   0.00000  Uiso   1.00
N674   N     0.83332   0.83332   0.38264   0.00000  Uiso   1.00
O675   O     0.83333   0.77322   0.53958   0.00000  Uiso   1.00
O676   O     0.83334   0.89345   0.46042   0.00000  Uiso   1.00
O677   O     0.83333   0.77321   0.46039   0.00000  Uiso   1.00
O678   O     0.83334   0.89346   0.53961   0.00000  Uiso   1.00
O679   O     0.75828   0.83334   0.53046   0.00000  Uiso   1.00
O680   O     0.90839   0.83333   0.46954   0.00000  Uiso   1.00
O681   O     0.75828   0.83333   0.45127   0.00000  Uiso   1.00
O682   O     0.90839   0.83334   0.54873   0.00000  Uiso   1.00
F683   F     0.76796   0.78270   0.37273   0.00000  Uiso   1.00
F684   F     0.89871   0.88396   0.62727   0.00000  Uiso   1.00
C685   C     0.16662   0.08737   0.83330   0.00000  Uiso   1.00
C686   C     0.16671   0.24597   0.83337   0.00000  Uiso   1.00
C687   C     0.06792   0.16665   0.82123   0.00000  Uiso   1.00
C688   C     0.26542   0.16668   0.84544   0.00000  Uiso   1.00
C689   C     0.01262   0.16667   0.81458   0.00000  Uiso   1.00
C690   C     0.32071   0.16666   0.85208   0.00000  Uiso   1.00
C691   C     0.16671   0.02123   0.79082   0.00000  Uiso   1.00
C692   C     0.16662   0.31210   0.87585   0.00000  Uiso   1.00
C693   C     0.16678   0.31200   0.79085   0.00000  Uiso   1.00
C694   C     0.16656   0.02134   0.87581   0.00000  Uiso   1.00
C695   C     0.16672   0.29059   0.83337   0.00000  Uiso   1.00
C696   C     0.16662   0.04274   0.83330   0.00000  Uiso   1.00
C697   C     0.13403   0.14148   0.68717   0.00000  Uiso   1.00
C698   C     0.19930   0.19185   0.97949   0.00000  Uiso   1.00
C699   C     0.13407   0.14153   0.97095   0.00000  Uiso   1.00
C700   C     0.19926   0.19180   0.69572   0.00000  Uiso   1.00
Cu701  Cu    0.16667   0.16667   0.88022   0.00000  Uiso   1.00
Cu702  Cu    0.16667   0.16666   0.78645   0.00000  Uiso   1.00
H703   H     0.32594   0.16672   0.77862   0.00000  Uiso   1.00
H704   H     0.00740   0.16662   0.88805   0.00000  Uiso   1.00
H705   H     0.16675   0.03719   0.75758   0.00000  Uiso   1.00
H706   H     0.16658   0.29614   0.90908   0.00000  Uiso   1.00
H707   H     0.16687   0.29595   0.75763   0.00000  Uiso   1.00
H708   H     0.16646   0.03738   0.90903   0.00000  Uiso   1.00
H709   H     0.10801   0.12136   0.94885   0.00000  Uiso   1.00
H710   H     0.22533   0.21197   0.71782   0.00000  Uiso   1.00
N711   N     0.16668   0.16668   0.95069   0.00000  Uiso   1.00
N712   N     0.16665   0.16666   0.71597   0.00000  Uiso   1.00
O713   O     0.16666   0.10655   0.87291   0.00000  Uiso   1.00
O714   O     0.16667   0.22678   0.79375   0.00000  Uiso   1.00
O715   O     0.16666   0.10654   0.79372   0.00000  Uiso   1.00
O716   O     0.16667   0.22679   0.87294   0.00000  Uiso   1.00
O717   O     0.09161   0.16667   0.86379   0.00000  Uiso   1.00
O718   O     0.24172   0.16666   0.80288   0.00000  Uiso   1.00
O719   O     0.09161   0.16666   0.78460   0.00000  Uiso   1.00
O720   O     0.24172   0.16667   0.88207   0.00000  Uiso   1.00
F721   F     0.10129   0.11603   0.70606   0.00000  Uiso   1.00
F722   F     0.23204   0.21730   0.96060   0.00000  Uiso   1.00
C723   C     0.49996   0.08737   0.83330   0.00000  Uiso   1.00
C724   C     0.50004   0.24597   0.83337   0.00000  Uiso   1.00
C725   C     0.40125   0.16665   0.82123   0.00000  Uiso   1.00
C726   C     0.59875   0.16668   0.84544   0.00000  Uiso   1.00
C727   C     0.34595   0.16667   0.81458   0.00000  Uiso   1.00
C728   C     0.65405   0.16666   0.85208   0.00000  Uiso   1.00
C729   C     0.50005   0.02123   0.79082   0.00000  Uiso   1.00
C730   C     0.49995   0.31210   0.87585   0.00000  Uiso   1.00
C731   C     0.50011   0.31200   0.79085   0.00000  Uiso   1.00
C732   C     0.49989   0.02134   0.87581   0.00000  Uiso   1.00
C733   C     0.50005   0.29059   0.83337   0.00000  Uiso   1.00
C734   C     0.49995   0.04274   0.83330   0.00000  Uiso   1.00
C735   C     0.46737   0.14148   0.68717   0.00000  Uiso   1.00
C736   C     0.53263   0.19185   0.97949   0.00000  Uiso   1.00
C737   C     0.46741   0.14153   0.97095   0.00000  Uiso   1.00
C738   C     0.53259   0.19180   0.69572   0.00000  Uiso   1.00
Cu739  Cu    0.50000   0.16667   0.88022   0.00000  Uiso   1.00
Cu740  Cu    0.50000   0.16666   0.78645   0.00000  Uiso   1.00
H741   H     0.65927   0.16672   0.77862   0.00000  Uiso   1.00
H742   H     0.34073   0.16662   0.88805   0.00000  Uiso   1.00
H743   H     0.50008   0.03719   0.75758   0.00000  Uiso   1.00
H744   H     0.49992   0.29614   0.90908   0.00000  Uiso   1.00
H745   H     0.50021   0.29595   0.75763   0.00000  Uiso   1.00
H746   H     0.49979   0.03738   0.90903   0.00000  Uiso   1.00
H747   H     0.44134   0.12136   0.94885   0.00000  Uiso   1.00
H748   H     0.55866   0.21197   0.71782   0.00000  Uiso   1.00
N749   N     0.50001   0.16668   0.95069   0.00000  Uiso   1.00
N750   N     0.49999   0.16666   0.71597   0.00000  Uiso   1.00
O751   O     0.50000   0.10655   0.87291   0.00000  Uiso   1.00
O752   O     0.50000   0.22678   0.79375   0.00000  Uiso   1.00
O753   O     0.50000   0.10654   0.79372   0.00000  Uiso   1.00
O754   O     0.50000   0.22679   0.87294   0.00000  Uiso   1.00
O755   O     0.42495   0.16667   0.86379   0.00000  Uiso   1.00
O756   O     0.57505   0.16666   0.80288   0.00000  Uiso   1.00
O757   O     0.42494   0.16666   0.78460   0.00000  Uiso   1.00
O758   O     0.57506   0.16667   0.88207   0.00000  Uiso   1.00
F759   F     0.43462   0.11603   0.70606   0.00000  Uiso   1.00
F760   F     0.56538   0.21730   0.96060   0.00000  Uiso   1.00
C761   C     0.83329   0.08737   0.83330   0.00000  Uiso   1.00
C762   C     0.83338   0.24597   0.83337   0.00000  Uiso   1.00
C763   C     0.73458   0.16665   0.82123   0.00000  Uiso   1.00
C764   C     0.93209   0.16668   0.84544   0.00000  Uiso   1.00
C765   C     0.67929   0.16667   0.81458   0.00000  Uiso   1.00
C766   C     0.98738   0.16666   0.85208   0.00000  Uiso   1.00
C767   C     0.83338   0.02123   0.79082   0.00000  Uiso   1.00
C768   C     0.83329   0.31210   0.87585   0.00000  Uiso   1.00
C769   C     0.83344   0.31200   0.79085   0.00000  Uiso   1.00
C770   C     0.83322   0.02134   0.87581   0.00000  Uiso   1.00
C771   C     0.83338   0.29059   0.83337   0.00000  Uiso   1.00
C772   C     0.83328   0.04274   0.83330   0.00000  Uiso   1.00
C773   C     0.80070   0.14148   0.68717   0.00000  Uiso   1.00
C774   C     0.86597   0.19185   0.97949   0.00000  Uiso   1.00
C775   C     0.80074   0.14153   0.97095   0.00000  Uiso   1.00
C776   C     0.86593   0.19180   0.69572   0.00000  Uiso   1.00
Cu777  Cu    0.83333   0.16667   0.88022   0.00000  Uiso   1.00
Cu778  Cu    0.83333   0.16666   0.78645   0.00000  Uiso   1.00
H779   H     0.99260   0.16672   0.77862   0.00000  Uiso   1.00
H780   H     0.67406   0.16662   0.88805   0.00000  Uiso   1.00
H781   H     0.83342   0.03719   0.75758   0.00000  Uiso   1.00
H782   H     0.83325   0.29614   0.90908   0.00000  Uiso   1.00
H783   H     0.83354   0.29595   0.75763   0.00000  Uiso   1.00
H784   H     0.83313   0.03738   0.90903   0.00000  Uiso   1.00
H785   H     0.77467   0.12136   0.94885   0.00000  Uiso   1.00
H786   H     0.89199   0.21197   0.71782   0.00000  Uiso   1.00
N787   N     0.83335   0.16668   0.95069   0.00000  Uiso   1.00
N788   N     0.83332   0.16666   0.71597   0.00000  Uiso   1.00
O789   O     0.83333   0.10655   0.87291   0.00000  Uiso   1.00
O790   O     0.83334   0.22678   0.79375   0.00000  Uiso   1.00
O791   O     0.83333   0.10654   0.79372   0.00000  Uiso   1.00
O792   O     0.83334   0.22679   0.87294   0.00000  Uiso   1.00
O793   O     0.75828   0.16667   0.86379   0.00000  Uiso   1.00
O794   O     0.90839   0.16666   0.80288   0.00000  Uiso   1.00
O795   O     0.75828   0.16666   0.78460   0.00000  Uiso   1.00
O796   O     0.90839   0.16667   0.88207   0.00000  Uiso   1.00
F797   F     0.76796   0.11603   0.70606   0.00000  Uiso   1.00
F798   F     0.89871   0.21730   0.96060   0.00000  Uiso   1.00
C799   C     0.16662   0.42070   0.83330   0.00000  Uiso   1.00
C800   C     0.16671   0.57930   0.83337   0.00000  Uiso   1.00
C801   C     0.06792   0.49998   0.82123   0.00000  Uiso   1.00
C802   C     0.26542   0.50002   0.84544   0.00000  Uiso   1.00
C803   C     0.01262   0.50001   0.81458   0.00000  Uiso   1.00
C804   C     0.32071   0.49999   0.85208   0.00000  Uiso   1.00
C805   C     0.16671   0.35456   0.79082   0.00000  Uiso   1.00
C806   C     0.16662   0.64544   0.87585   0.00000  Uiso   1.00
C807   C     0.16678   0.64533   0.79085   0.00000  Uiso   1.00
C808   C     0.16656   0.35467   0.87581   0.00000  Uiso   1.00
C809   C     0.16672   0.62392   0.83337   0.00000  Uiso   1.00
C810   C     0.16662   0.37608   0.83330   0.00000  Uiso   1.00
C811   C     0.13403   0.47481   0.68717   0.00000  Uiso   1.00
C812   C     0.19930   0.52519   0.97949   0.00000  Uiso   1.00
C813   C     0.13407   0.47486   0.97095   0.00000  Uiso   1.00
C814   C     0.19926   0.52514   0.69572   0.00000  Uiso   1.00
Cu815  Cu    0.16667   0.50001   0.88022   0.00000  Uiso   1.00
Cu816  Cu    0.16667   0.49999   0.78645   0.00000  Uiso   1.00
H817   H     0.32594   0.50005   0.77862   0.00000  Uiso   1.00
H818   H     0.00740   0.49995   0.88805   0.00000  Uiso   1.00
H819   H     0.16675   0.37053   0.75758   0.00000  Uiso   1.00
H820   H     0.16658   0.62947   0.90908   0.00000  Uiso   1.00
H821   H     0.16687   0.62928   0.75763   0.00000  Uiso   1.00
H822   H     0.16646   0.37072   0.90903   0.00000  Uiso   1.00
H823   H     0.10801   0.45470   0.94885   0.00000  Uiso   1.00
H824   H     0.22533   0.54530   0.71782   0.00000  Uiso   1.00
N825   N     0.16668   0.50001   0.95069   0.00000  Uiso   1.00
N826   N     0.16665   0.49999   0.71597   0.00000  Uiso   1.00
O827   O     0.16666   0.43989   0.87291   0.00000  Uiso   1.00
O828   O     0.16667   0.56011   0.79375   0.00000  Uiso   1.00
O829   O     0.16666   0.43988   0.79372   0.00000  Uiso   1.00
O830   O     0.16667   0.56012   0.87294   0.00000  Uiso   1.00
O831   O     0.09161   0.50000   0.86379   0.00000  Uiso   1.00
O832   O     0.24172   0.50000   0.80288   0.00000  Uiso   1.00
O833   O     0.09161   0.49999   0.78460   0.00000  Uiso   1.00
O834   O     0.24172   0.50001   0.88207   0.00000  Uiso   1.00
F835   F     0.10129   0.44937   0.70606   0.00000  Uiso   1.00
F836   F     0.23204   0.55063   0.96060   0.00000  Uiso   1.00
C837   C     0.49996   0.42070   0.83330   0.00000  Uiso   1.00
C838   C     0.50004   0.57930   0.83337   0.00000  Uiso   1.00
C839   C     0.40125   0.49998   0.82123   0.00000  Uiso   1.00
C840   C     0.59875   0.50002   0.84544   0.00000  Uiso   1.00
C841   C     0.34595   0.50001   0.81458   0.00000  Uiso   1.00
C842   C     0.65405   0.49999   0.85208   0.00000  Uiso   1.00
C843   C     0.50005   0.35456   0.79082   0.00000  Uiso   1.00
C844   C     0.49995   0.64544   0.87585   0.00000  Uiso   1.00
C845   C     0.50011   0.64533   0.79085   0.00000  Uiso   1.00
C846   C     0.49989   0.35467   0.87581   0.00000  Uiso   1.00
C847   C     0.50005   0.62392   0.83337   0.00000  Uiso   1.00
C848   C     0.49995   0.37608   0.83330   0.00000  Uiso   1.00
C849   C     0.46737   0.47481   0.68717   0.00000  Uiso   1.00
C850   C     0.53263   0.52519   0.97949   0.00000  Uiso   1.00
C851   C     0.46741   0.47486   0.97095   0.00000  Uiso   1.00
C852   C     0.53259   0.52514   0.69572   0.00000  Uiso   1.00
Cu853  Cu    0.50000   0.50001   0.88022   0.00000  Uiso   1.00
Cu854  Cu    0.50000   0.49999   0.78645   0.00000  Uiso   1.00
H855   H     0.65927   0.50005   0.77862   0.00000  Uiso   1.00
H856   H     0.34073   0.49995   0.88805   0.00000  Uiso   1.00
H857   H     0.50008   0.37053   0.75758   0.00000  Uiso   1.00
H858   H     0.49992   0.62947   0.90908   0.00000  Uiso   1.00
H859   H     0.50021   0.62928   0.75763   0.00000  Uiso   1.00
H860   H     0.49979   0.37072   0.90903   0.00000  Uiso   1.00
H861   H     0.44134   0.45470   0.94885   0.00000  Uiso   1.00
H862   H     0.55866   0.54530   0.71782   0.00000  Uiso   1.00
N863   N     0.50001   0.50001   0.95069   0.00000  Uiso   1.00
N864   N     0.49999   0.49999   0.71597   0.00000  Uiso   1.00
O865   O     0.50000   0.43989   0.87291   0.00000  Uiso   1.00
O866   O     0.50000   0.56011   0.79375   0.00000  Uiso   1.00
O867   O     0.50000   0.43988   0.79372   0.00000  Uiso   1.00
O868   O     0.50000   0.56012   0.87294   0.00000  Uiso   1.00
O869   O     0.42495   0.50000   0.86379   0.00000  Uiso   1.00
O870   O     0.57505   0.50000   0.80288   0.00000  Uiso   1.00
O871   O     0.42494   0.49999   0.78460   0.00000  Uiso   1.00
O872   O     0.57506   0.50001   0.88207   0.00000  Uiso   1.00
F873   F     0.43462   0.44937   0.70606   0.00000  Uiso   1.00
F874   F     0.56538   0.55063   0.96060   0.00000  Uiso   1.00
C875   C     0.83329   0.42070   0.83330   0.00000  Uiso   1.00
C876   C     0.83338   0.57930   0.83337   0.00000  Uiso   1.00
C877   C     0.73458   0.49998   0.82123   0.00000  Uiso   1.00
C878   C     0.93209   0.50002   0.84544   0.00000  Uiso   1.00
C879   C     0.67929   0.50001   0.81458   0.00000  Uiso   1.00
C880   C     0.98738   0.49999   0.85208   0.00000  Uiso   1.00
C881   C     0.83338   0.35456   0.79082   0.00000  Uiso   1.00
C882   C     0.83329   0.64544   0.87585   0.00000  Uiso   1.00
C883   C     0.83344   0.64533   0.79085   0.00000  Uiso   1.00
C884   C     0.83322   0.35467   0.87581   0.00000  Uiso   1.00
C885   C     0.83338   0.62392   0.83337   0.00000  Uiso   1.00
C886   C     0.83328   0.37608   0.83330   0.00000  Uiso   1.00
C887   C     0.80070   0.47481   0.68717   0.00000  Uiso   1.00
C888   C     0.86597   0.52519   0.97949   0.00000  Uiso   1.00
C889   C     0.80074   0.47486   0.97095   0.00000  Uiso   1.00
C890   C     0.86593   0.52514   0.69572   0.00000  Uiso   1.00
Cu891  Cu    0.83333   0.50001   0.88022   0.00000  Uiso   1.00
Cu892  Cu    0.83333   0.49999   0.78645   0.00000  Uiso   1.00
H893   H     0.99260   0.50005   0.77862   0.00000  Uiso   1.00
H894   H     0.67406   0.49995   0.88805   0.00000  Uiso   1.00
H895   H     0.83342   0.37053   0.75758   0.00000  Uiso   1.00
H896   H     0.83325   0.62947   0.90908   0.00000  Uiso   1.00
H897   H     0.83354   0.62928   0.75763   0.00000  Uiso   1.00
H898   H     0.83313   0.37072   0.90903   0.00000  Uiso   1.00
H899   H     0.77467   0.45470   0.94885   0.00000  Uiso   1.00
H900   H     0.89199   0.54530   0.71782   0.00000  Uiso   1.00
N901   N     0.83335   0.50001   0.95069   0.00000  Uiso   1.00
N902   N     0.83332   0.49999   0.71597   0.00000  Uiso   1.00
O903   O     0.83333   0.43989   0.87291   0.00000  Uiso   1.00
O904   O     0.83334   0.56011   0.79375   0.00000  Uiso   1.00
O905   O     0.83333   0.43988   0.79372   0.00000  Uiso   1.00
O906   O     0.83334   0.56012   0.87294   0.00000  Uiso   1.00
O907   O     0.75828   0.50000   0.86379   0.00000  Uiso   1.00
O908   O     0.90839   0.50000   0.80288   0.00000  Uiso   1.00
O909   O     0.75828   0.49999   0.78460   0.00000  Uiso   1.00
O910   O     0.90839   0.50001   0.88207   0.00000  Uiso   1.00
F911   F     0.76796   0.44937   0.70606   0.00000  Uiso   1.00
F912   F     0.89871   0.55063   0.96060   0.00000  Uiso   1.00
C913   C     0.16662   0.75403   0.83330   0.00000  Uiso   1.00
C914   C     0.16671   0.91263   0.83337   0.00000  Uiso   1.00
C915   C     0.06792   0.83332   0.82123   0.00000  Uiso   1.00
C916   C     0.26542   0.83335   0.84544   0.00000  Uiso   1.00
C917   C     0.01262   0.83334   0.81458   0.00000  Uiso   1.00
C918   C     0.32071   0.83333   0.85208   0.00000  Uiso   1.00
C919   C     0.16671   0.68790   0.79082   0.00000  Uiso   1.00
C920   C     0.16662   0.97877   0.87585   0.00000  Uiso   1.00
C921   C     0.16678   0.97866   0.79085   0.00000  Uiso   1.00
C922   C     0.16656   0.68800   0.87581   0.00000  Uiso   1.00
C923   C     0.16672   0.95726   0.83337   0.00000  Uiso   1.00
C924   C     0.16662   0.70941   0.83330   0.00000  Uiso   1.00
C925   C     0.13403   0.80815   0.68717   0.00000  Uiso   1.00
C926   C     0.19930   0.85852   0.97949   0.00000  Uiso   1.00
C927   C     0.13407   0.80820   0.97095   0.00000  Uiso   1.00
C928   C     0.19926   0.85847   0.69572   0.00000  Uiso   1.00
Cu929  Cu    0.16667   0.83334   0.88022   0.00000  Uiso   1.00
Cu930  Cu    0.16667   0.83333   0.78645   0.00000  Uiso   1.00
H931   H     0.32594   0.83338   0.77862   0.00000  Uiso   1.00
H932   H     0.00740   0.83328   0.88805   0.00000  Uiso   1.00
H933   H     0.16675   0.70386   0.75758   0.00000  Uiso   1.00
H934   H     0.16658   0.96281   0.90908   0.00000  Uiso   1.00
H935   H     0.16687   0.96261   0.75763   0.00000  Uiso   1.00
H936   H     0.16646   0.70405   0.90903   0.00000  Uiso   1.00
H937   H     0.10801   0.78803   0.94885   0.00000  Uiso   1.00
H938   H     0.22533   0.87864   0.71782   0.00000  Uiso   1.00
N939   N     0.16668   0.83334   0.95069   0.00000  Uiso   1.00
N940   N     0.16665   0.83332   0.71597   0.00000  Uiso   1.00
O941   O     0.16666   0.77322   0.87291   0.00000  Uiso   1.00
O942   O     0.16667   0.89345   0.79375   0.00000  Uiso   1.00
O943   O     0.16666   0.77321   0.79372   0.00000  Uiso   1.00
O944   O     0.16667   0.89346   0.87294   0.00000  Uiso   1.00
O945   O     0.09161   0.83334   0.86379   0.00000  Uiso   1.00
O946   O     0.24172   0.83333   0.80288   0.00000  Uiso   1.00
O947   O     0.09161   0.83333   0.78460   0.00000  Uiso   1.00
O948   O     0.24172   0.83334   0.88207   0.00000  Uiso   1.00
F949   F     0.10129   0.78270   0.70606   0.00000  Uiso   1.00
F950   F     0.23204   0.88396   0.96060   0.00000  Uiso   1.00
C951   C     0.49996   0.75403   0.83330   0.00000  Uiso   1.00
C952   C     0.50004   0.91263   0.83337   0.00000  Uiso   1.00
C953   C     0.40125   0.83332   0.82123   0.00000  Uiso   1.00
C954   C     0.59875   0.83335   0.84544   0.00000  Uiso   1.00
C955   C     0.34595   0.83334   0.81458   0.00000  Uiso   1.00
C956   C     0.65405   0.83333   0.85208   0.00000  Uiso   1.00
C957   C     0.50005   0.68790   0.79082   0.00000  Uiso   1.00
C958   C     0.49995   0.97877   0.87585   0.00000  Uiso   1.00
C959   C     0.50011   0.97866   0.79085   0.00000  Uiso   1.00
C960   C     0.49989   0.68800   0.87581   0.00000  Uiso   1.00
C961   C     0.50005   0.95726   0.83337   0.00000  Uiso   1.00
C962   C     0.49995   0.70941   0.83330   0.00000  Uiso   1.00
C963   C     0.46737   0.80815   0.68717   0.00000  Uiso   1.00
C964   C     0.53263   0.85852   0.97949   0.00000  Uiso   1.00
C965   C     0.46741   0.80820   0.97095   0.00000  Uiso   1.00
C966   C     0.53259   0.85847   0.69572   0.00000  Uiso   1.00
Cu967  Cu    0.50000   0.83334   0.88022   0.00000  Uiso   1.00
Cu968  Cu    0.50000   0.83333   0.78645   0.00000  Uiso   1.00
H969   H     0.65927   0.83338   0.77862   0.00000  Uiso   1.00
H970   H     0.34073   0.83328   0.88805   0.00000  Uiso   1.00
H971   H     0.50008   0.70386   0.75758   0.00000  Uiso   1.00
H972   H     0.49992   0.96281   0.90908   0.00000  Uiso   1.00
H973   H     0.50021   0.96261   0.75763   0.00000  Uiso   1.00
H974   H     0.49979   0.70405   0.90903   0.00000  Uiso   1.00
H975   H     0.44134   0.78803   0.94885   0.00000  Uiso   1.00
H976   H     0.55866   0.87864   0.71782   0.00000  Uiso   1.00
N977   N     0.50001   0.83334   0.95069   0.00000  Uiso   1.00
N978   N     0.49999   0.83332   0.71597   0.00000  Uiso   1.00
O979   O     0.50000   0.77322   0.87291   0.00000  Uiso   1.00
O980   O     0.50000   0.89345   0.79375   0.00000  Uiso   1.00
O981   O     0.50000   0.77321   0.79372   0.00000  Uiso   1.00
O982   O     0.50000   0.89346   0.87294   0.00000  Uiso   1.00
O983   O     0.42495   0.83334   0.86379   0.00000  Uiso   1.00
O984   O     0.57505   0.83333   0.80288   0.00000  Uiso   1.00
O985   O     0.42494   0.83333   0.78460   0.00000  Uiso   1.00
O986   O     0.57506   0.83334   0.88207   0.00000  Uiso   1.00
F987   F     0.43462   0.78270   0.70606   0.00000  Uiso   1.00
F988   F     0.56538   0.88396   0.96060   0.00000  Uiso   1.00
C989   C     0.83329   0.75403   0.83330   0.00000  Uiso   1.00
C990   C     0.83338   0.91263   0.83337   0.00000  Uiso   1.00
C991   C     0.73458   0.83332   0.82123   0.00000  Uiso   1.00
C992   C     0.93209   0.83335   0.84544   0.00000  Uiso   1.00
C993   C     0.67929   0.83334   0.81458   0.00000  Uiso   1.00
C994   C     0.98738   0.83333   0.85208   0.00000  Uiso   1.00
C995   C     0.83338   0.68790   0.79082   0.00000  Uiso   1.00
C996   C     0.83329   0.97877   0.87585   0.00000  Uiso   1.00
C997   C     0.83344   0.97866   0.79085   0.00000  Uiso   1.00
C998   C     0.83322   0.68800   0.87581   0.00000  Uiso   1.00
C999   C     0.83338   0.95726   0.83337   0.00000  Uiso   1.00
C1000  C     0.83328   0.70941   0.83330   0.00000  Uiso   1.00
C1001  C     0.80070   0.80815   0.68717   0.00000  Uiso   1.00
C1002  C     0.86597   0.85852   0.97949   0.00000  Uiso   1.00
C1003  C     0.80074   0.80820   0.97095   0.00000  Uiso   1.00
C1004  C     0.86593   0.85847   0.69572   0.00000  Uiso   1.00
Cu1005 Cu    0.83333   0.83334   0.88022   0.00000  Uiso   1.00
Cu1006 Cu    0.83333   0.83333   0.78645   0.00000  Uiso   1.00
H1007  H     0.99260   0.83338   0.77862   0.00000  Uiso   1.00
H1008  H     0.67406   0.83328   0.88805   0.00000  Uiso   1.00
H1009  H     0.83342   0.70386   0.75758   0.00000  Uiso   1.00
H1010  H     0.83325   0.96281   0.90908   0.00000  Uiso   1.00
H1011  H     0.83354   0.96261   0.75763   0.00000  Uiso   1.00
H1012  H     0.83313   0.70405   0.90903   0.00000  Uiso   1.00
H1013  H     0.77467   0.78803   0.94885   0.00000  Uiso   1.00
H1014  H     0.89199   0.87864   0.71782   0.00000  Uiso   1.00
N1015  N     0.83335   0.83334   0.95069   0.00000  Uiso   1.00
N1016  N     0.83332   0.83332   0.71597   0.00000  Uiso   1.00
O1017  O     0.83333   0.77322   0.87291   0.00000  Uiso   1.00
O1018  O     0.83334   0.89345   0.79375   0.00000  Uiso   1.00
O1019  O     0.83333   0.77321   0.79372   0.00000  Uiso   1.00
O1020  O     0.83334   0.89346   0.87294   0.00000  Uiso   1.00
O1021  O     0.75828   0.83334   0.86379   0.00000  Uiso   1.00
O1022  O     0.90839   0.83333   0.80288   0.00000  Uiso   1.00
O1023  O     0.75828   0.83333   0.78460   0.00000  Uiso   1.00
O1024  O     0.90839   0.83334   0.88207   0.00000  Uiso   1.00
F1025  F     0.76796   0.78270   0.70606   0.00000  Uiso   1.00
F1026  F     0.89871   0.88396   0.96060   0.00000  Uiso   1.00
loop_
_geom_bond_atom_site_label_1
_geom_bond_atom_site_label_2
_geom_bond_distance
_geom_bond_site_symmetry_2
_ccdc_geom_bond_type
C1     O29     1.292   .     A
C1     C12     1.450   .     S
C1     O31     1.293   .     A
C2     O30     1.292   .     A
C2     C11     1.450   .     S
C2     O32     1.293   .     A
C3     O35     1.290   .     A
C3     O33     1.287   .     A
C3     C5      1.435   .     S
C4     O36     1.290   .     A
C4     C6      1.435   .     S
C4     O34     1.287   .     A
C5     C82     1.336   1_455 S
C5     H95     1.087   1_455 S
C6     C43     1.336   .     S
C6     H58     1.087   .     S
C7     C12     1.401   .     A
C7     H21     1.083   .     S
C7     C237    1.384   1_545 S
C8     H22     1.083   .     S
C8     C11     1.401   .     A
C8     C124    1.384   .     S
C9     C11     1.401   .     A
C9     H23     1.083   .     S
C9     C121    1.384   .     S
C10    C12     1.401   .     A
C10    H24     1.083   .     S
C10    C236    1.384   1_545 S
C13    N28     1.369   .     A
C13    F37     1.355   .     S
C13    C699    1.417   1_554 S
C14    N27     1.369   .     A
C14    F38     1.355   .     S
C14    C358    1.417   .     S
C15    N27     1.366   .     A
C15    H25     1.082   .     S
C15    C355    1.417   .     S
C16    N28     1.366   .     A
C16    H26     1.082   .     S
C16    C698    1.417   1_554 S
Cu17   O36     1.960   .     S
Cu17   Cu18    2.681   .     S
Cu17   O33     1.958   .     S
Cu17   N27     2.015   .     S
Cu17   O29     1.965   .     S
Cu17   O32     1.965   .     S
Cu18   O35     1.960   .     S
Cu18   N28     2.015   .     S
Cu18   O30     1.965   .     S
Cu18   O34     1.958   .     S
Cu18   O31     1.965   .     S
H19    C43     1.087   .     S
H20    C82     1.087   1_455 S
C39    O67     1.292   .     A
C39    C50     1.450   .     S
C39    O69     1.293   .     A
C40    O68     1.292   .     A
C40    C49     1.450   .     S
C40    O70     1.293   .     A
C41    O73     1.290   .     A
C41    O71     1.287   .     A
C41    C43     1.435   .     S
C42    O74     1.290   .     A
C42    C44     1.435   .     S
C42    O72     1.287   .     A
C44    C81     1.336   .     S
C44    H96     1.087   .     S
C45    C50     1.401   .     A
C45    H59     1.083   .     S
C45    C275    1.384   1_545 S
C46    H60     1.083   .     S
C46    C49     1.401   .     A
C46    C162    1.384   .     S
C47    C49     1.401   .     A
C47    H61     1.083   .     S
C47    C159    1.384   .     S
C48    C50     1.401   .     A
C48    H62     1.083   .     S
C48    C274    1.384   1_545 S
C51    N66     1.369   .     A
C51    F75     1.355   .     S
C51    C737    1.417   1_554 S
C52    N65     1.369   .     A
C52    F76     1.355   .     S
C52    C396    1.417   .     S
C53    N65     1.366   .     A
C53    H63     1.082   .     S
C53    C393    1.417   .     S
C54    N66     1.366   .     A
C54    H64     1.082   .     S
C54    C736    1.417   1_554 S
Cu55   O74     1.960   .     S
Cu55   Cu56    2.681   .     S
Cu55   O71     1.958   .     S
Cu55   N65     2.015   .     S
Cu55   O67     1.965   .     S
Cu55   O70     1.965   .     S
Cu56   O73     1.960   .     S
Cu56   N66     2.015   .     S
Cu56   O68     1.965   .     S
Cu56   O72     1.958   .     S
Cu56   O69     1.965   .     S
H57    C81     1.087   .     S
C77    O105    1.292   .     A
C77    C88     1.450   .     S
C77    O107    1.293   .     A
C78    O106    1.292   .     A
C78    C87     1.450   .     S
C78    O108    1.293   .     A
C79    O111    1.290   .     A
C79    O109    1.287   .     A
C79    C81     1.435   .     S
C80    O112    1.290   .     A
C80    C82     1.435   .     S
C80    O110    1.287   .     A
C82    C5      1.336   1_655 S
C82    H20     1.087   1_655 S
C83    C88     1.401   .     A
C83    H97     1.083   .     S
C83    C313    1.384   1_545 S
C84    H98     1.083   .     S
C84    C87     1.401   .     A
C84    C200    1.384   .     S
C85    C87     1.401   .     A
C85    H99     1.083   .     S
C85    C197    1.384   .     S
C86    C88     1.401   .     A
C86    H100    1.083   .     S
C86    C312    1.384   1_545 S
C89    N104    1.369   .     A
C89    F113    1.355   .     S
C89    C775    1.417   1_554 S
C90    N103    1.369   .     A
C90    F114    1.355   .     S
C90    C434    1.417   .     S
C91    N103    1.366   .     A
C91    H101    1.082   .     S
C91    C431    1.417   .     S
C92    N104    1.366   .     A
C92    H102    1.082   .     S
C92    C774    1.417   1_554 S
Cu93   O112    1.960   .     S
Cu93   Cu94    2.681   .     S
Cu93   O109    1.958   .     S
Cu93   N103    2.015   .     S
Cu93   O105    1.965   .     S
Cu93   O108    1.965   .     S
Cu94   O111    1.960   .     S
Cu94   N104    2.015   .     S
Cu94   O106    1.965   .     S
Cu94   O110    1.958   .     S
Cu94   O107    1.965   .     S
H95    C5      1.087   1_655 S
C115   O143    1.292   .     A
C115   C126    1.450   .     S
C115   O145    1.293   .     A
C116   O144    1.292   .     A
C116   C125    1.450   .     S
C116   O146    1.293   .     A
C117   O149    1.290   .     A
C117   O147    1.287   .     A
C117   C119    1.435   .     S
C118   O150    1.290   .     A
C118   C120    1.435   .     S
C118   O148    1.287   .     A
C119   C196    1.336   1_455 S
C119   H209    1.087   1_455 S
C120   C157    1.336   .     S
C120   H172    1.087   .     S
C121   C126    1.401   .     A
C121   H135    1.083   .     S
C122   H136    1.083   .     S
C122   C125    1.401   .     A
C122   C238    1.384   .     S
C123   C125    1.401   .     A
C123   H137    1.083   .     S
C123   C235    1.384   .     S
C124   C126    1.401   .     A
C124   H138    1.083   .     S
C127   N142    1.369   .     A
C127   F151    1.355   .     S
C127   C813    1.417   1_554 S
C128   N141    1.369   .     A
C128   F152    1.355   .     S
C128   C472    1.417   .     S
C129   N141    1.366   .     A
C129   H139    1.082   .     S
C129   C469    1.417   .     S
C130   N142    1.366   .     A
C130   H140    1.082   .     S
C130   C812    1.417   1_554 S
Cu131  O150    1.960   .     S
Cu131  Cu132   2.681   .     S
Cu131  O147    1.958   .     S
Cu131  N141    2.015   .     S
Cu131  O143    1.965   .     S
Cu131  O146    1.965   .     S
Cu132  O149    1.960   .     S
Cu132  N142    2.015   .     S
Cu132  O144    1.965   .     S
Cu132  O148    1.958   .     S
Cu132  O145    1.965   .     S
H133   C157    1.087   .     S
H134   C196    1.087   1_455 S
C153   O181    1.292   .     A
C153   C164    1.450   .     S
C153   O183    1.293   .     A
C154   O182    1.292   .     A
C154   C163    1.450   .     S
C154   O184    1.293   .     A
C155   O187    1.290   .     A
C155   O185    1.287   .     A
C155   C157    1.435   .     S
C156   O188    1.290   .     A
C156   C158    1.435   .     S
C156   O186    1.287   .     A
C158   C195    1.336   .     S
C158   H210    1.087   .     S
C159   C164    1.401   .     A
C159   H173    1.083   .     S
C160   H174    1.083   .     S
C160   C163    1.401   .     A
C160   C276    1.384   .     S
C161   C163    1.401   .     A
C161   H175    1.083   .     S
C161   C273    1.384   .     S
C162   C164    1.401   .     A
C162   H176    1.083   .     S
C165   N180    1.369   .     A
C165   F189    1.355   .     S
C165   C851    1.417   1_554 S
C166   N179    1.369   .     A
C166   F190    1.355   .     S
C166   C510    1.417   .     S
C167   N179    1.366   .     A
C167   H177    1.082   .     S
C167   C507    1.417   .     S
C168   N180    1.366   .     A
C168   H178    1.082   .     S
C168   C850    1.417   1_554 S
Cu169  O188    1.960   .     S
Cu169  Cu170   2.681   .     S
Cu169  O185    1.958   .     S
Cu169  N179    2.015   .     S
Cu169  O181    1.965   .     S
Cu169  O184    1.965   .     S
Cu170  O187    1.960   .     S
Cu170  N180    2.015   .     S
Cu170  O182    1.965   .     S
Cu170  O186    1.958   .     S
Cu170  O183    1.965   .     S
H171   C195    1.087   .     S
C191   O219    1.292   .     A
C191   C202    1.450   .     S
C191   O221    1.293   .     A
C192   O220    1.292   .     A
C192   C201    1.450   .     S
C192   O222    1.293   .     A
C193   O225    1.290   .     A
C193   O223    1.287   .     A
C193   C195    1.435   .     S
C194   O226    1.290   .     A
C194   C196    1.435   .     S
C194   O224    1.287   .     A
C196   C119    1.336   1_655 S
C196   H134    1.087   1_655 S
C197   C202    1.401   .     A
C197   H211    1.083   .     S
C198   H212    1.083   .     S
C198   C201    1.401   .     A
C198   C314    1.384   .     S
C199   C201    1.401   .     A
C199   H213    1.083   .     S
C199   C311    1.384   .     S
C200   C202    1.401   .     A
C200   H214    1.083   .     S
C203   N218    1.369   .     A
C203   F227    1.355   .     S
C203   C889    1.417   1_554 S
C204   N217    1.369   .     A
C204   F228    1.355   .     S
C204   C548    1.417   .     S
C205   N217    1.366   .     A
C205   H215    1.082   .     S
C205   C545    1.417   .     S
C206   N218    1.366   .     A
C206   H216    1.082   .     S
C206   C888    1.417   1_554 S
Cu207  O226    1.960   .     S
Cu207  Cu208   2.681   .     S
Cu207  O223    1.958   .     S
Cu207  N217    2.015   .     S
Cu207  O219    1.965   .     S
Cu207  O222    1.965   .     S
Cu208  O225    1.960   .     S
Cu208  N218    2.015   .     S
Cu208  O220    1.965   .     S
Cu208  O224    1.958   .     S
Cu208  O221    1.965   .     S
H209   C119    1.087   1_655 S
C229   O257    1.292   .     A
C229   C240    1.450   .     S
C229   O259    1.293   .     A
C230   O258    1.292   .     A
C230   C239    1.450   .     S
C230   O260    1.293   .     A
C231   O263    1.290   .     A
C231   O261    1.287   .     A
C231   C233    1.435   .     S
C232   O264    1.290   .     A
C232   C234    1.435   .     S
C232   O262    1.287   .     A
C233   C310    1.336   1_455 S
C233   H323    1.087   1_455 S
C234   C271    1.336   .     S
C234   H286    1.087   .     S
C235   C240    1.401   .     A
C235   H249    1.083   .     S
C236   H250    1.083   .     S
C236   C239    1.401   .     A
C236   C10     1.384   1_565 S
C237   C239    1.401   .     A
C237   H251    1.083   .     S
C237   C7      1.384   1_565 S
C238   C240    1.401   .     A
C238   H252    1.083   .     S
C241   N256    1.369   .     A
C241   F265    1.355   .     S
C241   C927    1.417   1_554 S
C242   N255    1.369   .     A
C242   F266    1.355   .     S
C242   C586    1.417   .     S
C243   N255    1.366   .     A
C243   H253    1.082   .     S
C243   C583    1.417   .     S
C244   N256    1.366   .     A
C244   H254    1.082   .     S
C244   C926    1.417   1_554 S
Cu245  O264    1.960   .     S
Cu245  Cu246   2.681   .     S
Cu245  O261    1.958   .     S
Cu245  N255    2.015   .     S
Cu245  O257    1.965   .     S
Cu245  O260    1.965   .     S
Cu246  O263    1.960   .     S
Cu246  N256    2.015   .     S
Cu246  O258    1.965   .     S
Cu246  O262    1.958   .     S
Cu246  O259    1.965   .     S
H247   C271    1.087   .     S
H248   C310    1.087   1_455 S
C267   O295    1.292   .     A
C267   C278    1.450   .     S
C267   O297    1.293   .     A
C268   O296    1.292   .     A
C268   C277    1.450   .     S
C268   O298    1.293   .     A
C269   O301    1.290   .     A
C269   O299    1.287   .     A
C269   C271    1.435   .     S
C270   O302    1.290   .     A
C270   C272    1.435   .     S
C270   O300    1.287   .     A
C272   C309    1.336   .     S
C272   H324    1.087   .     S
C273   C278    1.401   .     A
C273   H287    1.083   .     S
C274   H288    1.083   .     S
C274   C277    1.401   .     A
C274   C48     1.384   1_565 S
C275   C277    1.401   .     A
C275   H289    1.083   .     S
C275   C45     1.384   1_565 S
C276   C278    1.401   .     A
C276   H290    1.083   .     S
C279   N294    1.369   .     A
C279   F303    1.355   .     S
C279   C965    1.417   1_554 S
C280   N293    1.369   .     A
C280   F304    1.355   .     S
C280   C624    1.417   .     S
C281   N293    1.366   .     A
C281   H291    1.082   .     S
C281   C621    1.417   .     S
C282   N294    1.366   .     A
C282   H292    1.082   .     S
C282   C964    1.417   1_554 S
Cu283  O302    1.960   .     S
Cu283  Cu284   2.681   .     S
Cu283  O299    1.958   .     S
Cu283  N293    2.015   .     S
Cu283  O295    1.965   .     S
Cu283  O298    1.965   .     S
Cu284  O301    1.960   .     S
Cu284  N294    2.015   .     S
Cu284  O296    1.965   .     S
Cu284  O300    1.958   .     S
Cu284  O297    1.965   .     S
H285   C309    1.087   .     S
C305   O333    1.292   .     A
C305   C316    1.450   .     S
C305   O335    1.293   .     A
C306   O334    1.292   .     A
C306   C315    1.450   .     S
C306   O336    1.293   .     A
C307   O339    1.290   .     A
C307   O337    1.287   .     A
C307   C309    1.435   .     S
C308   O340    1.290   .     A
C308   C310    1.435   .     S
C308   O338    1.287   .     A
C310   C233    1.336   1_655 S
C310   H248    1.087   1_655 S
C311   C316    1.401   .     A
C311   H325    1.083   .     S
C312   H326    1.083   .     S
C312   C315    1.401   .     A
C312   C86     1.384   1_565 S
C313   C315    1.401   .     A
C313   H327    1.083   .     S
C313   C83     1.384   1_565 S
C314   C316    1.401   .     A
C314   H328    1.083   .     S
C317   N332    1.369   .     A
C317   F341    1.355   .     S
C317   C1003   1.417   1_554 S
C318   N331    1.369   .     A
C318   F342    1.355   .     S
C318   C662    1.417   .     S
C319   N331    1.366   .     A
C319   H329    1.082   .     S
C319   C659    1.417   .     S
C320   N332    1.366   .     A
C320   H330    1.082   .     S
C320   C1002   1.417   1_554 S
Cu321  O340    1.960   .     S
Cu321  Cu322   2.681   .     S
Cu321  O337    1.958   .     S
Cu321  N331    2.015   .     S
Cu321  O333    1.965   .     S
Cu321  O336    1.965   .     S
Cu322  O339    1.960   .     S
Cu322  N332    2.015   .     S
Cu322  O334    1.965   .     S
Cu322  O338    1.958   .     S
Cu322  O335    1.965   .     S
H323   C233    1.087   1_655 S
C343   O371    1.292   .     A
C343   C354    1.450   .     S
C343   O373    1.293   .     A
C344   O372    1.292   .     A
C344   C353    1.450   .     S
C344   O374    1.293   .     A
C345   O377    1.290   .     A
C345   O375    1.287   .     A
C345   C347    1.435   .     S
C346   O378    1.290   .     A
C346   C348    1.435   .     S
C346   O376    1.287   .     A
C347   C424    1.336   1_455 S
C347   H437    1.087   1_455 S
C348   C385    1.336   .     S
C348   H400    1.087   .     S
C349   C354    1.401   .     A
C349   H363    1.083   .     S
C349   C579    1.384   1_545 S
C350   H364    1.083   .     S
C350   C353    1.401   .     A
C350   C466    1.384   .     S
C351   C353    1.401   .     A
C351   H365    1.083   .     S
C351   C463    1.384   .     S
C352   C354    1.401   .     A
C352   H366    1.083   .     S
C352   C578    1.384   1_545 S
C355   N370    1.369   .     A
C355   F379    1.355   .     S
C356   N369    1.369   .     A
C356   F380    1.355   .     S
C356   C700    1.417   .     S
C357   N369    1.366   .     A
C357   H367    1.082   .     S
C357   C697    1.417   .     S
C358   N370    1.366   .     A
C358   H368    1.082   .     S
Cu359  O378    1.960   .     S
Cu359  Cu360   2.681   .     S
Cu359  O375    1.958   .     S
Cu359  N369    2.015   .     S
Cu359  O371    1.965   .     S
Cu359  O374    1.965   .     S
Cu360  O377    1.960   .     S
Cu360  N370    2.015   .     S
Cu360  O372    1.965   .     S
Cu360  O376    1.958   .     S
Cu360  O373    1.965   .     S
H361   C385    1.087   .     S
H362   C424    1.087   1_455 S
C381   O409    1.292   .     A
C381   C392    1.450   .     S
C381   O411    1.293   .     A
C382   O410    1.292   .     A
C382   C391    1.450   .     S
C382   O412    1.293   .     A
C383   O415    1.290   .     A
C383   O413    1.287   .     A
C383   C385    1.435   .     S
C384   O416    1.290   .     A
C384   C386    1.435   .     S
C384   O414    1.287   .     A
C386   C423    1.336   .     S
C386   H438    1.087   .     S
C387   C392    1.401   .     A
C387   H401    1.083   .     S
C387   C617    1.384   1_545 S
C388   H402    1.083   .     S
C388   C391    1.401   .     A
C388   C504    1.384   .     S
C389   C391    1.401   .     A
C389   H403    1.083   .     S
C389   C501    1.384   .     S
C390   C392    1.401   .     A
C390   H404    1.083   .     S
C390   C616    1.384   1_545 S
C393   N408    1.369   .     A
C393   F417    1.355   .     S
C394   N407    1.369   .     A
C394   F418    1.355   .     S
C394   C738    1.417   .     S
C395   N407    1.366   .     A
C395   H405    1.082   .     S
C395   C735    1.417   .     S
C396   N408    1.366   .     A
C396   H406    1.082   .     S
Cu397  O416    1.960   .     S
Cu397  Cu398   2.681   .     S
Cu397  O413    1.958   .     S
Cu397  N407    2.015   .     S
Cu397  O409    1.965   .     S
Cu397  O412    1.965   .     S
Cu398  O415    1.960   .     S
Cu398  N408    2.015   .     S
Cu398  O410    1.965   .     S
Cu398  O414    1.958   .     S
Cu398  O411    1.965   .     S
H399   C423    1.087   .     S
C419   O447    1.292   .     A
C419   C430    1.450   .     S
C419   O449    1.293   .     A
C420   O448    1.292   .     A
C420   C429    1.450   .     S
C420   O450    1.293   .     A
C421   O453    1.290   .     A
C421   O451    1.287   .     A
C421   C423    1.435   .     S
C422   O454    1.290   .     A
C422   C424    1.435   .     S
C422   O452    1.287   .     A
C424   C347    1.336   1_655 S
C424   H362    1.087   1_655 S
C425   C430    1.401   .     A
C425   H439    1.083   .     S
C425   C655    1.384   1_545 S
C426   H440    1.083   .     S
C426   C429    1.401   .     A
C426   C542    1.384   .     S
C427   C429    1.401   .     A
C427   H441    1.083   .     S
C427   C539    1.384   .     S
C428   C430    1.401   .     A
C428   H442    1.083   .     S
C428   C654    1.384   1_545 S
C431   N446    1.369   .     A
C431   F455    1.355   .     S
C432   N445    1.369   .     A
C432   F456    1.355   .     S
C432   C776    1.417   .     S
C433   N445    1.366   .     A
C433   H443    1.082   .     S
C433   C773    1.417   .     S
C434   N446    1.366   .     A
C434   H444    1.082   .     S
Cu435  O454    1.960   .     S
Cu435  Cu436   2.681   .     S
Cu435  O451    1.958   .     S
Cu435  N445    2.015   .     S
Cu435  O447    1.965   .     S
Cu435  O450    1.965   .     S
Cu436  O453    1.960   .     S
Cu436  N446    2.015   .     S
Cu436  O448    1.965   .     S
Cu436  O452    1.958   .     S
Cu436  O449    1.965   .     S
H437   C347    1.087   1_655 S
C457   O485    1.292   .     A
C457   C468    1.450   .     S
C457   O487    1.293   .     A
C458   O486    1.292   .     A
C458   C467    1.450   .     S
C458   O488    1.293   .     A
C459   O491    1.290   .     A
C459   O489    1.287   .     A
C459   C461    1.435   .     S
C460   O492    1.290   .     A
C460   C462    1.435   .     S
C460   O490    1.287   .     A
C461   C538    1.336   1_455 S
C461   H551    1.087   1_455 S
C462   C499    1.336   .     S
C462   H514    1.087   .     S
C463   C468    1.401   .     A
C463   H477    1.083   .     S
C464   H478    1.083   .     S
C464   C467    1.401   .     A
C464   C580    1.384   .     S
C465   C467    1.401   .     A
C465   H479    1.083   .     S
C465   C577    1.384   .     S
C466   C468    1.401   .     A
C466   H480    1.083   .     S
C469   N484    1.369   .     A
C469   F493    1.355   .     S
C470   N483    1.369   .     A
C470   F494    1.355   .     S
C470   C814    1.417   .     S
C471   N483    1.366   .     A
C471   H481    1.082   .     S
C471   C811    1.417   .     S
C472   N484    1.366   .     A
C472   H482    1.082   .     S
Cu473  O492    1.960   .     S
Cu473  Cu474   2.681   .     S
Cu473  O489    1.958   .     S
Cu473  N483    2.015   .     S
Cu473  O485    1.965   .     S
Cu473  O488    1.965   .     S
Cu474  O491    1.960   .     S
Cu474  N484    2.015   .     S
Cu474  O486    1.965   .     S
Cu474  O490    1.958   .     S
Cu474  O487    1.965   .     S
H475   C499    1.087   .     S
H476   C538    1.087   1_455 S
C495   O523    1.292   .     A
C495   C506    1.450   .     S
C495   O525    1.293   .     A
C496   O524    1.292   .     A
C496   C505    1.450   .     S
C496   O526    1.293   .     A
C497   O529    1.290   .     A
C497   O527    1.287   .     A
C497   C499    1.435   .     S
C498   O530    1.290   .     A
C498   C500    1.435   .     S
C498   O528    1.287   .     A
C500   C537    1.336   .     S
C500   H552    1.087   .     S
C501   C506    1.401   .     A
C501   H515    1.083   .     S
C502   H516    1.083   .     S
C502   C505    1.401   .     A
C502   C618    1.384   .     S
C503   C505    1.401   .     A
C503   H517    1.083   .     S
C503   C615    1.384   .     S
C504   C506    1.401   .     A
C504   H518    1.083   .     S
C507   N522    1.369   .     A
C507   F531    1.355   .     S
C508   N521    1.369   .     A
C508   F532    1.355   .     S
C508   C852    1.417   .     S
C509   N521    1.366   .     A
C509   H519    1.082   .     S
C509   C849    1.417   .     S
C510   N522    1.366   .     A
C510   H520    1.082   .     S
Cu511  O530    1.960   .     S
Cu511  Cu512   2.681   .     S
Cu511  O527    1.958   .     S
Cu511  N521    2.015   .     S
Cu511  O523    1.965   .     S
Cu511  O526    1.965   .     S
Cu512  O529    1.960   .     S
Cu512  N522    2.015   .     S
Cu512  O524    1.965   .     S
Cu512  O528    1.958   .     S
Cu512  O525    1.965   .     S
H513   C537    1.087   .     S
C533   O561    1.292   .     A
C533   C544    1.450   .     S
C533   O563    1.293   .     A
C534   O562    1.292   .     A
C534   C543    1.450   .     S
C534   O564    1.293   .     A
C535   O567    1.290   .     A
C535   O565    1.287   .     A
C535   C537    1.435   .     S
C536   O568    1.290   .     A
C536   C538    1.435   .     S
C536   O566    1.287   .     A
C538   C461    1.336   1_655 S
C538   H476    1.087   1_655 S
C539   C544    1.401   .     A
C539   H553    1.083   .     S
C540   H554    1.083   .     S
C540   C543    1.401   .     A
C540   C656    1.384   .     S
C541   C543    1.401   .     A
C541   H555    1.083   .     S
C541   C653    1.384   .     S
C542   C544    1.401   .     A
C542   H556    1.083   .     S
C545   N560    1.369   .     A
C545   F569    1.355   .     S
C546   N559    1.369   .     A
C546   F570    1.355   .     S
C546   C890    1.417   .     S
C547   N559    1.366   .     A
C547   H557    1.082   .     S
C547   C887    1.417   .     S
C548   N560    1.366   .     A
C548   H558    1.082   .     S
Cu549  O568    1.960   .     S
Cu549  Cu550   2.681   .     S
Cu549  O565    1.958   .     S
Cu549  N559    2.015   .     S
Cu549  O561    1.965   .     S
Cu549  O564    1.965   .     S
Cu550  O567    1.960   .     S
Cu550  N560    2.015   .     S
Cu550  O562    1.965   .     S
Cu550  O566    1.958   .     S
Cu550  O563    1.965   .     S
H551   C461    1.087   1_655 S
C571   O599    1.292   .     A
C571   C582    1.450   .     S
C571   O601    1.293   .     A
C572   O600    1.292   .     A
C572   C581    1.450   .     S
C572   O602    1.293   .     A
C573   O605    1.290   .     A
C573   O603    1.287   .     A
C573   C575    1.435   .     S
C574   O606    1.290   .     A
C574   C576    1.435   .     S
C574   O604    1.287   .     A
C575   C652    1.336   1_455 S
C575   H665    1.087   1_455 S
C576   C613    1.336   .     S
C576   H628    1.087   .     S
C577   C582    1.401   .     A
C577   H591    1.083   .     S
C578   H592    1.083   .     S
C578   C581    1.401   .     A
C578   C352    1.384   1_565 S
C579   C581    1.401   .     A
C579   H593    1.083   .     S
C579   C349    1.384   1_565 S
C580   C582    1.401   .     A
C580   H594    1.083   .     S
C583   N598    1.369   .     A
C583   F607    1.355   .     S
C584   N597    1.369   .     A
C584   F608    1.355   .     S
C584   C928    1.417   .     S
C585   N597    1.366   .     A
C585   H595    1.082   .     S
C585   C925    1.417   .     S
C586   N598    1.366   .     A
C586   H596    1.082   .     S
Cu587  O606    1.960   .     S
Cu587  Cu588   2.681   .     S
Cu587  O603    1.958   .     S
Cu587  N597    2.015   .     S
Cu587  O599    1.965   .     S
Cu587  O602    1.965   .     S
Cu588  O605    1.960   .     S
Cu588  N598    2.015   .     S
Cu588  O600    1.965   .     S
Cu588  O604    1.958   .     S
Cu588  O601    1.965   .     S
H589   C613    1.087   .     S
H590   C652    1.087   1_455 S
C609   O637    1.292   .     A
C609   C620    1.450   .     S
C609   O639    1.293   .     A
C610   O638    1.292   .     A
C610   C619    1.450   .     S
C610   O640    1.293   .     A
C611   O643    1.290   .     A
C611   O641    1.287   .     A
C611   C613    1.435   .     S
C612   O644    1.290   .     A
C612   C614    1.435   .     S
C612   O642    1.287   .     A
C614   C651    1.336   .     S
C614   H666    1.087   .     S
C615   C620    1.401   .     A
C615   H629    1.083   .     S
C616   H630    1.083   .     S
C616   C619    1.401   .     A
C616   C390    1.384   1_565 S
C617   C619    1.401   .     A
C617   H631    1.083   .     S
C617   C387    1.384   1_565 S
C618   C620    1.401   .     A
C618   H632    1.083   .     S
C621   N636    1.369   .     A
C621   F645    1.355   .     S
C622   N635    1.369   .     A
C622   F646    1.355   .     S
C622   C966    1.417   .     S
C623   N635    1.366   .     A
C623   H633    1.082   .     S
C623   C963    1.417   .     S
C624   N636    1.366   .     A
C624   H634    1.082   .     S
Cu625  O644    1.960   .     S
Cu625  Cu626   2.681   .     S
Cu625  O641    1.958   .     S
Cu625  N635    2.015   .     S
Cu625  O637    1.965   .     S
Cu625  O640    1.965   .     S
Cu626  O643    1.960   .     S
Cu626  N636    2.015   .     S
Cu626  O638    1.965   .     S
Cu626  O642    1.958   .     S
Cu626  O639    1.965   .     S
H627   C651    1.087   .     S
C647   O675    1.292   .     A
C647   C658    1.450   .     S
C647   O677    1.293   .     A
C648   O676    1.292   .     A
C648   C657    1.450   .     S
C648   O678    1.293   .     A
C649   O681    1.290   .     A
C649   O679    1.287   .     A
C649   C651    1.435   .     S
C650   O682    1.290   .     A
C650   C652    1.435   .     S
C650   O680    1.287   .     A
C652   C575    1.336   1_655 S
C652   H590    1.087   1_655 S
C653   C658    1.401   .     A
C653   H667    1.083   .     S
C654   H668    1.083   .     S
C654   C657    1.401   .     A
C654   C428    1.384   1_565 S
C655   C657    1.401   .     A
C655   H669    1.083   .     S
C655   C425    1.384   1_565 S
C656   C658    1.401   .     A
C656   H670    1.083   .     S
C659   N674    1.369   .     A
C659   F683    1.355   .     S
C660   N673    1.369   .     A
C660   F684    1.355   .     S
C660   C1004   1.417   .     S
C661   N673    1.366   .     A
C661   H671    1.082   .     S
C661   C1001   1.417   .     S
C662   N674    1.366   .     A
C662   H672    1.082   .     S
Cu663  O682    1.960   .     S
Cu663  Cu664   2.681   .     S
Cu663  O679    1.958   .     S
Cu663  N673    2.015   .     S
Cu663  O675    1.965   .     S
Cu663  O678    1.965   .     S
Cu664  O681    1.960   .     S
Cu664  N674    2.015   .     S
Cu664  O676    1.965   .     S
Cu664  O680    1.958   .     S
Cu664  O677    1.965   .     S
H665   C575    1.087   1_655 S
C685   O713    1.292   .     A
C685   C696    1.450   .     S
C685   O715    1.293   .     A
C686   O714    1.292   .     A
C686   C695    1.450   .     S
C686   O716    1.293   .     A
C687   O719    1.290   .     A
C687   O717    1.287   .     A
C687   C689    1.435   .     S
C688   O720    1.290   .     A
C688   C690    1.435   .     S
C688   O718    1.287   .     A
C689   C766    1.336   1_455 S
C689   H779    1.087   1_455 S
C690   C727    1.336   .     S
C690   H742    1.087   .     S
C691   C696    1.401   .     A
C691   H705    1.083   .     S
C691   C921    1.384   1_545 S
C692   H706    1.083   .     S
C692   C695    1.401   .     A
C692   C808    1.384   .     S
C693   C695    1.401   .     A
C693   H707    1.083   .     S
C693   C805    1.384   .     S
C694   C696    1.401   .     A
C694   H708    1.083   .     S
C694   C920    1.384   1_545 S
C697   N712    1.369   .     A
C697   F721    1.355   .     S
C698   N711    1.369   .     A
C698   F722    1.355   .     S
C698   C16     1.417   1_556 S
C699   N711    1.366   .     A
C699   H709    1.082   .     S
C699   C13     1.417   1_556 S
C700   N712    1.366   .     A
C700   H710    1.082   .     S
Cu701  O720    1.960   .     S
Cu701  Cu702   2.681   .     S
Cu701  O717    1.958   .     S
Cu701  N711    2.015   .     S
Cu701  O713    1.965   .     S
Cu701  O716    1.965   .     S
Cu702  O719    1.960   .     S
Cu702  N712    2.015   .     S
Cu702  O714    1.965   .     S
Cu702  O718    1.958   .     S
Cu702  O715    1.965   .     S
H703   C727    1.087   .     S
H704   C766    1.087   1_455 S
C723   O751    1.292   .     A
C723   C734    1.450   .     S
C723   O753    1.293   .     A
C724   O752    1.292   .     A
C724   C733    1.450   .     S
C724   O754    1.293   .     A
C725   O757    1.290   .     A
C725   O755    1.287   .     A
C725   C727    1.435   .     S
C726   O758    1.290   .     A
C726   C728    1.435   .     S
C726   O756    1.287   .     A
C728   C765    1.336   .     S
C728   H780    1.087   .     S
C729   C734    1.401   .     A
C729   H743    1.083   .     S
C729   C959    1.384   1_545 S
C730   H744    1.083   .     S
C730   C733    1.401   .     A
C730   C846    1.384   .     S
C731   C733    1.401   .     A
C731   H745    1.083   .     S
C731   C843    1.384   .     S
C732   C734    1.401   .     A
C732   H746    1.083   .     S
C732   C958    1.384   1_545 S
C735   N750    1.369   .     A
C735   F759    1.355   .     S
C736   N749    1.369   .     A
C736   F760    1.355   .     S
C736   C54     1.417   1_556 S
C737   N749    1.366   .     A
C737   H747    1.082   .     S
C737   C51     1.417   1_556 S
C738   N750    1.366   .     A
C738   H748    1.082   .     S
Cu739  O758    1.960   .     S
Cu739  Cu740   2.681   .     S
Cu739  O755    1.958   .     S
Cu739  N749    2.015   .     S
Cu739  O751    1.965   .     S
Cu739  O754    1.965   .     S
Cu740  O757    1.960   .     S
Cu740  N750    2.015   .     S
Cu740  O752    1.965   .     S
Cu740  O756    1.958   .     S
Cu740  O753    1.965   .     S
H741   C765    1.087   .     S
C761   O789    1.292   .     A
C761   C772    1.450   .     S
C761   O791    1.293   .     A
C762   O790    1.292   .     A
C762   C771    1.450   .     S
C762   O792    1.293   .     A
C763   O795    1.290   .     A
C763   O793    1.287   .     A
C763   C765    1.435   .     S
C764   O796    1.290   .     A
C764   C766    1.435   .     S
C764   O794    1.287   .     A
C766   C689    1.336   1_655 S
C766   H704    1.087   1_655 S
C767   C772    1.401   .     A
C767   H781    1.083   .     S
C767   C997    1.384   1_545 S
C768   H782    1.083   .     S
C768   C771    1.401   .     A
C768   C884    1.384   .     S
C769   C771    1.401   .     A
C769   H783    1.083   .     S
C769   C881    1.384   .     S
C770   C772    1.401   .     A
C770   H784    1.083   .     S
C770   C996    1.384   1_545 S
C773   N788    1.369   .     A
C773   F797    1.355   .     S
C774   N787    1.369   .     A
C774   F798    1.355   .     S
C774   C92     1.417   1_556 S
C775   N787    1.366   .     A
C775   H785    1.082   .     S
C775   C89     1.417   1_556 S
C776   N788    1.366   .     A
C776   H786    1.082   .     S
Cu777  O796    1.960   .     S
Cu777  Cu778   2.681   .     S
Cu777  O793    1.958   .     S
Cu777  N787    2.015   .     S
Cu777  O789    1.965   .     S
Cu777  O792    1.965   .     S
Cu778  O795    1.960   .     S
Cu778  N788    2.015   .     S
Cu778  O790    1.965   .     S
Cu778  O794    1.958   .     S
Cu778  O791    1.965   .     S
H779   C689    1.087   1_655 S
C799   O827    1.292   .     A
C799   C810    1.450   .     S
C799   O829    1.293   .     A
C800   O828    1.292   .     A
C800   C809    1.450   .     S
C800   O830    1.293   .     A
C801   O833    1.290   .     A
C801   O831    1.287   .     A
C801   C803    1.435   .     S
C802   O834    1.290   .     A
C802   C804    1.435   .     S
C802   O832    1.287   .     A
C803   C880    1.336   1_455 S
C803   H893    1.087   1_455 S
C804   C841    1.336   .     S
C804   H856    1.087   .     S
C805   C810    1.401   .     A
C805   H819    1.083   .     S
C806   H820    1.083   .     S
C806   C809    1.401   .     A
C806   C922    1.384   .     S
C807   C809    1.401   .     A
C807   H821    1.083   .     S
C807   C919    1.384   .     S
C808   C810    1.401   .     A
C808   H822    1.083   .     S
C811   N826    1.369   .     A
C811   F835    1.355   .     S
C812   N825    1.369   .     A
C812   F836    1.355   .     S
C812   C130    1.417   1_556 S
C813   N825    1.366   .     A
C813   H823    1.082   .     S
C813   C127    1.417   1_556 S
C814   N826    1.366   .     A
C814   H824    1.082   .     S
Cu815  O834    1.960   .     S
Cu815  Cu816   2.681   .     S
Cu815  O831    1.958   .     S
Cu815  N825    2.015   .     S
Cu815  O827    1.965   .     S
Cu815  O830    1.965   .     S
Cu816  O833    1.960   .     S
Cu816  N826    2.015   .     S
Cu816  O828    1.965   .     S
Cu816  O832    1.958   .     S
Cu816  O829    1.965   .     S
H817   C841    1.087   .     S
H818   C880    1.087   1_455 S
C837   O865    1.292   .     A
C837   C848    1.450   .     S
C837   O867    1.293   .     A
C838   O866    1.292   .     A
C838   C847    1.450   .     S
C838   O868    1.293   .     A
C839   O871    1.290   .     A
C839   O869    1.287   .     A
C839   C841    1.435   .     S
C840   O872    1.290   .     A
C840   C842    1.435   .     S
C840   O870    1.287   .     A
C842   C879    1.336   .     S
C842   H894    1.087   .     S
C843   C848    1.401   .     A
C843   H857    1.083   .     S
C844   H858    1.083   .     S
C844   C847    1.401   .     A
C844   C960    1.384   .     S
C845   C847    1.401   .     A
C845   H859    1.083   .     S
C845   C957    1.384   .     S
C846   C848    1.401   .     A
C846   H860    1.083   .     S
C849   N864    1.369   .     A
C849   F873    1.355   .     S
C850   N863    1.369   .     A
C850   F874    1.355   .     S
C850   C168    1.417   1_556 S
C851   N863    1.366   .     A
C851   H861    1.082   .     S
C851   C165    1.417   1_556 S
C852   N864    1.366   .     A
C852   H862    1.082   .     S
Cu853  O872    1.960   .     S
Cu853  Cu854   2.681   .     S
Cu853  O869    1.958   .     S
Cu853  N863    2.015   .     S
Cu853  O865    1.965   .     S
Cu853  O868    1.965   .     S
Cu854  O871    1.960   .     S
Cu854  N864    2.015   .     S
Cu854  O866    1.965   .     S
Cu854  O870    1.958   .     S
Cu854  O867    1.965   .     S
H855   C879    1.087   .     S
C875   O903    1.292   .     A
C875   C886    1.450   .     S
C875   O905    1.293   .     A
C876   O904    1.292   .     A
C876   C885    1.450   .     S
C876   O906    1.293   .     A
C877   O909    1.290   .     A
C877   O907    1.287   .     A
C877   C879    1.435   .     S
C878   O910    1.290   .     A
C878   C880    1.435   .     S
C878   O908    1.287   .     A
C880   C803    1.336   1_655 S
C880   H818    1.087   1_655 S
C881   C886    1.401   .     A
C881   H895    1.083   .     S
C882   H896    1.083   .     S
C882   C885    1.401   .     A
C882   C998    1.384   .     S
C883   C885    1.401   .     A
C883   H897    1.083   .     S
C883   C995    1.384   .     S
C884   C886    1.401   .     A
C884   H898    1.083   .     S
C887   N902    1.369   .     A
C887   F911    1.355   .     S
C888   N901    1.369   .     A
C888   F912    1.355   .     S
C888   C206    1.417   1_556 S
C889   N901    1.366   .     A
C889   H899    1.082   .     S
C889   C203    1.417   1_556 S
C890   N902    1.366   .     A
C890   H900    1.082   .     S
Cu891  O910    1.960   .     S
Cu891  Cu892   2.681   .     S
Cu891  O907    1.958   .     S
Cu891  N901    2.015   .     S
Cu891  O903    1.965   .     S
Cu891  O906    1.965   .     S
Cu892  O909    1.960   .     S
Cu892  N902    2.015   .     S
Cu892  O904    1.965   .     S
Cu892  O908    1.958   .     S
Cu892  O905    1.965   .     S
H893   C803    1.087   1_655 S
C913   O941    1.292   .     A
C913   C924    1.450   .     S
C913   O943    1.293   .     A
C914   O942    1.292   .     A
C914   C923    1.450   .     S
C914   O944    1.293   .     A
C915   O947    1.290   .     A
C915   O945    1.287   .     A
C915   C917    1.435   .     S
C916   O948    1.290   .     A
C916   C918    1.435   .     S
C916   O946    1.287   .     A
C917   C994    1.336   1_455 S
C917   H1007   1.087   1_455 S
C918   C955    1.336   .     S
C918   H970    1.087   .     S
C919   C924    1.401   .     A
C919   H933    1.083   .     S
C920   H934    1.083   .     S
C920   C923    1.401   .     A
C920   C694    1.384   1_565 S
C921   C923    1.401   .     A
C921   H935    1.083   .     S
C921   C691    1.384   1_565 S
C922   C924    1.401   .     A
C922   H936    1.083   .     S
C925   N940    1.369   .     A
C925   F949    1.355   .     S
C926   N939    1.369   .     A
C926   F950    1.355   .     S
C926   C244    1.417   1_556 S
C927   N939    1.366   .     A
C927   H937    1.082   .     S
C927   C241    1.417   1_556 S
C928   N940    1.366   .     A
C928   H938    1.082   .     S
Cu929  O948    1.960   .     S
Cu929  Cu930   2.681   .     S
Cu929  O945    1.958   .     S
Cu929  N939    2.015   .     S
Cu929  O941    1.965   .     S
Cu929  O944    1.965   .     S
Cu930  O947    1.960   .     S
Cu930  N940    2.015   .     S
Cu930  O942    1.965   .     S
Cu930  O946    1.958   .     S
Cu930  O943    1.965   .     S
H931   C955    1.087   .     S
H932   C994    1.087   1_455 S
C951   O979    1.292   .     A
C951   C962    1.450   .     S
C951   O981    1.293   .     A
C952   O980    1.292   .     A
C952   C961    1.450   .     S
C952   O982    1.293   .     A
C953   O985    1.290   .     A
C953   O983    1.287   .     A
C953   C955    1.435   .     S
C954   O986    1.290   .     A
C954   C956    1.435   .     S
C954   O984    1.287   .     A
C956   C993    1.336   .     S
C956   H1008   1.087   .     S
C957   C962    1.401   .     A
C957   H971    1.083   .     S
C958   H972    1.083   .     S
C958   C961    1.401   .     A
C958   C732    1.384   1_565 S
C959   C961    1.401   .     A
C959   H973    1.083   .     S
C959   C729    1.384   1_565 S
C960   C962    1.401   .     A
C960   H974    1.083   .     S
C963   N978    1.369   .     A
C963   F987    1.355   .     S
C964   N977    1.369   .     A
C964   F988    1.355   .     S
C964   C282    1.417   1_556 S
C965   N977    1.366   .     A
C965   H975    1.082   .     S
C965   C279    1.417   1_556 S
C966   N978    1.366   .     A
C966   H976    1.082   .     S
Cu967  O986    1.960   .     S
Cu967  Cu968   2.681   .     S
Cu967  O983    1.958   .     S
Cu967  N977    2.015   .     S
Cu967  O979    1.965   .     S
Cu967  O982    1.965   .     S
Cu968  O985    1.960   .     S
Cu968  N978    2.015   .     S
Cu968  O980    1.965   .     S
Cu968  O984    1.958   .     S
Cu968  O981    1.965   .     S
H969   C993    1.087   .     S
C989   O1017   1.292   .     A
C989   C1000   1.450   .     S
C989   O1019   1.293   .     A
C990   O1018   1.292   .     A
C990   C999    1.450   .     S
C990   O1020   1.293   .     A
C991   O1023   1.290   .     A
C991   O1021   1.287   .     A
C991   C993    1.435   .     S
C992   O1024   1.290   .     A
C992   C994    1.435   .     S
C992   O1022   1.287   .     A
C994   C917    1.336   1_655 S
C994   H932    1.087   1_655 S
C995   C1000   1.401   .     A
C995   H1009   1.083   .     S
C996   H1010   1.083   .     S
C996   C999    1.401   .     A
C996   C770    1.384   1_565 S
C997   C999    1.401   .     A
C997   H1011   1.083   .     S
C997   C767    1.384   1_565 S
C998   C1000   1.401   .     A
C998   H1012   1.083   .     S
C1001  N1016   1.369   .     A
C1001  F1025   1.355   .     S
C1002  N1015   1.369   .     A
C1002  F1026   1.355   .     S
C1002  C320    1.417   1_556 S
C1003  N1015   1.366   .     A
C1003  H1013   1.082   .     S
C1003  C317    1.417   1_556 S
C1004  N1016   1.366   .     A
C1004  H1014   1.082   .     S
Cu1005 O1024   1.960   .     S
Cu1005 Cu1006  2.681   .     S
Cu1005 O1021   1.958   .     S
Cu1005 N1015   2.015   .     S
Cu1005 O1017   1.965   .     S
Cu1005 O1020   1.965   .     S
Cu1006 O1023   1.960   .     S
Cu1006 N1016   2.015   .     S
Cu1006 O1018   1.965   .     S
Cu1006 O1022   1.958   .     S
Cu1006 O1019   1.965   .     S
H1007  C917    1.087   1_655 S
