data_str_m2_o1_o16_pcu_sym.120
_audit_creation_date              2020-01-03
_audit_creation_method            'Materials Studio'
_symmetry_space_group_name_H-M    'P1'
_symmetry_Int_Tables_number       1
_symmetry_cell_setting            triclinic
loop_
_symmetry_equiv_pos_as_xyz
  x,y,z
_cell_length_a                    28.7318
_cell_length_b                    32.2541
_cell_length_c                    26.7554
_cell_angle_alpha                 88.5326
_cell_angle_beta                  73.1114
_cell_angle_gamma                 89.1670
loop_
_atom_site_label
_atom_site_type_symbol
_atom_site_fract_x
_atom_site_fract_y
_atom_site_fract_z
_atom_site_U_iso_or_equiv
_atom_site_adp_type
_atom_site_occupancy
C1     C     0.16687   0.24587   0.24868   0.00000  Uiso   1.00
C2     C     0.14350   0.15301   0.49105   0.00000  Uiso   1.00
C3     C     0.15578   0.14659   0.43669   0.00000  Uiso   1.00
C4     C     0.17954   0.14688   0.01715   0.00000  Uiso   1.00
C5     C     0.22419   0.12742   0.49164   0.00000  Uiso   1.00
C6     C     0.23224   0.11411   0.44057   0.00000  Uiso   1.00
C7     C     0.19876   0.12384   0.41322   0.00000  Uiso   1.00
C8     C     0.17294   0.16161   0.06733   0.00000  Uiso   1.00
C9     C     0.25119   0.13495   0.06917   0.00000  Uiso   1.00
C10    C     0.12431   0.16271   0.40816   0.00000  Uiso   1.00
C11    C     0.20385   0.31307   0.20965   0.00000  Uiso   1.00
C12    C     0.14054   0.16521   0.35026   0.00000  Uiso   1.00
C13    C     0.20379   0.02284   0.21278   0.00000  Uiso   1.00
C14    C     0.16742   0.04298   0.25068   0.00000  Uiso   1.00
C15    C     0.13105   0.02073   0.28685   0.00000  Uiso   1.00
C16    C     0.13148   0.31120   0.28554   0.00000  Uiso   1.00
C17    C     0.16726   0.29061   0.24709   0.00000  Uiso   1.00
C18    C     0.31318   0.19880   0.22824   0.00000  Uiso   1.00
C19    C     0.02892   0.19938   0.22841   0.00000  Uiso   1.00
C20    C     0.01931   0.13446   0.27221   0.00000  Uiso   1.00
C21    C     0.30320   0.13448   0.27219   0.00000  Uiso   1.00
C22    C     0.16668   0.08750   0.25093   0.00000  Uiso   1.00
C23    C     0.19270   0.16409   0.15019   0.00000  Uiso   1.00
C24    C     0.25985   0.12159   0.01783   0.00000  Uiso   1.00
C25    C     0.20708   0.15470   0.09428   0.00000  Uiso   1.00
C26    C     0.07767   0.17846   0.43629   0.00000  Uiso   1.00
C27    C     0.06304   0.17682   0.49064   0.00000  Uiso   1.00
C28    C     0.09545   0.16481   0.01772   0.00000  Uiso   1.00
Cu29   Cu    0.11978   0.16666   0.25000   0.00000  Uiso   1.00
Cu30   Cu    0.21355   0.16667   0.25000   0.00000  Uiso   1.00
H31    H     0.27826   0.12901   0.08948   0.00000  Uiso   1.00
H32    H     0.23058   0.04107   0.18400   0.00000  Uiso   1.00
H33    H     0.10279   0.03652   0.31625   0.00000  Uiso   1.00
H34    H     0.10380   0.29400   0.31436   0.00000  Uiso   1.00
H35    H     0.29847   0.22419   0.21013   0.00000  Uiso   1.00
H36    H     0.03317   0.10871   0.29044   0.00000  Uiso   1.00
H37    H     0.28035   0.10868   0.29030   0.00000  Uiso   1.00
H38    H     0.26518   0.09731   0.42106   0.00000  Uiso   1.00
H39    H     0.29410   0.10643   0.49884   0.00000  Uiso   1.00
H40    H     0.14160   0.17960   0.08590   0.00000  Uiso   1.00
H41    H     0.08173   0.16404   0.05974   0.00000  Uiso   1.00
H42    H     0.02671   0.18663   0.01235   0.00000  Uiso   1.00
H43    H     0.20665   0.11237   0.37408   0.00000  Uiso   1.00
N44    N     0.04931   0.16666   0.24998   0.00000  Uiso   1.00
N45    N     0.28402   0.16669   0.24999   0.00000  Uiso   1.00
O46    O     0.12708   0.22678   0.25000   0.00000  Uiso   1.00
O47    O     0.20627   0.22679   0.25000   0.00000  Uiso   1.00
O48    O     0.10775   0.16665   0.32549   0.00000  Uiso   1.00
O49    O     0.18694   0.16666   0.32549   0.00000  Uiso   1.00
O50    O     0.12706   0.10654   0.24999   0.00000  Uiso   1.00
O51    O     0.20625   0.10655   0.24999   0.00000  Uiso   1.00
O52    O     0.14640   0.16667   0.17451   0.00000  Uiso   1.00
O53    O     0.22559   0.16668   0.17451   0.00000  Uiso   1.00
C54    C     0.05610   0.23603   0.20231   0.00000  Uiso   1.00
C55    C     0.05069   0.27400   0.22809   0.00000  Uiso   1.00
C56    C     0.07106   0.31013   0.20090   0.00000  Uiso   1.00
C57    C     0.09659   0.30864   0.14787   0.00000  Uiso   1.00
C58    C     0.09962   0.27144   0.12143   0.00000  Uiso   1.00
C59    C     0.07796   0.23572   0.14839   0.00000  Uiso   1.00
H60    H     0.03049   0.27565   0.26896   0.00000  Uiso   1.00
H61    H     0.06697   0.00595   0.22090   0.00000  Uiso   1.00
H62    H     0.11268   0.00318   0.12696   0.00000  Uiso   1.00
H63    H     0.11724   0.27060   0.07979   0.00000  Uiso   1.00
H64    H     0.07551   0.20831   0.12735   0.00000  Uiso   1.00
C65    C     0.04380   0.19921   0.41121   0.00000  Uiso   1.00
C66    C     0.00708   0.17663   0.39948   0.00000  Uiso   1.00
C67    C     0.30691   0.19698   0.37832   0.00000  Uiso   1.00
C68    C     0.30965   0.23983   0.36920   0.00000  Uiso   1.00
C69    C     0.01258   0.26249   0.38124   0.00000  Uiso   1.00
C70    C     0.04631   0.24228   0.40216   0.00000  Uiso   1.00
H71    H     0.00462   0.14343   0.40659   0.00000  Uiso   1.00
H72    H     0.27878   0.17963   0.36894   0.00000  Uiso   1.00
H73    H     0.28369   0.25546   0.35278   0.00000  Uiso   1.00
H74    H     0.01455   0.29573   0.37436   0.00000  Uiso   1.00
H75    H     0.07406   0.26015   0.41173   0.00000  Uiso   1.00
C76    C     0.23964   0.29365   0.16429   0.00000  Uiso   1.00
C77    C     0.22400   0.26685   0.13187   0.00000  Uiso   1.00
C78    C     0.25640   0.25338   0.08517   0.00000  Uiso   1.00
C79    C     0.30465   0.26644   0.07037   0.00000  Uiso   1.00
C80    C     0.32068   0.29281   0.10237   0.00000  Uiso   1.00
C81    C     0.28861   0.30610   0.14929   0.00000  Uiso   1.00
H82    H     0.18646   0.25743   0.14175   0.00000  Uiso   1.00
H83    H     0.24382   0.23368   0.05973   0.00000  Uiso   1.00
H84    H     0.32940   0.25677   0.03368   0.00000  Uiso   1.00
H85    H     0.02434   0.30382   0.09007   0.00000  Uiso   1.00
H86    H     0.30165   0.32702   0.17318   0.00000  Uiso   1.00
C87    C     0.50021   0.24587   0.24868   0.00000  Uiso   1.00
C88    C     0.47684   0.15301   0.49105   0.00000  Uiso   1.00
C89    C     0.48911   0.14659   0.43669   0.00000  Uiso   1.00
C90    C     0.51287   0.14688   0.01715   0.00000  Uiso   1.00
C91    C     0.55752   0.12742   0.49164   0.00000  Uiso   1.00
C92    C     0.56557   0.11411   0.44057   0.00000  Uiso   1.00
C93    C     0.53209   0.12384   0.41322   0.00000  Uiso   1.00
C94    C     0.50627   0.16161   0.06733   0.00000  Uiso   1.00
C95    C     0.58453   0.13495   0.06917   0.00000  Uiso   1.00
C96    C     0.45764   0.16271   0.40816   0.00000  Uiso   1.00
C97    C     0.53718   0.31307   0.20965   0.00000  Uiso   1.00
C98    C     0.47388   0.16521   0.35026   0.00000  Uiso   1.00
C99    C     0.53712   0.02284   0.21278   0.00000  Uiso   1.00
C100   C     0.50075   0.04298   0.25068   0.00000  Uiso   1.00
C101   C     0.46438   0.02073   0.28685   0.00000  Uiso   1.00
C102   C     0.46481   0.31120   0.28554   0.00000  Uiso   1.00
C103   C     0.50059   0.29061   0.24709   0.00000  Uiso   1.00
C104   C     0.64652   0.19880   0.22824   0.00000  Uiso   1.00
C105   C     0.36226   0.19938   0.22841   0.00000  Uiso   1.00
C106   C     0.35264   0.13446   0.27221   0.00000  Uiso   1.00
C107   C     0.63654   0.13448   0.27219   0.00000  Uiso   1.00
C108   C     0.50002   0.08750   0.25093   0.00000  Uiso   1.00
C109   C     0.52603   0.16409   0.15019   0.00000  Uiso   1.00
C110   C     0.59319   0.12159   0.01783   0.00000  Uiso   1.00
C111   C     0.54041   0.15470   0.09428   0.00000  Uiso   1.00
C112   C     0.41100   0.17846   0.43629   0.00000  Uiso   1.00
C113   C     0.39637   0.17682   0.49064   0.00000  Uiso   1.00
C114   C     0.42879   0.16481   0.01772   0.00000  Uiso   1.00
Cu115  Cu    0.45311   0.16666   0.25000   0.00000  Uiso   1.00
Cu116  Cu    0.54689   0.16667   0.25000   0.00000  Uiso   1.00
H117   H     0.61159   0.12901   0.08948   0.00000  Uiso   1.00
H118   H     0.56391   0.04107   0.18400   0.00000  Uiso   1.00
H119   H     0.43612   0.03652   0.31625   0.00000  Uiso   1.00
H120   H     0.43713   0.29400   0.31436   0.00000  Uiso   1.00
H121   H     0.63180   0.22419   0.21013   0.00000  Uiso   1.00
H122   H     0.36650   0.10871   0.29044   0.00000  Uiso   1.00
H123   H     0.61368   0.10868   0.29030   0.00000  Uiso   1.00
H124   H     0.59851   0.09731   0.42106   0.00000  Uiso   1.00
H125   H     0.62744   0.10643   0.49884   0.00000  Uiso   1.00
H126   H     0.47493   0.17960   0.08590   0.00000  Uiso   1.00
H127   H     0.41506   0.16404   0.05974   0.00000  Uiso   1.00
H128   H     0.36005   0.18663   0.01235   0.00000  Uiso   1.00
H129   H     0.53999   0.11237   0.37408   0.00000  Uiso   1.00
N130   N     0.38265   0.16666   0.24998   0.00000  Uiso   1.00
N131   N     0.61735   0.16669   0.24999   0.00000  Uiso   1.00
O132   O     0.46042   0.22678   0.25000   0.00000  Uiso   1.00
O133   O     0.53961   0.22679   0.25000   0.00000  Uiso   1.00
O134   O     0.44108   0.16665   0.32549   0.00000  Uiso   1.00
O135   O     0.52027   0.16666   0.32549   0.00000  Uiso   1.00
O136   O     0.46039   0.10654   0.24999   0.00000  Uiso   1.00
O137   O     0.53958   0.10655   0.24999   0.00000  Uiso   1.00
O138   O     0.47973   0.16667   0.17451   0.00000  Uiso   1.00
O139   O     0.55892   0.16668   0.17451   0.00000  Uiso   1.00
C140   C     0.38944   0.23603   0.20231   0.00000  Uiso   1.00
C141   C     0.38402   0.27400   0.22809   0.00000  Uiso   1.00
C142   C     0.40439   0.31013   0.20090   0.00000  Uiso   1.00
C143   C     0.42992   0.30864   0.14787   0.00000  Uiso   1.00
C144   C     0.43296   0.27144   0.12143   0.00000  Uiso   1.00
C145   C     0.41130   0.23572   0.14839   0.00000  Uiso   1.00
H146   H     0.36382   0.27565   0.26896   0.00000  Uiso   1.00
H147   H     0.40031   0.00595   0.22090   0.00000  Uiso   1.00
H148   H     0.44602   0.00318   0.12696   0.00000  Uiso   1.00
H149   H     0.45057   0.27060   0.07979   0.00000  Uiso   1.00
H150   H     0.40885   0.20831   0.12735   0.00000  Uiso   1.00
C151   C     0.37714   0.19921   0.41121   0.00000  Uiso   1.00
C152   C     0.34041   0.17663   0.39948   0.00000  Uiso   1.00
C153   C     0.64024   0.19698   0.37832   0.00000  Uiso   1.00
C154   C     0.64298   0.23983   0.36920   0.00000  Uiso   1.00
C155   C     0.34592   0.26249   0.38124   0.00000  Uiso   1.00
C156   C     0.37964   0.24228   0.40216   0.00000  Uiso   1.00
H157   H     0.33796   0.14343   0.40659   0.00000  Uiso   1.00
H158   H     0.61211   0.17963   0.36894   0.00000  Uiso   1.00
H159   H     0.61702   0.25546   0.35278   0.00000  Uiso   1.00
H160   H     0.34788   0.29573   0.37436   0.00000  Uiso   1.00
H161   H     0.40740   0.26015   0.41173   0.00000  Uiso   1.00
C162   C     0.57297   0.29365   0.16429   0.00000  Uiso   1.00
C163   C     0.55734   0.26685   0.13187   0.00000  Uiso   1.00
C164   C     0.58973   0.25338   0.08517   0.00000  Uiso   1.00
C165   C     0.63799   0.26644   0.07037   0.00000  Uiso   1.00
C166   C     0.65402   0.29281   0.10237   0.00000  Uiso   1.00
C167   C     0.62194   0.30610   0.14929   0.00000  Uiso   1.00
H168   H     0.51979   0.25743   0.14175   0.00000  Uiso   1.00
H169   H     0.57715   0.23368   0.05973   0.00000  Uiso   1.00
H170   H     0.66274   0.25677   0.03368   0.00000  Uiso   1.00
H171   H     0.35768   0.30382   0.09007   0.00000  Uiso   1.00
H172   H     0.63499   0.32702   0.17318   0.00000  Uiso   1.00
C173   C     0.83354   0.24587   0.24868   0.00000  Uiso   1.00
C174   C     0.81017   0.15301   0.49105   0.00000  Uiso   1.00
C175   C     0.82244   0.14659   0.43669   0.00000  Uiso   1.00
C176   C     0.84620   0.14688   0.01715   0.00000  Uiso   1.00
C177   C     0.89086   0.12742   0.49164   0.00000  Uiso   1.00
C178   C     0.89890   0.11411   0.44057   0.00000  Uiso   1.00
C179   C     0.86542   0.12384   0.41322   0.00000  Uiso   1.00
C180   C     0.83961   0.16161   0.06733   0.00000  Uiso   1.00
C181   C     0.91786   0.13495   0.06917   0.00000  Uiso   1.00
C182   C     0.79097   0.16271   0.40816   0.00000  Uiso   1.00
C183   C     0.87052   0.31307   0.20965   0.00000  Uiso   1.00
C184   C     0.80721   0.16521   0.35026   0.00000  Uiso   1.00
C185   C     0.87045   0.02284   0.21278   0.00000  Uiso   1.00
C186   C     0.83408   0.04298   0.25068   0.00000  Uiso   1.00
C187   C     0.79772   0.02073   0.28685   0.00000  Uiso   1.00
C188   C     0.79814   0.31120   0.28554   0.00000  Uiso   1.00
C189   C     0.83393   0.29061   0.24709   0.00000  Uiso   1.00
C190   C     0.97985   0.19880   0.22824   0.00000  Uiso   1.00
C191   C     0.69559   0.19938   0.22841   0.00000  Uiso   1.00
C192   C     0.68598   0.13446   0.27221   0.00000  Uiso   1.00
C193   C     0.96987   0.13448   0.27219   0.00000  Uiso   1.00
C194   C     0.83335   0.08750   0.25093   0.00000  Uiso   1.00
C195   C     0.85937   0.16409   0.15019   0.00000  Uiso   1.00
C196   C     0.92652   0.12159   0.01783   0.00000  Uiso   1.00
C197   C     0.87375   0.15470   0.09428   0.00000  Uiso   1.00
C198   C     0.74434   0.17846   0.43629   0.00000  Uiso   1.00
C199   C     0.72970   0.17682   0.49064   0.00000  Uiso   1.00
C200   C     0.76212   0.16481   0.01772   0.00000  Uiso   1.00
Cu201  Cu    0.78645   0.16666   0.25000   0.00000  Uiso   1.00
Cu202  Cu    0.88022   0.16667   0.25000   0.00000  Uiso   1.00
H203   H     0.94492   0.12901   0.08948   0.00000  Uiso   1.00
H204   H     0.89725   0.04107   0.18400   0.00000  Uiso   1.00
H205   H     0.76945   0.03652   0.31625   0.00000  Uiso   1.00
H206   H     0.77046   0.29400   0.31436   0.00000  Uiso   1.00
H207   H     0.96514   0.22419   0.21013   0.00000  Uiso   1.00
H208   H     0.69983   0.10871   0.29044   0.00000  Uiso   1.00
H209   H     0.94701   0.10868   0.29030   0.00000  Uiso   1.00
H210   H     0.93184   0.09731   0.42106   0.00000  Uiso   1.00
H211   H     0.96077   0.10643   0.49884   0.00000  Uiso   1.00
H212   H     0.80827   0.17960   0.08590   0.00000  Uiso   1.00
H213   H     0.74839   0.16404   0.05974   0.00000  Uiso   1.00
H214   H     0.69338   0.18663   0.01235   0.00000  Uiso   1.00
H215   H     0.87332   0.11237   0.37408   0.00000  Uiso   1.00
N216   N     0.71598   0.16666   0.24998   0.00000  Uiso   1.00
N217   N     0.95069   0.16669   0.24999   0.00000  Uiso   1.00
O218   O     0.79375   0.22678   0.25000   0.00000  Uiso   1.00
O219   O     0.87294   0.22679   0.25000   0.00000  Uiso   1.00
O220   O     0.77441   0.16665   0.32549   0.00000  Uiso   1.00
O221   O     0.85360   0.16666   0.32549   0.00000  Uiso   1.00
O222   O     0.79373   0.10654   0.24999   0.00000  Uiso   1.00
O223   O     0.87292   0.10655   0.24999   0.00000  Uiso   1.00
O224   O     0.81306   0.16667   0.17451   0.00000  Uiso   1.00
O225   O     0.89225   0.16668   0.17451   0.00000  Uiso   1.00
C226   C     0.72277   0.23603   0.20231   0.00000  Uiso   1.00
C227   C     0.71736   0.27400   0.22809   0.00000  Uiso   1.00
C228   C     0.73772   0.31013   0.20090   0.00000  Uiso   1.00
C229   C     0.76326   0.30864   0.14787   0.00000  Uiso   1.00
C230   C     0.76629   0.27144   0.12143   0.00000  Uiso   1.00
C231   C     0.74463   0.23572   0.14839   0.00000  Uiso   1.00
H232   H     0.69716   0.27565   0.26896   0.00000  Uiso   1.00
H233   H     0.73364   0.00595   0.22090   0.00000  Uiso   1.00
H234   H     0.77935   0.00318   0.12696   0.00000  Uiso   1.00
H235   H     0.78391   0.27060   0.07979   0.00000  Uiso   1.00
H236   H     0.74218   0.20831   0.12735   0.00000  Uiso   1.00
C237   C     0.71047   0.19921   0.41121   0.00000  Uiso   1.00
C238   C     0.67375   0.17663   0.39948   0.00000  Uiso   1.00
C239   C     0.97357   0.19698   0.37832   0.00000  Uiso   1.00
C240   C     0.97631   0.23983   0.36920   0.00000  Uiso   1.00
C241   C     0.67925   0.26249   0.38124   0.00000  Uiso   1.00
C242   C     0.71298   0.24228   0.40216   0.00000  Uiso   1.00
H243   H     0.67129   0.14343   0.40659   0.00000  Uiso   1.00
H244   H     0.94544   0.17963   0.36894   0.00000  Uiso   1.00
H245   H     0.95035   0.25546   0.35278   0.00000  Uiso   1.00
H246   H     0.68121   0.29573   0.37436   0.00000  Uiso   1.00
H247   H     0.74073   0.26015   0.41173   0.00000  Uiso   1.00
C248   C     0.90630   0.29365   0.16429   0.00000  Uiso   1.00
C249   C     0.89067   0.26685   0.13187   0.00000  Uiso   1.00
C250   C     0.92306   0.25338   0.08517   0.00000  Uiso   1.00
C251   C     0.97132   0.26644   0.07037   0.00000  Uiso   1.00
C252   C     0.98735   0.29281   0.10237   0.00000  Uiso   1.00
C253   C     0.95527   0.30610   0.14929   0.00000  Uiso   1.00
H254   H     0.85313   0.25743   0.14175   0.00000  Uiso   1.00
H255   H     0.91049   0.23368   0.05973   0.00000  Uiso   1.00
H256   H     0.99607   0.25677   0.03368   0.00000  Uiso   1.00
H257   H     0.69101   0.30382   0.09007   0.00000  Uiso   1.00
H258   H     0.96832   0.32702   0.17318   0.00000  Uiso   1.00
C259   C     0.16687   0.57920   0.24868   0.00000  Uiso   1.00
C260   C     0.14350   0.48634   0.49105   0.00000  Uiso   1.00
C261   C     0.15578   0.47992   0.43669   0.00000  Uiso   1.00
C262   C     0.17954   0.48022   0.01715   0.00000  Uiso   1.00
C263   C     0.22419   0.46075   0.49164   0.00000  Uiso   1.00
C264   C     0.23224   0.44744   0.44057   0.00000  Uiso   1.00
C265   C     0.19876   0.45717   0.41322   0.00000  Uiso   1.00
C266   C     0.17294   0.49494   0.06733   0.00000  Uiso   1.00
C267   C     0.25119   0.46829   0.06917   0.00000  Uiso   1.00
C268   C     0.12431   0.49604   0.40816   0.00000  Uiso   1.00
C269   C     0.20385   0.64641   0.20965   0.00000  Uiso   1.00
C270   C     0.14054   0.49854   0.35026   0.00000  Uiso   1.00
C271   C     0.20379   0.35617   0.21278   0.00000  Uiso   1.00
C272   C     0.16742   0.37631   0.25068   0.00000  Uiso   1.00
C273   C     0.13105   0.35407   0.28685   0.00000  Uiso   1.00
C274   C     0.13148   0.64454   0.28554   0.00000  Uiso   1.00
C275   C     0.16726   0.62395   0.24709   0.00000  Uiso   1.00
C276   C     0.31318   0.53213   0.22824   0.00000  Uiso   1.00
C277   C     0.02892   0.53272   0.22841   0.00000  Uiso   1.00
C278   C     0.01931   0.46780   0.27221   0.00000  Uiso   1.00
C279   C     0.30320   0.46782   0.27219   0.00000  Uiso   1.00
C280   C     0.16668   0.42084   0.25093   0.00000  Uiso   1.00
C281   C     0.19270   0.49743   0.15019   0.00000  Uiso   1.00
C282   C     0.25985   0.45493   0.01783   0.00000  Uiso   1.00
C283   C     0.20708   0.48803   0.09428   0.00000  Uiso   1.00
C284   C     0.07767   0.51179   0.43629   0.00000  Uiso   1.00
C285   C     0.06304   0.51015   0.49064   0.00000  Uiso   1.00
C286   C     0.09545   0.49815   0.01772   0.00000  Uiso   1.00
Cu287  Cu    0.11978   0.49999   0.25000   0.00000  Uiso   1.00
Cu288  Cu    0.21355   0.50001   0.25000   0.00000  Uiso   1.00
H289   H     0.27826   0.46234   0.08948   0.00000  Uiso   1.00
H290   H     0.23058   0.37440   0.18400   0.00000  Uiso   1.00
H291   H     0.10279   0.36985   0.31625   0.00000  Uiso   1.00
H292   H     0.10380   0.62733   0.31436   0.00000  Uiso   1.00
H293   H     0.29847   0.55752   0.21013   0.00000  Uiso   1.00
H294   H     0.03317   0.44204   0.29044   0.00000  Uiso   1.00
H295   H     0.28035   0.44202   0.29030   0.00000  Uiso   1.00
H296   H     0.26518   0.43064   0.42106   0.00000  Uiso   1.00
H297   H     0.29410   0.43976   0.49884   0.00000  Uiso   1.00
H298   H     0.14160   0.51293   0.08590   0.00000  Uiso   1.00
H299   H     0.08173   0.49738   0.05974   0.00000  Uiso   1.00
H300   H     0.02671   0.51996   0.01235   0.00000  Uiso   1.00
H301   H     0.20665   0.44570   0.37408   0.00000  Uiso   1.00
N302   N     0.04931   0.49999   0.24998   0.00000  Uiso   1.00
N303   N     0.28402   0.50002   0.24999   0.00000  Uiso   1.00
O304   O     0.12708   0.56011   0.25000   0.00000  Uiso   1.00
O305   O     0.20627   0.56012   0.25000   0.00000  Uiso   1.00
O306   O     0.10775   0.49998   0.32549   0.00000  Uiso   1.00
O307   O     0.18694   0.49999   0.32549   0.00000  Uiso   1.00
O308   O     0.12706   0.43988   0.24999   0.00000  Uiso   1.00
O309   O     0.20625   0.43989   0.24999   0.00000  Uiso   1.00
O310   O     0.14640   0.50001   0.17451   0.00000  Uiso   1.00
O311   O     0.22559   0.50002   0.17451   0.00000  Uiso   1.00
C312   C     0.05610   0.56936   0.20231   0.00000  Uiso   1.00
C313   C     0.05069   0.60733   0.22809   0.00000  Uiso   1.00
C314   C     0.07106   0.64346   0.20090   0.00000  Uiso   1.00
C315   C     0.09659   0.64197   0.14787   0.00000  Uiso   1.00
C316   C     0.09962   0.60477   0.12143   0.00000  Uiso   1.00
C317   C     0.07796   0.56906   0.14839   0.00000  Uiso   1.00
H318   H     0.03049   0.60898   0.26896   0.00000  Uiso   1.00
H319   H     0.06697   0.33928   0.22090   0.00000  Uiso   1.00
H320   H     0.11268   0.33651   0.12696   0.00000  Uiso   1.00
H321   H     0.11724   0.60394   0.07979   0.00000  Uiso   1.00
H322   H     0.07551   0.54164   0.12735   0.00000  Uiso   1.00
C323   C     0.04380   0.53254   0.41121   0.00000  Uiso   1.00
C324   C     0.00708   0.50997   0.39948   0.00000  Uiso   1.00
C325   C     0.30691   0.53031   0.37832   0.00000  Uiso   1.00
C326   C     0.30965   0.57317   0.36920   0.00000  Uiso   1.00
C327   C     0.01258   0.59583   0.38124   0.00000  Uiso   1.00
C328   C     0.04631   0.57561   0.40216   0.00000  Uiso   1.00
H329   H     0.00462   0.47676   0.40659   0.00000  Uiso   1.00
H330   H     0.27878   0.51296   0.36894   0.00000  Uiso   1.00
H331   H     0.28369   0.58880   0.35278   0.00000  Uiso   1.00
H332   H     0.01455   0.62906   0.37436   0.00000  Uiso   1.00
H333   H     0.07406   0.59349   0.41173   0.00000  Uiso   1.00
C334   C     0.23964   0.62699   0.16429   0.00000  Uiso   1.00
C335   C     0.22400   0.60018   0.13187   0.00000  Uiso   1.00
C336   C     0.25640   0.58672   0.08517   0.00000  Uiso   1.00
C337   C     0.30465   0.59977   0.07037   0.00000  Uiso   1.00
C338   C     0.32068   0.62614   0.10237   0.00000  Uiso   1.00
C339   C     0.28861   0.63944   0.14929   0.00000  Uiso   1.00
H340   H     0.18646   0.59076   0.14175   0.00000  Uiso   1.00
H341   H     0.24382   0.56702   0.05973   0.00000  Uiso   1.00
H342   H     0.32940   0.59011   0.03368   0.00000  Uiso   1.00
H343   H     0.02434   0.63716   0.09007   0.00000  Uiso   1.00
H344   H     0.30165   0.66036   0.17318   0.00000  Uiso   1.00
C345   C     0.50021   0.57920   0.24868   0.00000  Uiso   1.00
C346   C     0.47684   0.48634   0.49105   0.00000  Uiso   1.00
C347   C     0.48911   0.47992   0.43669   0.00000  Uiso   1.00
C348   C     0.51287   0.48022   0.01715   0.00000  Uiso   1.00
C349   C     0.55752   0.46075   0.49164   0.00000  Uiso   1.00
C350   C     0.56557   0.44744   0.44057   0.00000  Uiso   1.00
C351   C     0.53209   0.45717   0.41322   0.00000  Uiso   1.00
C352   C     0.50627   0.49494   0.06733   0.00000  Uiso   1.00
C353   C     0.58453   0.46829   0.06917   0.00000  Uiso   1.00
C354   C     0.45764   0.49604   0.40816   0.00000  Uiso   1.00
C355   C     0.53718   0.64641   0.20965   0.00000  Uiso   1.00
C356   C     0.47388   0.49854   0.35026   0.00000  Uiso   1.00
C357   C     0.53712   0.35617   0.21278   0.00000  Uiso   1.00
C358   C     0.50075   0.37631   0.25068   0.00000  Uiso   1.00
C359   C     0.46438   0.35407   0.28685   0.00000  Uiso   1.00
C360   C     0.46481   0.64454   0.28554   0.00000  Uiso   1.00
C361   C     0.50059   0.62395   0.24709   0.00000  Uiso   1.00
C362   C     0.64652   0.53213   0.22824   0.00000  Uiso   1.00
C363   C     0.36226   0.53272   0.22841   0.00000  Uiso   1.00
C364   C     0.35264   0.46780   0.27221   0.00000  Uiso   1.00
C365   C     0.63654   0.46782   0.27219   0.00000  Uiso   1.00
C366   C     0.50002   0.42084   0.25093   0.00000  Uiso   1.00
C367   C     0.52603   0.49743   0.15019   0.00000  Uiso   1.00
C368   C     0.59319   0.45493   0.01783   0.00000  Uiso   1.00
C369   C     0.54041   0.48803   0.09428   0.00000  Uiso   1.00
C370   C     0.41100   0.51179   0.43629   0.00000  Uiso   1.00
C371   C     0.39637   0.51015   0.49064   0.00000  Uiso   1.00
C372   C     0.42879   0.49815   0.01772   0.00000  Uiso   1.00
Cu373  Cu    0.45311   0.49999   0.25000   0.00000  Uiso   1.00
Cu374  Cu    0.54689   0.50001   0.25000   0.00000  Uiso   1.00
H375   H     0.61159   0.46234   0.08948   0.00000  Uiso   1.00
H376   H     0.56391   0.37440   0.18400   0.00000  Uiso   1.00
H377   H     0.43612   0.36985   0.31625   0.00000  Uiso   1.00
H378   H     0.43713   0.62733   0.31436   0.00000  Uiso   1.00
H379   H     0.63180   0.55752   0.21013   0.00000  Uiso   1.00
H380   H     0.36650   0.44204   0.29044   0.00000  Uiso   1.00
H381   H     0.61368   0.44202   0.29030   0.00000  Uiso   1.00
H382   H     0.59851   0.43064   0.42106   0.00000  Uiso   1.00
H383   H     0.62744   0.43976   0.49884   0.00000  Uiso   1.00
H384   H     0.47493   0.51293   0.08590   0.00000  Uiso   1.00
H385   H     0.41506   0.49738   0.05974   0.00000  Uiso   1.00
H386   H     0.36005   0.51996   0.01235   0.00000  Uiso   1.00
H387   H     0.53999   0.44570   0.37408   0.00000  Uiso   1.00
N388   N     0.38265   0.49999   0.24998   0.00000  Uiso   1.00
N389   N     0.61735   0.50002   0.24999   0.00000  Uiso   1.00
O390   O     0.46042   0.56011   0.25000   0.00000  Uiso   1.00
O391   O     0.53961   0.56012   0.25000   0.00000  Uiso   1.00
O392   O     0.44108   0.49998   0.32549   0.00000  Uiso   1.00
O393   O     0.52027   0.49999   0.32549   0.00000  Uiso   1.00
O394   O     0.46039   0.43988   0.24999   0.00000  Uiso   1.00
O395   O     0.53958   0.43989   0.24999   0.00000  Uiso   1.00
O396   O     0.47973   0.50001   0.17451   0.00000  Uiso   1.00
O397   O     0.55892   0.50002   0.17451   0.00000  Uiso   1.00
C398   C     0.38944   0.56936   0.20231   0.00000  Uiso   1.00
C399   C     0.38402   0.60733   0.22809   0.00000  Uiso   1.00
C400   C     0.40439   0.64346   0.20090   0.00000  Uiso   1.00
C401   C     0.42992   0.64197   0.14787   0.00000  Uiso   1.00
C402   C     0.43296   0.60477   0.12143   0.00000  Uiso   1.00
C403   C     0.41130   0.56906   0.14839   0.00000  Uiso   1.00
H404   H     0.36382   0.60898   0.26896   0.00000  Uiso   1.00
H405   H     0.40031   0.33928   0.22090   0.00000  Uiso   1.00
H406   H     0.44602   0.33651   0.12696   0.00000  Uiso   1.00
H407   H     0.45057   0.60394   0.07979   0.00000  Uiso   1.00
H408   H     0.40885   0.54164   0.12735   0.00000  Uiso   1.00
C409   C     0.37714   0.53254   0.41121   0.00000  Uiso   1.00
C410   C     0.34041   0.50997   0.39948   0.00000  Uiso   1.00
C411   C     0.64024   0.53031   0.37832   0.00000  Uiso   1.00
C412   C     0.64298   0.57317   0.36920   0.00000  Uiso   1.00
C413   C     0.34592   0.59583   0.38124   0.00000  Uiso   1.00
C414   C     0.37964   0.57561   0.40216   0.00000  Uiso   1.00
H415   H     0.33796   0.47676   0.40659   0.00000  Uiso   1.00
H416   H     0.61211   0.51296   0.36894   0.00000  Uiso   1.00
H417   H     0.61702   0.58880   0.35278   0.00000  Uiso   1.00
H418   H     0.34788   0.62906   0.37436   0.00000  Uiso   1.00
H419   H     0.40740   0.59349   0.41173   0.00000  Uiso   1.00
C420   C     0.57297   0.62699   0.16429   0.00000  Uiso   1.00
C421   C     0.55734   0.60018   0.13187   0.00000  Uiso   1.00
C422   C     0.58973   0.58672   0.08517   0.00000  Uiso   1.00
C423   C     0.63799   0.59977   0.07037   0.00000  Uiso   1.00
C424   C     0.65402   0.62614   0.10237   0.00000  Uiso   1.00
C425   C     0.62194   0.63944   0.14929   0.00000  Uiso   1.00
H426   H     0.51979   0.59076   0.14175   0.00000  Uiso   1.00
H427   H     0.57715   0.56702   0.05973   0.00000  Uiso   1.00
H428   H     0.66274   0.59011   0.03368   0.00000  Uiso   1.00
H429   H     0.35768   0.63716   0.09007   0.00000  Uiso   1.00
H430   H     0.63499   0.66036   0.17318   0.00000  Uiso   1.00
C431   C     0.83354   0.57920   0.24868   0.00000  Uiso   1.00
C432   C     0.81017   0.48634   0.49105   0.00000  Uiso   1.00
C433   C     0.82244   0.47992   0.43669   0.00000  Uiso   1.00
C434   C     0.84620   0.48022   0.01715   0.00000  Uiso   1.00
C435   C     0.89086   0.46075   0.49164   0.00000  Uiso   1.00
C436   C     0.89890   0.44744   0.44057   0.00000  Uiso   1.00
C437   C     0.86542   0.45717   0.41322   0.00000  Uiso   1.00
C438   C     0.83961   0.49494   0.06733   0.00000  Uiso   1.00
C439   C     0.91786   0.46829   0.06917   0.00000  Uiso   1.00
C440   C     0.79097   0.49604   0.40816   0.00000  Uiso   1.00
C441   C     0.87052   0.64641   0.20965   0.00000  Uiso   1.00
C442   C     0.80721   0.49854   0.35026   0.00000  Uiso   1.00
C443   C     0.87045   0.35617   0.21278   0.00000  Uiso   1.00
C444   C     0.83408   0.37631   0.25068   0.00000  Uiso   1.00
C445   C     0.79772   0.35407   0.28685   0.00000  Uiso   1.00
C446   C     0.79814   0.64454   0.28554   0.00000  Uiso   1.00
C447   C     0.83393   0.62395   0.24709   0.00000  Uiso   1.00
C448   C     0.97985   0.53213   0.22824   0.00000  Uiso   1.00
C449   C     0.69559   0.53272   0.22841   0.00000  Uiso   1.00
C450   C     0.68598   0.46780   0.27221   0.00000  Uiso   1.00
C451   C     0.96987   0.46782   0.27219   0.00000  Uiso   1.00
C452   C     0.83335   0.42084   0.25093   0.00000  Uiso   1.00
C453   C     0.85937   0.49743   0.15019   0.00000  Uiso   1.00
C454   C     0.92652   0.45493   0.01783   0.00000  Uiso   1.00
C455   C     0.87375   0.48803   0.09428   0.00000  Uiso   1.00
C456   C     0.74434   0.51179   0.43629   0.00000  Uiso   1.00
C457   C     0.72970   0.51015   0.49064   0.00000  Uiso   1.00
C458   C     0.76212   0.49815   0.01772   0.00000  Uiso   1.00
Cu459  Cu    0.78645   0.49999   0.25000   0.00000  Uiso   1.00
Cu460  Cu    0.88022   0.50001   0.25000   0.00000  Uiso   1.00
H461   H     0.94492   0.46234   0.08948   0.00000  Uiso   1.00
H462   H     0.89725   0.37440   0.18400   0.00000  Uiso   1.00
H463   H     0.76945   0.36985   0.31625   0.00000  Uiso   1.00
H464   H     0.77046   0.62733   0.31436   0.00000  Uiso   1.00
H465   H     0.96514   0.55752   0.21013   0.00000  Uiso   1.00
H466   H     0.69983   0.44204   0.29044   0.00000  Uiso   1.00
H467   H     0.94701   0.44202   0.29030   0.00000  Uiso   1.00
H468   H     0.93184   0.43064   0.42106   0.00000  Uiso   1.00
H469   H     0.96077   0.43976   0.49884   0.00000  Uiso   1.00
H470   H     0.80827   0.51293   0.08590   0.00000  Uiso   1.00
H471   H     0.74839   0.49738   0.05974   0.00000  Uiso   1.00
H472   H     0.69338   0.51996   0.01235   0.00000  Uiso   1.00
H473   H     0.87332   0.44570   0.37408   0.00000  Uiso   1.00
N474   N     0.71598   0.49999   0.24998   0.00000  Uiso   1.00
N475   N     0.95069   0.50002   0.24999   0.00000  Uiso   1.00
O476   O     0.79375   0.56011   0.25000   0.00000  Uiso   1.00
O477   O     0.87294   0.56012   0.25000   0.00000  Uiso   1.00
O478   O     0.77441   0.49998   0.32549   0.00000  Uiso   1.00
O479   O     0.85360   0.49999   0.32549   0.00000  Uiso   1.00
O480   O     0.79373   0.43988   0.24999   0.00000  Uiso   1.00
O481   O     0.87292   0.43989   0.24999   0.00000  Uiso   1.00
O482   O     0.81306   0.50001   0.17451   0.00000  Uiso   1.00
O483   O     0.89225   0.50002   0.17451   0.00000  Uiso   1.00
C484   C     0.72277   0.56936   0.20231   0.00000  Uiso   1.00
C485   C     0.71736   0.60733   0.22809   0.00000  Uiso   1.00
C486   C     0.73772   0.64346   0.20090   0.00000  Uiso   1.00
C487   C     0.76326   0.64197   0.14787   0.00000  Uiso   1.00
C488   C     0.76629   0.60477   0.12143   0.00000  Uiso   1.00
C489   C     0.74463   0.56906   0.14839   0.00000  Uiso   1.00
H490   H     0.69716   0.60898   0.26896   0.00000  Uiso   1.00
H491   H     0.73364   0.33928   0.22090   0.00000  Uiso   1.00
H492   H     0.77935   0.33651   0.12696   0.00000  Uiso   1.00
H493   H     0.78391   0.60394   0.07979   0.00000  Uiso   1.00
H494   H     0.74218   0.54164   0.12735   0.00000  Uiso   1.00
C495   C     0.71047   0.53254   0.41121   0.00000  Uiso   1.00
C496   C     0.67375   0.50997   0.39948   0.00000  Uiso   1.00
C497   C     0.97357   0.53031   0.37832   0.00000  Uiso   1.00
C498   C     0.97631   0.57317   0.36920   0.00000  Uiso   1.00
C499   C     0.67925   0.59583   0.38124   0.00000  Uiso   1.00
C500   C     0.71298   0.57561   0.40216   0.00000  Uiso   1.00
H501   H     0.67129   0.47676   0.40659   0.00000  Uiso   1.00
H502   H     0.94544   0.51296   0.36894   0.00000  Uiso   1.00
H503   H     0.95035   0.58880   0.35278   0.00000  Uiso   1.00
H504   H     0.68121   0.62906   0.37436   0.00000  Uiso   1.00
H505   H     0.74073   0.59349   0.41173   0.00000  Uiso   1.00
C506   C     0.90630   0.62699   0.16429   0.00000  Uiso   1.00
C507   C     0.89067   0.60018   0.13187   0.00000  Uiso   1.00
C508   C     0.92306   0.58672   0.08517   0.00000  Uiso   1.00
C509   C     0.97132   0.59977   0.07037   0.00000  Uiso   1.00
C510   C     0.98735   0.62614   0.10237   0.00000  Uiso   1.00
C511   C     0.95527   0.63944   0.14929   0.00000  Uiso   1.00
H512   H     0.85313   0.59076   0.14175   0.00000  Uiso   1.00
H513   H     0.91049   0.56702   0.05973   0.00000  Uiso   1.00
H514   H     0.99607   0.59011   0.03368   0.00000  Uiso   1.00
H515   H     0.69101   0.63716   0.09007   0.00000  Uiso   1.00
H516   H     0.96832   0.66036   0.17318   0.00000  Uiso   1.00
C517   C     0.16687   0.91254   0.24868   0.00000  Uiso   1.00
C518   C     0.14350   0.81967   0.49105   0.00000  Uiso   1.00
C519   C     0.15578   0.81326   0.43669   0.00000  Uiso   1.00
C520   C     0.17954   0.81355   0.01715   0.00000  Uiso   1.00
C521   C     0.22419   0.79409   0.49164   0.00000  Uiso   1.00
C522   C     0.23224   0.78077   0.44057   0.00000  Uiso   1.00
C523   C     0.19876   0.79051   0.41322   0.00000  Uiso   1.00
C524   C     0.17294   0.82828   0.06733   0.00000  Uiso   1.00
C525   C     0.25119   0.80162   0.06917   0.00000  Uiso   1.00
C526   C     0.12431   0.82938   0.40816   0.00000  Uiso   1.00
C527   C     0.20385   0.97974   0.20965   0.00000  Uiso   1.00
C528   C     0.14054   0.83187   0.35026   0.00000  Uiso   1.00
C529   C     0.20379   0.68950   0.21278   0.00000  Uiso   1.00
C530   C     0.16742   0.70965   0.25068   0.00000  Uiso   1.00
C531   C     0.13105   0.68740   0.28685   0.00000  Uiso   1.00
C532   C     0.13148   0.97787   0.28554   0.00000  Uiso   1.00
C533   C     0.16726   0.95728   0.24709   0.00000  Uiso   1.00
C534   C     0.31318   0.86546   0.22824   0.00000  Uiso   1.00
C535   C     0.02892   0.86605   0.22841   0.00000  Uiso   1.00
C536   C     0.01931   0.80113   0.27221   0.00000  Uiso   1.00
C537   C     0.30320   0.80115   0.27219   0.00000  Uiso   1.00
C538   C     0.16668   0.75417   0.25093   0.00000  Uiso   1.00
C539   C     0.19270   0.83076   0.15019   0.00000  Uiso   1.00
C540   C     0.25985   0.78826   0.01783   0.00000  Uiso   1.00
C541   C     0.20708   0.82136   0.09428   0.00000  Uiso   1.00
C542   C     0.07767   0.84512   0.43629   0.00000  Uiso   1.00
C543   C     0.06304   0.84348   0.49064   0.00000  Uiso   1.00
C544   C     0.09545   0.83148   0.01772   0.00000  Uiso   1.00
Cu545  Cu    0.11978   0.83333   0.25000   0.00000  Uiso   1.00
Cu546  Cu    0.21355   0.83334   0.25000   0.00000  Uiso   1.00
H547   H     0.27826   0.79567   0.08948   0.00000  Uiso   1.00
H548   H     0.23058   0.70773   0.18400   0.00000  Uiso   1.00
H549   H     0.10279   0.70318   0.31625   0.00000  Uiso   1.00
H550   H     0.10380   0.96066   0.31436   0.00000  Uiso   1.00
H551   H     0.29847   0.89085   0.21013   0.00000  Uiso   1.00
H552   H     0.03317   0.77538   0.29044   0.00000  Uiso   1.00
H553   H     0.28035   0.77535   0.29030   0.00000  Uiso   1.00
H554   H     0.26518   0.76398   0.42106   0.00000  Uiso   1.00
H555   H     0.29410   0.77310   0.49884   0.00000  Uiso   1.00
H556   H     0.14160   0.84627   0.08590   0.00000  Uiso   1.00
H557   H     0.08173   0.83071   0.05974   0.00000  Uiso   1.00
H558   H     0.02671   0.85330   0.01235   0.00000  Uiso   1.00
H559   H     0.20665   0.77903   0.37408   0.00000  Uiso   1.00
N560   N     0.04931   0.83332   0.24998   0.00000  Uiso   1.00
N561   N     0.28402   0.83335   0.24999   0.00000  Uiso   1.00
O562   O     0.12708   0.89345   0.25000   0.00000  Uiso   1.00
O563   O     0.20627   0.89346   0.25000   0.00000  Uiso   1.00
O564   O     0.10775   0.83332   0.32549   0.00000  Uiso   1.00
O565   O     0.18694   0.83333   0.32549   0.00000  Uiso   1.00
O566   O     0.12706   0.77321   0.24999   0.00000  Uiso   1.00
O567   O     0.20625   0.77322   0.24999   0.00000  Uiso   1.00
O568   O     0.14640   0.83334   0.17451   0.00000  Uiso   1.00
O569   O     0.22559   0.83335   0.17451   0.00000  Uiso   1.00
C570   C     0.05610   0.90270   0.20231   0.00000  Uiso   1.00
C571   C     0.05069   0.94067   0.22809   0.00000  Uiso   1.00
C572   C     0.07106   0.97680   0.20090   0.00000  Uiso   1.00
C573   C     0.09659   0.97530   0.14787   0.00000  Uiso   1.00
C574   C     0.09962   0.93810   0.12143   0.00000  Uiso   1.00
C575   C     0.07796   0.90239   0.14839   0.00000  Uiso   1.00
H576   H     0.03049   0.94231   0.26896   0.00000  Uiso   1.00
H577   H     0.06697   0.67262   0.22090   0.00000  Uiso   1.00
H578   H     0.11268   0.66985   0.12696   0.00000  Uiso   1.00
H579   H     0.11724   0.93727   0.07979   0.00000  Uiso   1.00
H580   H     0.07551   0.87497   0.12735   0.00000  Uiso   1.00
C581   C     0.04380   0.86587   0.41121   0.00000  Uiso   1.00
C582   C     0.00708   0.84330   0.39948   0.00000  Uiso   1.00
C583   C     0.30691   0.86365   0.37832   0.00000  Uiso   1.00
C584   C     0.30965   0.90650   0.36920   0.00000  Uiso   1.00
C585   C     0.01258   0.92916   0.38124   0.00000  Uiso   1.00
C586   C     0.04631   0.90894   0.40216   0.00000  Uiso   1.00
H587   H     0.00462   0.81010   0.40659   0.00000  Uiso   1.00
H588   H     0.27878   0.84629   0.36894   0.00000  Uiso   1.00
H589   H     0.28369   0.92213   0.35278   0.00000  Uiso   1.00
H590   H     0.01455   0.96239   0.37436   0.00000  Uiso   1.00
H591   H     0.07406   0.92682   0.41173   0.00000  Uiso   1.00
C592   C     0.23964   0.96032   0.16429   0.00000  Uiso   1.00
C593   C     0.22400   0.93352   0.13187   0.00000  Uiso   1.00
C594   C     0.25640   0.92005   0.08517   0.00000  Uiso   1.00
C595   C     0.30465   0.93310   0.07037   0.00000  Uiso   1.00
C596   C     0.32068   0.95947   0.10237   0.00000  Uiso   1.00
C597   C     0.28861   0.97277   0.14929   0.00000  Uiso   1.00
H598   H     0.18646   0.92410   0.14175   0.00000  Uiso   1.00
H599   H     0.24382   0.90035   0.05973   0.00000  Uiso   1.00
H600   H     0.32940   0.92344   0.03368   0.00000  Uiso   1.00
H601   H     0.02434   0.97049   0.09007   0.00000  Uiso   1.00
H602   H     0.30165   0.99369   0.17318   0.00000  Uiso   1.00
C603   C     0.50021   0.91254   0.24868   0.00000  Uiso   1.00
C604   C     0.47684   0.81967   0.49105   0.00000  Uiso   1.00
C605   C     0.48911   0.81326   0.43669   0.00000  Uiso   1.00
C606   C     0.51287   0.81355   0.01715   0.00000  Uiso   1.00
C607   C     0.55752   0.79409   0.49164   0.00000  Uiso   1.00
C608   C     0.56557   0.78077   0.44057   0.00000  Uiso   1.00
C609   C     0.53209   0.79051   0.41322   0.00000  Uiso   1.00
C610   C     0.50627   0.82828   0.06733   0.00000  Uiso   1.00
C611   C     0.58453   0.80162   0.06917   0.00000  Uiso   1.00
C612   C     0.45764   0.82938   0.40816   0.00000  Uiso   1.00
C613   C     0.53718   0.97974   0.20965   0.00000  Uiso   1.00
C614   C     0.47388   0.83187   0.35026   0.00000  Uiso   1.00
C615   C     0.53712   0.68950   0.21278   0.00000  Uiso   1.00
C616   C     0.50075   0.70965   0.25068   0.00000  Uiso   1.00
C617   C     0.46438   0.68740   0.28685   0.00000  Uiso   1.00
C618   C     0.46481   0.97787   0.28554   0.00000  Uiso   1.00
C619   C     0.50059   0.95728   0.24709   0.00000  Uiso   1.00
C620   C     0.64652   0.86546   0.22824   0.00000  Uiso   1.00
C621   C     0.36226   0.86605   0.22841   0.00000  Uiso   1.00
C622   C     0.35264   0.80113   0.27221   0.00000  Uiso   1.00
C623   C     0.63654   0.80115   0.27219   0.00000  Uiso   1.00
C624   C     0.50002   0.75417   0.25093   0.00000  Uiso   1.00
C625   C     0.52603   0.83076   0.15019   0.00000  Uiso   1.00
C626   C     0.59319   0.78826   0.01783   0.00000  Uiso   1.00
C627   C     0.54041   0.82136   0.09428   0.00000  Uiso   1.00
C628   C     0.41100   0.84512   0.43629   0.00000  Uiso   1.00
C629   C     0.39637   0.84348   0.49064   0.00000  Uiso   1.00
C630   C     0.42879   0.83148   0.01772   0.00000  Uiso   1.00
Cu631  Cu    0.45311   0.83333   0.25000   0.00000  Uiso   1.00
Cu632  Cu    0.54689   0.83334   0.25000   0.00000  Uiso   1.00
H633   H     0.61159   0.79567   0.08948   0.00000  Uiso   1.00
H634   H     0.56391   0.70773   0.18400   0.00000  Uiso   1.00
H635   H     0.43612   0.70318   0.31625   0.00000  Uiso   1.00
H636   H     0.43713   0.96066   0.31436   0.00000  Uiso   1.00
H637   H     0.63180   0.89085   0.21013   0.00000  Uiso   1.00
H638   H     0.36650   0.77538   0.29044   0.00000  Uiso   1.00
H639   H     0.61368   0.77535   0.29030   0.00000  Uiso   1.00
H640   H     0.59851   0.76398   0.42106   0.00000  Uiso   1.00
H641   H     0.62744   0.77310   0.49884   0.00000  Uiso   1.00
H642   H     0.47493   0.84627   0.08590   0.00000  Uiso   1.00
H643   H     0.41506   0.83071   0.05974   0.00000  Uiso   1.00
H644   H     0.36005   0.85330   0.01235   0.00000  Uiso   1.00
H645   H     0.53999   0.77903   0.37408   0.00000  Uiso   1.00
N646   N     0.38265   0.83332   0.24998   0.00000  Uiso   1.00
N647   N     0.61735   0.83335   0.24999   0.00000  Uiso   1.00
O648   O     0.46042   0.89345   0.25000   0.00000  Uiso   1.00
O649   O     0.53961   0.89346   0.25000   0.00000  Uiso   1.00
O650   O     0.44108   0.83332   0.32549   0.00000  Uiso   1.00
O651   O     0.52027   0.83333   0.32549   0.00000  Uiso   1.00
O652   O     0.46039   0.77321   0.24999   0.00000  Uiso   1.00
O653   O     0.53958   0.77322   0.24999   0.00000  Uiso   1.00
O654   O     0.47973   0.83334   0.17451   0.00000  Uiso   1.00
O655   O     0.55892   0.83335   0.17451   0.00000  Uiso   1.00
C656   C     0.38944   0.90270   0.20231   0.00000  Uiso   1.00
C657   C     0.38402   0.94067   0.22809   0.00000  Uiso   1.00
C658   C     0.40439   0.97680   0.20090   0.00000  Uiso   1.00
C659   C     0.42992   0.97530   0.14787   0.00000  Uiso   1.00
C660   C     0.43296   0.93810   0.12143   0.00000  Uiso   1.00
C661   C     0.41130   0.90239   0.14839   0.00000  Uiso   1.00
H662   H     0.36382   0.94231   0.26896   0.00000  Uiso   1.00
H663   H     0.40031   0.67262   0.22090   0.00000  Uiso   1.00
H664   H     0.44602   0.66985   0.12696   0.00000  Uiso   1.00
H665   H     0.45057   0.93727   0.07979   0.00000  Uiso   1.00
H666   H     0.40885   0.87497   0.12735   0.00000  Uiso   1.00
C667   C     0.37714   0.86587   0.41121   0.00000  Uiso   1.00
C668   C     0.34041   0.84330   0.39948   0.00000  Uiso   1.00
C669   C     0.64024   0.86365   0.37832   0.00000  Uiso   1.00
C670   C     0.64298   0.90650   0.36920   0.00000  Uiso   1.00
C671   C     0.34592   0.92916   0.38124   0.00000  Uiso   1.00
C672   C     0.37964   0.90894   0.40216   0.00000  Uiso   1.00
H673   H     0.33796   0.81010   0.40659   0.00000  Uiso   1.00
H674   H     0.61211   0.84629   0.36894   0.00000  Uiso   1.00
H675   H     0.61702   0.92213   0.35278   0.00000  Uiso   1.00
H676   H     0.34788   0.96239   0.37436   0.00000  Uiso   1.00
H677   H     0.40740   0.92682   0.41173   0.00000  Uiso   1.00
C678   C     0.57297   0.96032   0.16429   0.00000  Uiso   1.00
C679   C     0.55734   0.93352   0.13187   0.00000  Uiso   1.00
C680   C     0.58973   0.92005   0.08517   0.00000  Uiso   1.00
C681   C     0.63799   0.93310   0.07037   0.00000  Uiso   1.00
C682   C     0.65402   0.95947   0.10237   0.00000  Uiso   1.00
C683   C     0.62194   0.97277   0.14929   0.00000  Uiso   1.00
H684   H     0.51979   0.92410   0.14175   0.00000  Uiso   1.00
H685   H     0.57715   0.90035   0.05973   0.00000  Uiso   1.00
H686   H     0.66274   0.92344   0.03368   0.00000  Uiso   1.00
H687   H     0.35768   0.97049   0.09007   0.00000  Uiso   1.00
H688   H     0.63499   0.99369   0.17318   0.00000  Uiso   1.00
C689   C     0.83354   0.91254   0.24868   0.00000  Uiso   1.00
C690   C     0.81017   0.81967   0.49105   0.00000  Uiso   1.00
C691   C     0.82244   0.81326   0.43669   0.00000  Uiso   1.00
C692   C     0.84620   0.81355   0.01715   0.00000  Uiso   1.00
C693   C     0.89086   0.79409   0.49164   0.00000  Uiso   1.00
C694   C     0.89890   0.78077   0.44057   0.00000  Uiso   1.00
C695   C     0.86542   0.79051   0.41322   0.00000  Uiso   1.00
C696   C     0.83961   0.82828   0.06733   0.00000  Uiso   1.00
C697   C     0.91786   0.80162   0.06917   0.00000  Uiso   1.00
C698   C     0.79097   0.82938   0.40816   0.00000  Uiso   1.00
C699   C     0.87052   0.97974   0.20965   0.00000  Uiso   1.00
C700   C     0.80721   0.83187   0.35026   0.00000  Uiso   1.00
C701   C     0.87045   0.68950   0.21278   0.00000  Uiso   1.00
C702   C     0.83408   0.70965   0.25068   0.00000  Uiso   1.00
C703   C     0.79772   0.68740   0.28685   0.00000  Uiso   1.00
C704   C     0.79814   0.97787   0.28554   0.00000  Uiso   1.00
C705   C     0.83393   0.95728   0.24709   0.00000  Uiso   1.00
C706   C     0.97985   0.86546   0.22824   0.00000  Uiso   1.00
C707   C     0.69559   0.86605   0.22841   0.00000  Uiso   1.00
C708   C     0.68598   0.80113   0.27221   0.00000  Uiso   1.00
C709   C     0.96987   0.80115   0.27219   0.00000  Uiso   1.00
C710   C     0.83335   0.75417   0.25093   0.00000  Uiso   1.00
C711   C     0.85937   0.83076   0.15019   0.00000  Uiso   1.00
C712   C     0.92652   0.78826   0.01783   0.00000  Uiso   1.00
C713   C     0.87375   0.82136   0.09428   0.00000  Uiso   1.00
C714   C     0.74434   0.84512   0.43629   0.00000  Uiso   1.00
C715   C     0.72970   0.84348   0.49064   0.00000  Uiso   1.00
C716   C     0.76212   0.83148   0.01772   0.00000  Uiso   1.00
Cu717  Cu    0.78645   0.83333   0.25000   0.00000  Uiso   1.00
Cu718  Cu    0.88022   0.83334   0.25000   0.00000  Uiso   1.00
H719   H     0.94492   0.79567   0.08948   0.00000  Uiso   1.00
H720   H     0.89725   0.70773   0.18400   0.00000  Uiso   1.00
H721   H     0.76945   0.70318   0.31625   0.00000  Uiso   1.00
H722   H     0.77046   0.96066   0.31436   0.00000  Uiso   1.00
H723   H     0.96514   0.89085   0.21013   0.00000  Uiso   1.00
H724   H     0.69983   0.77538   0.29044   0.00000  Uiso   1.00
H725   H     0.94701   0.77535   0.29030   0.00000  Uiso   1.00
H726   H     0.93184   0.76398   0.42106   0.00000  Uiso   1.00
H727   H     0.96077   0.77310   0.49884   0.00000  Uiso   1.00
H728   H     0.80827   0.84627   0.08590   0.00000  Uiso   1.00
H729   H     0.74839   0.83071   0.05974   0.00000  Uiso   1.00
H730   H     0.69338   0.85330   0.01235   0.00000  Uiso   1.00
H731   H     0.87332   0.77903   0.37408   0.00000  Uiso   1.00
N732   N     0.71598   0.83332   0.24998   0.00000  Uiso   1.00
N733   N     0.95069   0.83335   0.24999   0.00000  Uiso   1.00
O734   O     0.79375   0.89345   0.25000   0.00000  Uiso   1.00
O735   O     0.87294   0.89346   0.25000   0.00000  Uiso   1.00
O736   O     0.77441   0.83332   0.32549   0.00000  Uiso   1.00
O737   O     0.85360   0.83333   0.32549   0.00000  Uiso   1.00
O738   O     0.79373   0.77321   0.24999   0.00000  Uiso   1.00
O739   O     0.87292   0.77322   0.24999   0.00000  Uiso   1.00
O740   O     0.81306   0.83334   0.17451   0.00000  Uiso   1.00
O741   O     0.89225   0.83335   0.17451   0.00000  Uiso   1.00
C742   C     0.72277   0.90270   0.20231   0.00000  Uiso   1.00
C743   C     0.71736   0.94067   0.22809   0.00000  Uiso   1.00
C744   C     0.73772   0.97680   0.20090   0.00000  Uiso   1.00
C745   C     0.76326   0.97530   0.14787   0.00000  Uiso   1.00
C746   C     0.76629   0.93810   0.12143   0.00000  Uiso   1.00
C747   C     0.74463   0.90239   0.14839   0.00000  Uiso   1.00
H748   H     0.69716   0.94231   0.26896   0.00000  Uiso   1.00
H749   H     0.73364   0.67262   0.22090   0.00000  Uiso   1.00
H750   H     0.77935   0.66985   0.12696   0.00000  Uiso   1.00
H751   H     0.78391   0.93727   0.07979   0.00000  Uiso   1.00
H752   H     0.74218   0.87497   0.12735   0.00000  Uiso   1.00
C753   C     0.71047   0.86587   0.41121   0.00000  Uiso   1.00
C754   C     0.67375   0.84330   0.39948   0.00000  Uiso   1.00
C755   C     0.97357   0.86365   0.37832   0.00000  Uiso   1.00
C756   C     0.97631   0.90650   0.36920   0.00000  Uiso   1.00
C757   C     0.67925   0.92916   0.38124   0.00000  Uiso   1.00
C758   C     0.71298   0.90894   0.40216   0.00000  Uiso   1.00
H759   H     0.67129   0.81010   0.40659   0.00000  Uiso   1.00
H760   H     0.94544   0.84629   0.36894   0.00000  Uiso   1.00
H761   H     0.95035   0.92213   0.35278   0.00000  Uiso   1.00
H762   H     0.68121   0.96239   0.37436   0.00000  Uiso   1.00
H763   H     0.74073   0.92682   0.41173   0.00000  Uiso   1.00
C764   C     0.90630   0.96032   0.16429   0.00000  Uiso   1.00
C765   C     0.89067   0.93352   0.13187   0.00000  Uiso   1.00
C766   C     0.92306   0.92005   0.08517   0.00000  Uiso   1.00
C767   C     0.97132   0.93310   0.07037   0.00000  Uiso   1.00
C768   C     0.98735   0.95947   0.10237   0.00000  Uiso   1.00
C769   C     0.95527   0.97277   0.14929   0.00000  Uiso   1.00
H770   H     0.85313   0.92410   0.14175   0.00000  Uiso   1.00
H771   H     0.91049   0.90035   0.05973   0.00000  Uiso   1.00
H772   H     0.99607   0.92344   0.03368   0.00000  Uiso   1.00
H773   H     0.69101   0.97049   0.09007   0.00000  Uiso   1.00
H774   H     0.96832   0.99369   0.17318   0.00000  Uiso   1.00
C775   C     0.16687   0.24587   0.74868   0.00000  Uiso   1.00
C776   C     0.14350   0.15301   0.99105   0.00000  Uiso   1.00
C777   C     0.15578   0.14659   0.93669   0.00000  Uiso   1.00
C778   C     0.17954   0.14688   0.51715   0.00000  Uiso   1.00
C779   C     0.22419   0.12742   0.99164   0.00000  Uiso   1.00
C780   C     0.23224   0.11411   0.94057   0.00000  Uiso   1.00
C781   C     0.19876   0.12384   0.91322   0.00000  Uiso   1.00
C782   C     0.17294   0.16161   0.56733   0.00000  Uiso   1.00
C783   C     0.25119   0.13495   0.56917   0.00000  Uiso   1.00
C784   C     0.12431   0.16271   0.90816   0.00000  Uiso   1.00
C785   C     0.20385   0.31307   0.70965   0.00000  Uiso   1.00
C786   C     0.14054   0.16521   0.85026   0.00000  Uiso   1.00
C787   C     0.20379   0.02284   0.71278   0.00000  Uiso   1.00
C788   C     0.16742   0.04298   0.75068   0.00000  Uiso   1.00
C789   C     0.13105   0.02073   0.78685   0.00000  Uiso   1.00
C790   C     0.13148   0.31120   0.78554   0.00000  Uiso   1.00
C791   C     0.16726   0.29061   0.74709   0.00000  Uiso   1.00
C792   C     0.31318   0.19880   0.72824   0.00000  Uiso   1.00
C793   C     0.02892   0.19938   0.72841   0.00000  Uiso   1.00
C794   C     0.01931   0.13446   0.77221   0.00000  Uiso   1.00
C795   C     0.30320   0.13448   0.77219   0.00000  Uiso   1.00
C796   C     0.16668   0.08750   0.75093   0.00000  Uiso   1.00
C797   C     0.19270   0.16409   0.65019   0.00000  Uiso   1.00
C798   C     0.25985   0.12159   0.51783   0.00000  Uiso   1.00
C799   C     0.20708   0.15470   0.59428   0.00000  Uiso   1.00
C800   C     0.07767   0.17846   0.93629   0.00000  Uiso   1.00
C801   C     0.06304   0.17682   0.99064   0.00000  Uiso   1.00
C802   C     0.09545   0.16481   0.51772   0.00000  Uiso   1.00
Cu803  Cu    0.11978   0.16666   0.75000   0.00000  Uiso   1.00
Cu804  Cu    0.21355   0.16667   0.75000   0.00000  Uiso   1.00
H805   H     0.27826   0.12901   0.58948   0.00000  Uiso   1.00
H806   H     0.23058   0.04107   0.68400   0.00000  Uiso   1.00
H807   H     0.10279   0.03652   0.81625   0.00000  Uiso   1.00
H808   H     0.10380   0.29400   0.81436   0.00000  Uiso   1.00
H809   H     0.29847   0.22419   0.71013   0.00000  Uiso   1.00
H810   H     0.03317   0.10871   0.79044   0.00000  Uiso   1.00
H811   H     0.28035   0.10868   0.79030   0.00000  Uiso   1.00
H812   H     0.26518   0.09731   0.92106   0.00000  Uiso   1.00
H813   H     0.29410   0.10643   0.99884   0.00000  Uiso   1.00
H814   H     0.14160   0.17960   0.58590   0.00000  Uiso   1.00
H815   H     0.08173   0.16404   0.55974   0.00000  Uiso   1.00
H816   H     0.02671   0.18663   0.51235   0.00000  Uiso   1.00
H817   H     0.20665   0.11237   0.87408   0.00000  Uiso   1.00
N818   N     0.04931   0.16666   0.74998   0.00000  Uiso   1.00
N819   N     0.28402   0.16669   0.74999   0.00000  Uiso   1.00
O820   O     0.12708   0.22678   0.75000   0.00000  Uiso   1.00
O821   O     0.20627   0.22679   0.75000   0.00000  Uiso   1.00
O822   O     0.10775   0.16665   0.82549   0.00000  Uiso   1.00
O823   O     0.18694   0.16666   0.82549   0.00000  Uiso   1.00
O824   O     0.12706   0.10654   0.74999   0.00000  Uiso   1.00
O825   O     0.20625   0.10655   0.74999   0.00000  Uiso   1.00
O826   O     0.14640   0.16667   0.67451   0.00000  Uiso   1.00
O827   O     0.22559   0.16668   0.67451   0.00000  Uiso   1.00
C828   C     0.05610   0.23603   0.70231   0.00000  Uiso   1.00
C829   C     0.05069   0.27400   0.72809   0.00000  Uiso   1.00
C830   C     0.07106   0.31013   0.70090   0.00000  Uiso   1.00
C831   C     0.09659   0.30864   0.64787   0.00000  Uiso   1.00
C832   C     0.09962   0.27144   0.62143   0.00000  Uiso   1.00
C833   C     0.07796   0.23572   0.64839   0.00000  Uiso   1.00
H834   H     0.03049   0.27565   0.76896   0.00000  Uiso   1.00
H835   H     0.06697   0.00595   0.72090   0.00000  Uiso   1.00
H836   H     0.11268   0.00318   0.62696   0.00000  Uiso   1.00
H837   H     0.11724   0.27060   0.57979   0.00000  Uiso   1.00
H838   H     0.07551   0.20831   0.62735   0.00000  Uiso   1.00
C839   C     0.04380   0.19921   0.91121   0.00000  Uiso   1.00
C840   C     0.00708   0.17663   0.89948   0.00000  Uiso   1.00
C841   C     0.30691   0.19698   0.87832   0.00000  Uiso   1.00
C842   C     0.30965   0.23983   0.86920   0.00000  Uiso   1.00
C843   C     0.01258   0.26249   0.88124   0.00000  Uiso   1.00
C844   C     0.04631   0.24228   0.90216   0.00000  Uiso   1.00
H845   H     0.00462   0.14343   0.90659   0.00000  Uiso   1.00
H846   H     0.27878   0.17963   0.86894   0.00000  Uiso   1.00
H847   H     0.28369   0.25546   0.85278   0.00000  Uiso   1.00
H848   H     0.01455   0.29573   0.87436   0.00000  Uiso   1.00
H849   H     0.07406   0.26015   0.91173   0.00000  Uiso   1.00
C850   C     0.23964   0.29365   0.66429   0.00000  Uiso   1.00
C851   C     0.22400   0.26685   0.63187   0.00000  Uiso   1.00
C852   C     0.25640   0.25338   0.58517   0.00000  Uiso   1.00
C853   C     0.30465   0.26644   0.57037   0.00000  Uiso   1.00
C854   C     0.32068   0.29281   0.60237   0.00000  Uiso   1.00
C855   C     0.28861   0.30610   0.64929   0.00000  Uiso   1.00
H856   H     0.18646   0.25743   0.64175   0.00000  Uiso   1.00
H857   H     0.24382   0.23368   0.55973   0.00000  Uiso   1.00
H858   H     0.32940   0.25677   0.53368   0.00000  Uiso   1.00
H859   H     0.02434   0.30382   0.59007   0.00000  Uiso   1.00
H860   H     0.30165   0.32702   0.67318   0.00000  Uiso   1.00
C861   C     0.50021   0.24587   0.74868   0.00000  Uiso   1.00
C862   C     0.47684   0.15301   0.99105   0.00000  Uiso   1.00
C863   C     0.48911   0.14659   0.93669   0.00000  Uiso   1.00
C864   C     0.51287   0.14688   0.51715   0.00000  Uiso   1.00
C865   C     0.55752   0.12742   0.99164   0.00000  Uiso   1.00
C866   C     0.56557   0.11411   0.94057   0.00000  Uiso   1.00
C867   C     0.53209   0.12384   0.91322   0.00000  Uiso   1.00
C868   C     0.50627   0.16161   0.56733   0.00000  Uiso   1.00
C869   C     0.58453   0.13495   0.56917   0.00000  Uiso   1.00
C870   C     0.45764   0.16271   0.90816   0.00000  Uiso   1.00
C871   C     0.53718   0.31307   0.70965   0.00000  Uiso   1.00
C872   C     0.47388   0.16521   0.85026   0.00000  Uiso   1.00
C873   C     0.53712   0.02284   0.71278   0.00000  Uiso   1.00
C874   C     0.50075   0.04298   0.75068   0.00000  Uiso   1.00
C875   C     0.46438   0.02073   0.78685   0.00000  Uiso   1.00
C876   C     0.46481   0.31120   0.78554   0.00000  Uiso   1.00
C877   C     0.50059   0.29061   0.74709   0.00000  Uiso   1.00
C878   C     0.64652   0.19880   0.72824   0.00000  Uiso   1.00
C879   C     0.36226   0.19938   0.72841   0.00000  Uiso   1.00
C880   C     0.35264   0.13446   0.77221   0.00000  Uiso   1.00
C881   C     0.63654   0.13448   0.77219   0.00000  Uiso   1.00
C882   C     0.50002   0.08750   0.75093   0.00000  Uiso   1.00
C883   C     0.52603   0.16409   0.65019   0.00000  Uiso   1.00
C884   C     0.59319   0.12159   0.51783   0.00000  Uiso   1.00
C885   C     0.54041   0.15470   0.59428   0.00000  Uiso   1.00
C886   C     0.41100   0.17846   0.93629   0.00000  Uiso   1.00
C887   C     0.39637   0.17682   0.99064   0.00000  Uiso   1.00
C888   C     0.42879   0.16481   0.51772   0.00000  Uiso   1.00
Cu889  Cu    0.45311   0.16666   0.75000   0.00000  Uiso   1.00
Cu890  Cu    0.54689   0.16667   0.75000   0.00000  Uiso   1.00
H891   H     0.61159   0.12901   0.58948   0.00000  Uiso   1.00
H892   H     0.56391   0.04107   0.68400   0.00000  Uiso   1.00
H893   H     0.43612   0.03652   0.81625   0.00000  Uiso   1.00
H894   H     0.43713   0.29400   0.81436   0.00000  Uiso   1.00
H895   H     0.63180   0.22419   0.71013   0.00000  Uiso   1.00
H896   H     0.36650   0.10871   0.79044   0.00000  Uiso   1.00
H897   H     0.61368   0.10868   0.79030   0.00000  Uiso   1.00
H898   H     0.59851   0.09731   0.92106   0.00000  Uiso   1.00
H899   H     0.62744   0.10643   0.99884   0.00000  Uiso   1.00
H900   H     0.47493   0.17960   0.58590   0.00000  Uiso   1.00
H901   H     0.41506   0.16404   0.55974   0.00000  Uiso   1.00
H902   H     0.36005   0.18663   0.51235   0.00000  Uiso   1.00
H903   H     0.53999   0.11237   0.87408   0.00000  Uiso   1.00
N904   N     0.38265   0.16666   0.74998   0.00000  Uiso   1.00
N905   N     0.61735   0.16669   0.74999   0.00000  Uiso   1.00
O906   O     0.46042   0.22678   0.75000   0.00000  Uiso   1.00
O907   O     0.53961   0.22679   0.75000   0.00000  Uiso   1.00
O908   O     0.44108   0.16665   0.82549   0.00000  Uiso   1.00
O909   O     0.52027   0.16666   0.82549   0.00000  Uiso   1.00
O910   O     0.46039   0.10654   0.74999   0.00000  Uiso   1.00
O911   O     0.53958   0.10655   0.74999   0.00000  Uiso   1.00
O912   O     0.47973   0.16667   0.67451   0.00000  Uiso   1.00
O913   O     0.55892   0.16668   0.67451   0.00000  Uiso   1.00
C914   C     0.38944   0.23603   0.70231   0.00000  Uiso   1.00
C915   C     0.38402   0.27400   0.72809   0.00000  Uiso   1.00
C916   C     0.40439   0.31013   0.70090   0.00000  Uiso   1.00
C917   C     0.42992   0.30864   0.64787   0.00000  Uiso   1.00
C918   C     0.43296   0.27144   0.62143   0.00000  Uiso   1.00
C919   C     0.41130   0.23572   0.64839   0.00000  Uiso   1.00
H920   H     0.36382   0.27565   0.76896   0.00000  Uiso   1.00
H921   H     0.40031   0.00595   0.72090   0.00000  Uiso   1.00
H922   H     0.44602   0.00318   0.62696   0.00000  Uiso   1.00
H923   H     0.45057   0.27060   0.57979   0.00000  Uiso   1.00
H924   H     0.40885   0.20831   0.62735   0.00000  Uiso   1.00
C925   C     0.37714   0.19921   0.91121   0.00000  Uiso   1.00
C926   C     0.34041   0.17663   0.89948   0.00000  Uiso   1.00
C927   C     0.64024   0.19698   0.87832   0.00000  Uiso   1.00
C928   C     0.64298   0.23983   0.86920   0.00000  Uiso   1.00
C929   C     0.34592   0.26249   0.88124   0.00000  Uiso   1.00
C930   C     0.37964   0.24228   0.90216   0.00000  Uiso   1.00
H931   H     0.33796   0.14343   0.90659   0.00000  Uiso   1.00
H932   H     0.61211   0.17963   0.86894   0.00000  Uiso   1.00
H933   H     0.61702   0.25546   0.85278   0.00000  Uiso   1.00
H934   H     0.34788   0.29573   0.87436   0.00000  Uiso   1.00
H935   H     0.40740   0.26015   0.91173   0.00000  Uiso   1.00
C936   C     0.57297   0.29365   0.66429   0.00000  Uiso   1.00
C937   C     0.55734   0.26685   0.63187   0.00000  Uiso   1.00
C938   C     0.58973   0.25338   0.58517   0.00000  Uiso   1.00
C939   C     0.63799   0.26644   0.57037   0.00000  Uiso   1.00
C940   C     0.65402   0.29281   0.60237   0.00000  Uiso   1.00
C941   C     0.62194   0.30610   0.64929   0.00000  Uiso   1.00
H942   H     0.51979   0.25743   0.64175   0.00000  Uiso   1.00
H943   H     0.57715   0.23368   0.55973   0.00000  Uiso   1.00
H944   H     0.66274   0.25677   0.53368   0.00000  Uiso   1.00
H945   H     0.35768   0.30382   0.59007   0.00000  Uiso   1.00
H946   H     0.63499   0.32702   0.67318   0.00000  Uiso   1.00
C947   C     0.83354   0.24587   0.74868   0.00000  Uiso   1.00
C948   C     0.81017   0.15301   0.99105   0.00000  Uiso   1.00
C949   C     0.82244   0.14659   0.93669   0.00000  Uiso   1.00
C950   C     0.84620   0.14688   0.51715   0.00000  Uiso   1.00
C951   C     0.89086   0.12742   0.99164   0.00000  Uiso   1.00
C952   C     0.89890   0.11411   0.94057   0.00000  Uiso   1.00
C953   C     0.86542   0.12384   0.91322   0.00000  Uiso   1.00
C954   C     0.83961   0.16161   0.56733   0.00000  Uiso   1.00
C955   C     0.91786   0.13495   0.56917   0.00000  Uiso   1.00
C956   C     0.79097   0.16271   0.90816   0.00000  Uiso   1.00
C957   C     0.87052   0.31307   0.70965   0.00000  Uiso   1.00
C958   C     0.80721   0.16521   0.85026   0.00000  Uiso   1.00
C959   C     0.87045   0.02284   0.71278   0.00000  Uiso   1.00
C960   C     0.83408   0.04298   0.75068   0.00000  Uiso   1.00
C961   C     0.79772   0.02073   0.78685   0.00000  Uiso   1.00
C962   C     0.79814   0.31120   0.78554   0.00000  Uiso   1.00
C963   C     0.83393   0.29061   0.74709   0.00000  Uiso   1.00
C964   C     0.97985   0.19880   0.72824   0.00000  Uiso   1.00
C965   C     0.69559   0.19938   0.72841   0.00000  Uiso   1.00
C966   C     0.68598   0.13446   0.77221   0.00000  Uiso   1.00
C967   C     0.96987   0.13448   0.77219   0.00000  Uiso   1.00
C968   C     0.83335   0.08750   0.75093   0.00000  Uiso   1.00
C969   C     0.85937   0.16409   0.65019   0.00000  Uiso   1.00
C970   C     0.92652   0.12159   0.51783   0.00000  Uiso   1.00
C971   C     0.87375   0.15470   0.59428   0.00000  Uiso   1.00
C972   C     0.74434   0.17846   0.93629   0.00000  Uiso   1.00
C973   C     0.72970   0.17682   0.99064   0.00000  Uiso   1.00
C974   C     0.76212   0.16481   0.51772   0.00000  Uiso   1.00
Cu975  Cu    0.78645   0.16666   0.75000   0.00000  Uiso   1.00
Cu976  Cu    0.88022   0.16667   0.75000   0.00000  Uiso   1.00
H977   H     0.94492   0.12901   0.58948   0.00000  Uiso   1.00
H978   H     0.89725   0.04107   0.68400   0.00000  Uiso   1.00
H979   H     0.76945   0.03652   0.81625   0.00000  Uiso   1.00
H980   H     0.77046   0.29400   0.81436   0.00000  Uiso   1.00
H981   H     0.96514   0.22419   0.71013   0.00000  Uiso   1.00
H982   H     0.69983   0.10871   0.79044   0.00000  Uiso   1.00
H983   H     0.94701   0.10868   0.79030   0.00000  Uiso   1.00
H984   H     0.93184   0.09731   0.92106   0.00000  Uiso   1.00
H985   H     0.96077   0.10643   0.99884   0.00000  Uiso   1.00
H986   H     0.80827   0.17960   0.58590   0.00000  Uiso   1.00
H987   H     0.74839   0.16404   0.55974   0.00000  Uiso   1.00
H988   H     0.69338   0.18663   0.51235   0.00000  Uiso   1.00
H989   H     0.87332   0.11237   0.87408   0.00000  Uiso   1.00
N990   N     0.71598   0.16666   0.74998   0.00000  Uiso   1.00
N991   N     0.95069   0.16669   0.74999   0.00000  Uiso   1.00
O992   O     0.79375   0.22678   0.75000   0.00000  Uiso   1.00
O993   O     0.87294   0.22679   0.75000   0.00000  Uiso   1.00
O994   O     0.77441   0.16665   0.82549   0.00000  Uiso   1.00
O995   O     0.85360   0.16666   0.82549   0.00000  Uiso   1.00
O996   O     0.79373   0.10654   0.74999   0.00000  Uiso   1.00
O997   O     0.87292   0.10655   0.74999   0.00000  Uiso   1.00
O998   O     0.81306   0.16667   0.67451   0.00000  Uiso   1.00
O999   O     0.89225   0.16668   0.67451   0.00000  Uiso   1.00
C1000  C     0.72277   0.23603   0.70231   0.00000  Uiso   1.00
C1001  C     0.71736   0.27400   0.72809   0.00000  Uiso   1.00
C1002  C     0.73772   0.31013   0.70090   0.00000  Uiso   1.00
C1003  C     0.76326   0.30864   0.64787   0.00000  Uiso   1.00
C1004  C     0.76629   0.27144   0.62143   0.00000  Uiso   1.00
C1005  C     0.74463   0.23572   0.64839   0.00000  Uiso   1.00
H1006  H     0.69716   0.27565   0.76896   0.00000  Uiso   1.00
H1007  H     0.73364   0.00595   0.72090   0.00000  Uiso   1.00
H1008  H     0.77935   0.00318   0.62696   0.00000  Uiso   1.00
H1009  H     0.78391   0.27060   0.57979   0.00000  Uiso   1.00
H1010  H     0.74218   0.20831   0.62735   0.00000  Uiso   1.00
C1011  C     0.71047   0.19921   0.91121   0.00000  Uiso   1.00
C1012  C     0.67375   0.17663   0.89948   0.00000  Uiso   1.00
C1013  C     0.97357   0.19698   0.87832   0.00000  Uiso   1.00
C1014  C     0.97631   0.23983   0.86920   0.00000  Uiso   1.00
C1015  C     0.67925   0.26249   0.88124   0.00000  Uiso   1.00
C1016  C     0.71298   0.24228   0.90216   0.00000  Uiso   1.00
H1017  H     0.67129   0.14343   0.90659   0.00000  Uiso   1.00
H1018  H     0.94544   0.17963   0.86894   0.00000  Uiso   1.00
H1019  H     0.95035   0.25546   0.85278   0.00000  Uiso   1.00
H1020  H     0.68121   0.29573   0.87436   0.00000  Uiso   1.00
H1021  H     0.74073   0.26015   0.91173   0.00000  Uiso   1.00
C1022  C     0.90630   0.29365   0.66429   0.00000  Uiso   1.00
C1023  C     0.89067   0.26685   0.63187   0.00000  Uiso   1.00
C1024  C     0.92306   0.25338   0.58517   0.00000  Uiso   1.00
C1025  C     0.97132   0.26644   0.57037   0.00000  Uiso   1.00
C1026  C     0.98735   0.29281   0.60237   0.00000  Uiso   1.00
C1027  C     0.95527   0.30610   0.64929   0.00000  Uiso   1.00
H1028  H     0.85313   0.25743   0.64175   0.00000  Uiso   1.00
H1029  H     0.91049   0.23368   0.55973   0.00000  Uiso   1.00
H1030  H     0.99607   0.25677   0.53368   0.00000  Uiso   1.00
H1031  H     0.69101   0.30382   0.59007   0.00000  Uiso   1.00
H1032  H     0.96832   0.32702   0.67318   0.00000  Uiso   1.00
C1033  C     0.16687   0.57920   0.74868   0.00000  Uiso   1.00
C1034  C     0.14350   0.48634   0.99105   0.00000  Uiso   1.00
C1035  C     0.15578   0.47992   0.93669   0.00000  Uiso   1.00
C1036  C     0.17954   0.48022   0.51715   0.00000  Uiso   1.00
C1037  C     0.22419   0.46075   0.99164   0.00000  Uiso   1.00
C1038  C     0.23224   0.44744   0.94057   0.00000  Uiso   1.00
C1039  C     0.19876   0.45717   0.91322   0.00000  Uiso   1.00
C1040  C     0.17294   0.49494   0.56733   0.00000  Uiso   1.00
C1041  C     0.25119   0.46829   0.56917   0.00000  Uiso   1.00
C1042  C     0.12431   0.49604   0.90816   0.00000  Uiso   1.00
C1043  C     0.20385   0.64641   0.70965   0.00000  Uiso   1.00
C1044  C     0.14054   0.49854   0.85026   0.00000  Uiso   1.00
C1045  C     0.20379   0.35617   0.71278   0.00000  Uiso   1.00
C1046  C     0.16742   0.37631   0.75068   0.00000  Uiso   1.00
C1047  C     0.13105   0.35407   0.78685   0.00000  Uiso   1.00
C1048  C     0.13148   0.64454   0.78554   0.00000  Uiso   1.00
C1049  C     0.16726   0.62395   0.74709   0.00000  Uiso   1.00
C1050  C     0.31318   0.53213   0.72824   0.00000  Uiso   1.00
C1051  C     0.02892   0.53272   0.72841   0.00000  Uiso   1.00
C1052  C     0.01931   0.46780   0.77221   0.00000  Uiso   1.00
C1053  C     0.30320   0.46782   0.77219   0.00000  Uiso   1.00
C1054  C     0.16668   0.42084   0.75093   0.00000  Uiso   1.00
C1055  C     0.19270   0.49743   0.65019   0.00000  Uiso   1.00
C1056  C     0.25985   0.45493   0.51783   0.00000  Uiso   1.00
C1057  C     0.20708   0.48803   0.59428   0.00000  Uiso   1.00
C1058  C     0.07767   0.51179   0.93629   0.00000  Uiso   1.00
C1059  C     0.06304   0.51015   0.99064   0.00000  Uiso   1.00
C1060  C     0.09545   0.49815   0.51772   0.00000  Uiso   1.00
Cu1061 Cu    0.11978   0.49999   0.75000   0.00000  Uiso   1.00
Cu1062 Cu    0.21355   0.50001   0.75000   0.00000  Uiso   1.00
H1063  H     0.27826   0.46234   0.58948   0.00000  Uiso   1.00
H1064  H     0.23058   0.37440   0.68400   0.00000  Uiso   1.00
H1065  H     0.10279   0.36985   0.81625   0.00000  Uiso   1.00
H1066  H     0.10380   0.62733   0.81436   0.00000  Uiso   1.00
H1067  H     0.29847   0.55752   0.71013   0.00000  Uiso   1.00
H1068  H     0.03317   0.44204   0.79044   0.00000  Uiso   1.00
H1069  H     0.28035   0.44202   0.79030   0.00000  Uiso   1.00
H1070  H     0.26518   0.43064   0.92106   0.00000  Uiso   1.00
H1071  H     0.29410   0.43976   0.99884   0.00000  Uiso   1.00
H1072  H     0.14160   0.51293   0.58590   0.00000  Uiso   1.00
H1073  H     0.08173   0.49738   0.55974   0.00000  Uiso   1.00
H1074  H     0.02671   0.51996   0.51235   0.00000  Uiso   1.00
H1075  H     0.20665   0.44570   0.87408   0.00000  Uiso   1.00
N1076  N     0.04931   0.49999   0.74998   0.00000  Uiso   1.00
N1077  N     0.28402   0.50002   0.74999   0.00000  Uiso   1.00
O1078  O     0.12708   0.56011   0.75000   0.00000  Uiso   1.00
O1079  O     0.20627   0.56012   0.75000   0.00000  Uiso   1.00
O1080  O     0.10775   0.49998   0.82549   0.00000  Uiso   1.00
O1081  O     0.18694   0.49999   0.82549   0.00000  Uiso   1.00
O1082  O     0.12706   0.43988   0.74999   0.00000  Uiso   1.00
O1083  O     0.20625   0.43989   0.74999   0.00000  Uiso   1.00
O1084  O     0.14640   0.50001   0.67451   0.00000  Uiso   1.00
O1085  O     0.22559   0.50002   0.67451   0.00000  Uiso   1.00
C1086  C     0.05610   0.56936   0.70231   0.00000  Uiso   1.00
C1087  C     0.05069   0.60733   0.72809   0.00000  Uiso   1.00
C1088  C     0.07106   0.64346   0.70090   0.00000  Uiso   1.00
C1089  C     0.09659   0.64197   0.64787   0.00000  Uiso   1.00
C1090  C     0.09962   0.60477   0.62143   0.00000  Uiso   1.00
C1091  C     0.07796   0.56906   0.64839   0.00000  Uiso   1.00
H1092  H     0.03049   0.60898   0.76896   0.00000  Uiso   1.00
H1093  H     0.06697   0.33928   0.72090   0.00000  Uiso   1.00
H1094  H     0.11268   0.33651   0.62696   0.00000  Uiso   1.00
H1095  H     0.11724   0.60394   0.57979   0.00000  Uiso   1.00
H1096  H     0.07551   0.54164   0.62735   0.00000  Uiso   1.00
C1097  C     0.04380   0.53254   0.91121   0.00000  Uiso   1.00
C1098  C     0.00708   0.50997   0.89948   0.00000  Uiso   1.00
C1099  C     0.30691   0.53031   0.87832   0.00000  Uiso   1.00
C1100  C     0.30965   0.57317   0.86920   0.00000  Uiso   1.00
C1101  C     0.01258   0.59583   0.88124   0.00000  Uiso   1.00
C1102  C     0.04631   0.57561   0.90216   0.00000  Uiso   1.00
H1103  H     0.00462   0.47676   0.90659   0.00000  Uiso   1.00
H1104  H     0.27878   0.51296   0.86894   0.00000  Uiso   1.00
H1105  H     0.28369   0.58880   0.85278   0.00000  Uiso   1.00
H1106  H     0.01455   0.62906   0.87436   0.00000  Uiso   1.00
H1107  H     0.07406   0.59349   0.91173   0.00000  Uiso   1.00
C1108  C     0.23964   0.62699   0.66429   0.00000  Uiso   1.00
C1109  C     0.22400   0.60018   0.63187   0.00000  Uiso   1.00
C1110  C     0.25640   0.58672   0.58517   0.00000  Uiso   1.00
C1111  C     0.30465   0.59977   0.57037   0.00000  Uiso   1.00
C1112  C     0.32068   0.62614   0.60237   0.00000  Uiso   1.00
C1113  C     0.28861   0.63944   0.64929   0.00000  Uiso   1.00
H1114  H     0.18646   0.59076   0.64175   0.00000  Uiso   1.00
H1115  H     0.24382   0.56702   0.55973   0.00000  Uiso   1.00
H1116  H     0.32940   0.59011   0.53368   0.00000  Uiso   1.00
H1117  H     0.02434   0.63716   0.59007   0.00000  Uiso   1.00
H1118  H     0.30165   0.66036   0.67318   0.00000  Uiso   1.00
C1119  C     0.50021   0.57920   0.74868   0.00000  Uiso   1.00
C1120  C     0.47684   0.48634   0.99105   0.00000  Uiso   1.00
C1121  C     0.48911   0.47992   0.93669   0.00000  Uiso   1.00
C1122  C     0.51287   0.48022   0.51715   0.00000  Uiso   1.00
C1123  C     0.55752   0.46075   0.99164   0.00000  Uiso   1.00
C1124  C     0.56557   0.44744   0.94057   0.00000  Uiso   1.00
C1125  C     0.53209   0.45717   0.91322   0.00000  Uiso   1.00
C1126  C     0.50627   0.49494   0.56733   0.00000  Uiso   1.00
C1127  C     0.58453   0.46829   0.56917   0.00000  Uiso   1.00
C1128  C     0.45764   0.49604   0.90816   0.00000  Uiso   1.00
C1129  C     0.53718   0.64641   0.70965   0.00000  Uiso   1.00
C1130  C     0.47388   0.49854   0.85026   0.00000  Uiso   1.00
C1131  C     0.53712   0.35617   0.71278   0.00000  Uiso   1.00
C1132  C     0.50075   0.37631   0.75068   0.00000  Uiso   1.00
C1133  C     0.46438   0.35407   0.78685   0.00000  Uiso   1.00
C1134  C     0.46481   0.64454   0.78554   0.00000  Uiso   1.00
C1135  C     0.50059   0.62395   0.74709   0.00000  Uiso   1.00
C1136  C     0.64652   0.53213   0.72824   0.00000  Uiso   1.00
C1137  C     0.36226   0.53272   0.72841   0.00000  Uiso   1.00
C1138  C     0.35264   0.46780   0.77221   0.00000  Uiso   1.00
C1139  C     0.63654   0.46782   0.77219   0.00000  Uiso   1.00
C1140  C     0.50002   0.42084   0.75093   0.00000  Uiso   1.00
C1141  C     0.52603   0.49743   0.65019   0.00000  Uiso   1.00
C1142  C     0.59319   0.45493   0.51783   0.00000  Uiso   1.00
C1143  C     0.54041   0.48803   0.59428   0.00000  Uiso   1.00
C1144  C     0.41100   0.51179   0.93629   0.00000  Uiso   1.00
C1145  C     0.39637   0.51015   0.99064   0.00000  Uiso   1.00
C1146  C     0.42879   0.49815   0.51772   0.00000  Uiso   1.00
Cu1147 Cu    0.45311   0.49999   0.75000   0.00000  Uiso   1.00
Cu1148 Cu    0.54689   0.50001   0.75000   0.00000  Uiso   1.00
H1149  H     0.61159   0.46234   0.58948   0.00000  Uiso   1.00
H1150  H     0.56391   0.37440   0.68400   0.00000  Uiso   1.00
H1151  H     0.43612   0.36985   0.81625   0.00000  Uiso   1.00
H1152  H     0.43713   0.62733   0.81436   0.00000  Uiso   1.00
H1153  H     0.63180   0.55752   0.71013   0.00000  Uiso   1.00
H1154  H     0.36650   0.44204   0.79044   0.00000  Uiso   1.00
H1155  H     0.61368   0.44202   0.79030   0.00000  Uiso   1.00
H1156  H     0.59851   0.43064   0.92106   0.00000  Uiso   1.00
H1157  H     0.62744   0.43976   0.99884   0.00000  Uiso   1.00
H1158  H     0.47493   0.51293   0.58590   0.00000  Uiso   1.00
H1159  H     0.41506   0.49738   0.55974   0.00000  Uiso   1.00
H1160  H     0.36005   0.51996   0.51235   0.00000  Uiso   1.00
H1161  H     0.53999   0.44570   0.87408   0.00000  Uiso   1.00
N1162  N     0.38265   0.49999   0.74998   0.00000  Uiso   1.00
N1163  N     0.61735   0.50002   0.74999   0.00000  Uiso   1.00
O1164  O     0.46042   0.56011   0.75000   0.00000  Uiso   1.00
O1165  O     0.53961   0.56012   0.75000   0.00000  Uiso   1.00
O1166  O     0.44108   0.49998   0.82549   0.00000  Uiso   1.00
O1167  O     0.52027   0.49999   0.82549   0.00000  Uiso   1.00
O1168  O     0.46039   0.43988   0.74999   0.00000  Uiso   1.00
O1169  O     0.53958   0.43989   0.74999   0.00000  Uiso   1.00
O1170  O     0.47973   0.50001   0.67451   0.00000  Uiso   1.00
O1171  O     0.55892   0.50002   0.67451   0.00000  Uiso   1.00
C1172  C     0.38944   0.56936   0.70231   0.00000  Uiso   1.00
C1173  C     0.38402   0.60733   0.72809   0.00000  Uiso   1.00
C1174  C     0.40439   0.64346   0.70090   0.00000  Uiso   1.00
C1175  C     0.42992   0.64197   0.64787   0.00000  Uiso   1.00
C1176  C     0.43296   0.60477   0.62143   0.00000  Uiso   1.00
C1177  C     0.41130   0.56906   0.64839   0.00000  Uiso   1.00
H1178  H     0.36382   0.60898   0.76896   0.00000  Uiso   1.00
H1179  H     0.40031   0.33928   0.72090   0.00000  Uiso   1.00
H1180  H     0.44602   0.33651   0.62696   0.00000  Uiso   1.00
H1181  H     0.45057   0.60394   0.57979   0.00000  Uiso   1.00
H1182  H     0.40885   0.54164   0.62735   0.00000  Uiso   1.00
C1183  C     0.37714   0.53254   0.91121   0.00000  Uiso   1.00
C1184  C     0.34041   0.50997   0.89948   0.00000  Uiso   1.00
C1185  C     0.64024   0.53031   0.87832   0.00000  Uiso   1.00
C1186  C     0.64298   0.57317   0.86920   0.00000  Uiso   1.00
C1187  C     0.34592   0.59583   0.88124   0.00000  Uiso   1.00
C1188  C     0.37964   0.57561   0.90216   0.00000  Uiso   1.00
H1189  H     0.33796   0.47676   0.90659   0.00000  Uiso   1.00
H1190  H     0.61211   0.51296   0.86894   0.00000  Uiso   1.00
H1191  H     0.61702   0.58880   0.85278   0.00000  Uiso   1.00
H1192  H     0.34788   0.62906   0.87436   0.00000  Uiso   1.00
H1193  H     0.40740   0.59349   0.91173   0.00000  Uiso   1.00
C1194  C     0.57297   0.62699   0.66429   0.00000  Uiso   1.00
C1195  C     0.55734   0.60018   0.63187   0.00000  Uiso   1.00
C1196  C     0.58973   0.58672   0.58517   0.00000  Uiso   1.00
C1197  C     0.63799   0.59977   0.57037   0.00000  Uiso   1.00
C1198  C     0.65402   0.62614   0.60237   0.00000  Uiso   1.00
C1199  C     0.62194   0.63944   0.64929   0.00000  Uiso   1.00
H1200  H     0.51979   0.59076   0.64175   0.00000  Uiso   1.00
H1201  H     0.57715   0.56702   0.55973   0.00000  Uiso   1.00
H1202  H     0.66274   0.59011   0.53368   0.00000  Uiso   1.00
H1203  H     0.35768   0.63716   0.59007   0.00000  Uiso   1.00
H1204  H     0.63499   0.66036   0.67318   0.00000  Uiso   1.00
C1205  C     0.83354   0.57920   0.74868   0.00000  Uiso   1.00
C1206  C     0.81017   0.48634   0.99105   0.00000  Uiso   1.00
C1207  C     0.82244   0.47992   0.93669   0.00000  Uiso   1.00
C1208  C     0.84620   0.48022   0.51715   0.00000  Uiso   1.00
C1209  C     0.89086   0.46075   0.99164   0.00000  Uiso   1.00
C1210  C     0.89890   0.44744   0.94057   0.00000  Uiso   1.00
C1211  C     0.86542   0.45717   0.91322   0.00000  Uiso   1.00
C1212  C     0.83961   0.49494   0.56733   0.00000  Uiso   1.00
C1213  C     0.91786   0.46829   0.56917   0.00000  Uiso   1.00
C1214  C     0.79097   0.49604   0.90816   0.00000  Uiso   1.00
C1215  C     0.87052   0.64641   0.70965   0.00000  Uiso   1.00
C1216  C     0.80721   0.49854   0.85026   0.00000  Uiso   1.00
C1217  C     0.87045   0.35617   0.71278   0.00000  Uiso   1.00
C1218  C     0.83408   0.37631   0.75068   0.00000  Uiso   1.00
C1219  C     0.79772   0.35407   0.78685   0.00000  Uiso   1.00
C1220  C     0.79814   0.64454   0.78554   0.00000  Uiso   1.00
C1221  C     0.83393   0.62395   0.74709   0.00000  Uiso   1.00
C1222  C     0.97985   0.53213   0.72824   0.00000  Uiso   1.00
C1223  C     0.69559   0.53272   0.72841   0.00000  Uiso   1.00
C1224  C     0.68598   0.46780   0.77221   0.00000  Uiso   1.00
C1225  C     0.96987   0.46782   0.77219   0.00000  Uiso   1.00
C1226  C     0.83335   0.42084   0.75093   0.00000  Uiso   1.00
C1227  C     0.85937   0.49743   0.65019   0.00000  Uiso   1.00
C1228  C     0.92652   0.45493   0.51783   0.00000  Uiso   1.00
C1229  C     0.87375   0.48803   0.59428   0.00000  Uiso   1.00
C1230  C     0.74434   0.51179   0.93629   0.00000  Uiso   1.00
C1231  C     0.72970   0.51015   0.99064   0.00000  Uiso   1.00
C1232  C     0.76212   0.49815   0.51772   0.00000  Uiso   1.00
Cu1233 Cu    0.78645   0.49999   0.75000   0.00000  Uiso   1.00
Cu1234 Cu    0.88022   0.50001   0.75000   0.00000  Uiso   1.00
H1235  H     0.94492   0.46234   0.58948   0.00000  Uiso   1.00
H1236  H     0.89725   0.37440   0.68400   0.00000  Uiso   1.00
H1237  H     0.76945   0.36985   0.81625   0.00000  Uiso   1.00
H1238  H     0.77046   0.62733   0.81436   0.00000  Uiso   1.00
H1239  H     0.96514   0.55752   0.71013   0.00000  Uiso   1.00
H1240  H     0.69983   0.44204   0.79044   0.00000  Uiso   1.00
H1241  H     0.94701   0.44202   0.79030   0.00000  Uiso   1.00
H1242  H     0.93184   0.43064   0.92106   0.00000  Uiso   1.00
H1243  H     0.96077   0.43976   0.99884   0.00000  Uiso   1.00
H1244  H     0.80827   0.51293   0.58590   0.00000  Uiso   1.00
H1245  H     0.74839   0.49738   0.55974   0.00000  Uiso   1.00
H1246  H     0.69338   0.51996   0.51235   0.00000  Uiso   1.00
H1247  H     0.87332   0.44570   0.87408   0.00000  Uiso   1.00
N1248  N     0.71598   0.49999   0.74998   0.00000  Uiso   1.00
N1249  N     0.95069   0.50002   0.74999   0.00000  Uiso   1.00
O1250  O     0.79375   0.56011   0.75000   0.00000  Uiso   1.00
O1251  O     0.87294   0.56012   0.75000   0.00000  Uiso   1.00
O1252  O     0.77441   0.49998   0.82549   0.00000  Uiso   1.00
O1253  O     0.85360   0.49999   0.82549   0.00000  Uiso   1.00
O1254  O     0.79373   0.43988   0.74999   0.00000  Uiso   1.00
O1255  O     0.87292   0.43989   0.74999   0.00000  Uiso   1.00
O1256  O     0.81306   0.50001   0.67451   0.00000  Uiso   1.00
O1257  O     0.89225   0.50002   0.67451   0.00000  Uiso   1.00
C1258  C     0.72277   0.56936   0.70231   0.00000  Uiso   1.00
C1259  C     0.71736   0.60733   0.72809   0.00000  Uiso   1.00
C1260  C     0.73772   0.64346   0.70090   0.00000  Uiso   1.00
C1261  C     0.76326   0.64197   0.64787   0.00000  Uiso   1.00
C1262  C     0.76629   0.60477   0.62143   0.00000  Uiso   1.00
C1263  C     0.74463   0.56906   0.64839   0.00000  Uiso   1.00
H1264  H     0.69716   0.60898   0.76896   0.00000  Uiso   1.00
H1265  H     0.73364   0.33928   0.72090   0.00000  Uiso   1.00
H1266  H     0.77935   0.33651   0.62696   0.00000  Uiso   1.00
H1267  H     0.78391   0.60394   0.57979   0.00000  Uiso   1.00
H1268  H     0.74218   0.54164   0.62735   0.00000  Uiso   1.00
C1269  C     0.71047   0.53254   0.91121   0.00000  Uiso   1.00
C1270  C     0.67375   0.50997   0.89948   0.00000  Uiso   1.00
C1271  C     0.97357   0.53031   0.87832   0.00000  Uiso   1.00
C1272  C     0.97631   0.57317   0.86920   0.00000  Uiso   1.00
C1273  C     0.67925   0.59583   0.88124   0.00000  Uiso   1.00
C1274  C     0.71298   0.57561   0.90216   0.00000  Uiso   1.00
H1275  H     0.67129   0.47676   0.90659   0.00000  Uiso   1.00
H1276  H     0.94544   0.51296   0.86894   0.00000  Uiso   1.00
H1277  H     0.95035   0.58880   0.85278   0.00000  Uiso   1.00
H1278  H     0.68121   0.62906   0.87436   0.00000  Uiso   1.00
H1279  H     0.74073   0.59349   0.91173   0.00000  Uiso   1.00
C1280  C     0.90630   0.62699   0.66429   0.00000  Uiso   1.00
C1281  C     0.89067   0.60018   0.63187   0.00000  Uiso   1.00
C1282  C     0.92306   0.58672   0.58517   0.00000  Uiso   1.00
C1283  C     0.97132   0.59977   0.57037   0.00000  Uiso   1.00
C1284  C     0.98735   0.62614   0.60237   0.00000  Uiso   1.00
C1285  C     0.95527   0.63944   0.64929   0.00000  Uiso   1.00
H1286  H     0.85313   0.59076   0.64175   0.00000  Uiso   1.00
H1287  H     0.91049   0.56702   0.55973   0.00000  Uiso   1.00
H1288  H     0.99607   0.59011   0.53368   0.00000  Uiso   1.00
H1289  H     0.69101   0.63716   0.59007   0.00000  Uiso   1.00
H1290  H     0.96832   0.66036   0.67318   0.00000  Uiso   1.00
C1291  C     0.16687   0.91254   0.74868   0.00000  Uiso   1.00
C1292  C     0.14350   0.81967   0.99105   0.00000  Uiso   1.00
C1293  C     0.15578   0.81326   0.93669   0.00000  Uiso   1.00
C1294  C     0.17954   0.81355   0.51715   0.00000  Uiso   1.00
C1295  C     0.22419   0.79409   0.99164   0.00000  Uiso   1.00
C1296  C     0.23224   0.78077   0.94057   0.00000  Uiso   1.00
C1297  C     0.19876   0.79051   0.91322   0.00000  Uiso   1.00
C1298  C     0.17294   0.82828   0.56733   0.00000  Uiso   1.00
C1299  C     0.25119   0.80162   0.56917   0.00000  Uiso   1.00
C1300  C     0.12431   0.82938   0.90816   0.00000  Uiso   1.00
C1301  C     0.20385   0.97974   0.70965   0.00000  Uiso   1.00
C1302  C     0.14054   0.83187   0.85026   0.00000  Uiso   1.00
C1303  C     0.20379   0.68950   0.71278   0.00000  Uiso   1.00
C1304  C     0.16742   0.70965   0.75068   0.00000  Uiso   1.00
C1305  C     0.13105   0.68740   0.78685   0.00000  Uiso   1.00
C1306  C     0.13148   0.97787   0.78554   0.00000  Uiso   1.00
C1307  C     0.16726   0.95728   0.74709   0.00000  Uiso   1.00
C1308  C     0.31318   0.86546   0.72824   0.00000  Uiso   1.00
C1309  C     0.02892   0.86605   0.72841   0.00000  Uiso   1.00
C1310  C     0.01931   0.80113   0.77221   0.00000  Uiso   1.00
C1311  C     0.30320   0.80115   0.77219   0.00000  Uiso   1.00
C1312  C     0.16668   0.75417   0.75093   0.00000  Uiso   1.00
C1313  C     0.19270   0.83076   0.65019   0.00000  Uiso   1.00
C1314  C     0.25985   0.78826   0.51783   0.00000  Uiso   1.00
C1315  C     0.20708   0.82136   0.59428   0.00000  Uiso   1.00
C1316  C     0.07767   0.84512   0.93629   0.00000  Uiso   1.00
C1317  C     0.06304   0.84348   0.99064   0.00000  Uiso   1.00
C1318  C     0.09545   0.83148   0.51772   0.00000  Uiso   1.00
Cu1319 Cu    0.11978   0.83333   0.75000   0.00000  Uiso   1.00
Cu1320 Cu    0.21355   0.83334   0.75000   0.00000  Uiso   1.00
H1321  H     0.27826   0.79567   0.58948   0.00000  Uiso   1.00
H1322  H     0.23058   0.70773   0.68400   0.00000  Uiso   1.00
H1323  H     0.10279   0.70318   0.81625   0.00000  Uiso   1.00
H1324  H     0.10380   0.96066   0.81436   0.00000  Uiso   1.00
H1325  H     0.29847   0.89085   0.71013   0.00000  Uiso   1.00
H1326  H     0.03317   0.77538   0.79044   0.00000  Uiso   1.00
H1327  H     0.28035   0.77535   0.79030   0.00000  Uiso   1.00
H1328  H     0.26518   0.76398   0.92106   0.00000  Uiso   1.00
H1329  H     0.29410   0.77310   0.99884   0.00000  Uiso   1.00
H1330  H     0.14160   0.84627   0.58590   0.00000  Uiso   1.00
H1331  H     0.08173   0.83071   0.55974   0.00000  Uiso   1.00
H1332  H     0.02671   0.85330   0.51235   0.00000  Uiso   1.00
H1333  H     0.20665   0.77903   0.87408   0.00000  Uiso   1.00
N1334  N     0.04931   0.83332   0.74998   0.00000  Uiso   1.00
N1335  N     0.28402   0.83335   0.74999   0.00000  Uiso   1.00
O1336  O     0.12708   0.89345   0.75000   0.00000  Uiso   1.00
O1337  O     0.20627   0.89346   0.75000   0.00000  Uiso   1.00
O1338  O     0.10775   0.83332   0.82549   0.00000  Uiso   1.00
O1339  O     0.18694   0.83333   0.82549   0.00000  Uiso   1.00
O1340  O     0.12706   0.77321   0.74999   0.00000  Uiso   1.00
O1341  O     0.20625   0.77322   0.74999   0.00000  Uiso   1.00
O1342  O     0.14640   0.83334   0.67451   0.00000  Uiso   1.00
O1343  O     0.22559   0.83335   0.67451   0.00000  Uiso   1.00
C1344  C     0.05610   0.90270   0.70231   0.00000  Uiso   1.00
C1345  C     0.05069   0.94067   0.72809   0.00000  Uiso   1.00
C1346  C     0.07106   0.97680   0.70090   0.00000  Uiso   1.00
C1347  C     0.09659   0.97530   0.64787   0.00000  Uiso   1.00
C1348  C     0.09962   0.93810   0.62143   0.00000  Uiso   1.00
C1349  C     0.07796   0.90239   0.64839   0.00000  Uiso   1.00
H1350  H     0.03049   0.94231   0.76896   0.00000  Uiso   1.00
H1351  H     0.06697   0.67262   0.72090   0.00000  Uiso   1.00
H1352  H     0.11268   0.66985   0.62696   0.00000  Uiso   1.00
H1353  H     0.11724   0.93727   0.57979   0.00000  Uiso   1.00
H1354  H     0.07551   0.87497   0.62735   0.00000  Uiso   1.00
C1355  C     0.04380   0.86587   0.91121   0.00000  Uiso   1.00
C1356  C     0.00708   0.84330   0.89948   0.00000  Uiso   1.00
C1357  C     0.30691   0.86365   0.87832   0.00000  Uiso   1.00
C1358  C     0.30965   0.90650   0.86920   0.00000  Uiso   1.00
C1359  C     0.01258   0.92916   0.88124   0.00000  Uiso   1.00
C1360  C     0.04631   0.90894   0.90216   0.00000  Uiso   1.00
H1361  H     0.00462   0.81010   0.90659   0.00000  Uiso   1.00
H1362  H     0.27878   0.84629   0.86894   0.00000  Uiso   1.00
H1363  H     0.28369   0.92213   0.85278   0.00000  Uiso   1.00
H1364  H     0.01455   0.96239   0.87436   0.00000  Uiso   1.00
H1365  H     0.07406   0.92682   0.91173   0.00000  Uiso   1.00
C1366  C     0.23964   0.96032   0.66429   0.00000  Uiso   1.00
C1367  C     0.22400   0.93352   0.63187   0.00000  Uiso   1.00
C1368  C     0.25640   0.92005   0.58517   0.00000  Uiso   1.00
C1369  C     0.30465   0.93310   0.57037   0.00000  Uiso   1.00
C1370  C     0.32068   0.95947   0.60237   0.00000  Uiso   1.00
C1371  C     0.28861   0.97277   0.64929   0.00000  Uiso   1.00
H1372  H     0.18646   0.92410   0.64175   0.00000  Uiso   1.00
H1373  H     0.24382   0.90035   0.55973   0.00000  Uiso   1.00
H1374  H     0.32940   0.92344   0.53368   0.00000  Uiso   1.00
H1375  H     0.02434   0.97049   0.59007   0.00000  Uiso   1.00
H1376  H     0.30165   0.99369   0.67318   0.00000  Uiso   1.00
C1377  C     0.50021   0.91254   0.74868   0.00000  Uiso   1.00
C1378  C     0.47684   0.81967   0.99105   0.00000  Uiso   1.00
C1379  C     0.48911   0.81326   0.93669   0.00000  Uiso   1.00
C1380  C     0.51287   0.81355   0.51715   0.00000  Uiso   1.00
C1381  C     0.55752   0.79409   0.99164   0.00000  Uiso   1.00
C1382  C     0.56557   0.78077   0.94057   0.00000  Uiso   1.00
C1383  C     0.53209   0.79051   0.91322   0.00000  Uiso   1.00
C1384  C     0.50627   0.82828   0.56733   0.00000  Uiso   1.00
C1385  C     0.58453   0.80162   0.56917   0.00000  Uiso   1.00
C1386  C     0.45764   0.82938   0.90816   0.00000  Uiso   1.00
C1387  C     0.53718   0.97974   0.70965   0.00000  Uiso   1.00
C1388  C     0.47388   0.83187   0.85026   0.00000  Uiso   1.00
C1389  C     0.53712   0.68950   0.71278   0.00000  Uiso   1.00
C1390  C     0.50075   0.70965   0.75068   0.00000  Uiso   1.00
C1391  C     0.46438   0.68740   0.78685   0.00000  Uiso   1.00
C1392  C     0.46481   0.97787   0.78554   0.00000  Uiso   1.00
C1393  C     0.50059   0.95728   0.74709   0.00000  Uiso   1.00
C1394  C     0.64652   0.86546   0.72824   0.00000  Uiso   1.00
C1395  C     0.36226   0.86605   0.72841   0.00000  Uiso   1.00
C1396  C     0.35264   0.80113   0.77221   0.00000  Uiso   1.00
C1397  C     0.63654   0.80115   0.77219   0.00000  Uiso   1.00
C1398  C     0.50002   0.75417   0.75093   0.00000  Uiso   1.00
C1399  C     0.52603   0.83076   0.65019   0.00000  Uiso   1.00
C1400  C     0.59319   0.78826   0.51783   0.00000  Uiso   1.00
C1401  C     0.54041   0.82136   0.59428   0.00000  Uiso   1.00
C1402  C     0.41100   0.84512   0.93629   0.00000  Uiso   1.00
C1403  C     0.39637   0.84348   0.99064   0.00000  Uiso   1.00
C1404  C     0.42879   0.83148   0.51772   0.00000  Uiso   1.00
Cu1405 Cu    0.45311   0.83333   0.75000   0.00000  Uiso   1.00
Cu1406 Cu    0.54689   0.83334   0.75000   0.00000  Uiso   1.00
H1407  H     0.61159   0.79567   0.58948   0.00000  Uiso   1.00
H1408  H     0.56391   0.70773   0.68400   0.00000  Uiso   1.00
H1409  H     0.43612   0.70318   0.81625   0.00000  Uiso   1.00
H1410  H     0.43713   0.96066   0.81436   0.00000  Uiso   1.00
H1411  H     0.63180   0.89085   0.71013   0.00000  Uiso   1.00
H1412  H     0.36650   0.77538   0.79044   0.00000  Uiso   1.00
H1413  H     0.61368   0.77535   0.79030   0.00000  Uiso   1.00
H1414  H     0.59851   0.76398   0.92106   0.00000  Uiso   1.00
H1415  H     0.62744   0.77310   0.99884   0.00000  Uiso   1.00
H1416  H     0.47493   0.84627   0.58590   0.00000  Uiso   1.00
H1417  H     0.41506   0.83071   0.55974   0.00000  Uiso   1.00
H1418  H     0.36005   0.85330   0.51235   0.00000  Uiso   1.00
H1419  H     0.53999   0.77903   0.87408   0.00000  Uiso   1.00
N1420  N     0.38265   0.83332   0.74998   0.00000  Uiso   1.00
N1421  N     0.61735   0.83335   0.74999   0.00000  Uiso   1.00
O1422  O     0.46042   0.89345   0.75000   0.00000  Uiso   1.00
O1423  O     0.53961   0.89346   0.75000   0.00000  Uiso   1.00
O1424  O     0.44108   0.83332   0.82549   0.00000  Uiso   1.00
O1425  O     0.52027   0.83333   0.82549   0.00000  Uiso   1.00
O1426  O     0.46039   0.77321   0.74999   0.00000  Uiso   1.00
O1427  O     0.53958   0.77322   0.74999   0.00000  Uiso   1.00
O1428  O     0.47973   0.83334   0.67451   0.00000  Uiso   1.00
O1429  O     0.55892   0.83335   0.67451   0.00000  Uiso   1.00
C1430  C     0.38944   0.90270   0.70231   0.00000  Uiso   1.00
C1431  C     0.38402   0.94067   0.72809   0.00000  Uiso   1.00
C1432  C     0.40439   0.97680   0.70090   0.00000  Uiso   1.00
C1433  C     0.42992   0.97530   0.64787   0.00000  Uiso   1.00
C1434  C     0.43296   0.93810   0.62143   0.00000  Uiso   1.00
C1435  C     0.41130   0.90239   0.64839   0.00000  Uiso   1.00
H1436  H     0.36382   0.94231   0.76896   0.00000  Uiso   1.00
H1437  H     0.40031   0.67262   0.72090   0.00000  Uiso   1.00
H1438  H     0.44602   0.66985   0.62696   0.00000  Uiso   1.00
H1439  H     0.45057   0.93727   0.57979   0.00000  Uiso   1.00
H1440  H     0.40885   0.87497   0.62735   0.00000  Uiso   1.00
C1441  C     0.37714   0.86587   0.91121   0.00000  Uiso   1.00
C1442  C     0.34041   0.84330   0.89948   0.00000  Uiso   1.00
C1443  C     0.64024   0.86365   0.87832   0.00000  Uiso   1.00
C1444  C     0.64298   0.90650   0.86920   0.00000  Uiso   1.00
C1445  C     0.34592   0.92916   0.88124   0.00000  Uiso   1.00
C1446  C     0.37964   0.90894   0.90216   0.00000  Uiso   1.00
H1447  H     0.33796   0.81010   0.90659   0.00000  Uiso   1.00
H1448  H     0.61211   0.84629   0.86894   0.00000  Uiso   1.00
H1449  H     0.61702   0.92213   0.85278   0.00000  Uiso   1.00
H1450  H     0.34788   0.96239   0.87436   0.00000  Uiso   1.00
H1451  H     0.40740   0.92682   0.91173   0.00000  Uiso   1.00
C1452  C     0.57297   0.96032   0.66429   0.00000  Uiso   1.00
C1453  C     0.55734   0.93352   0.63187   0.00000  Uiso   1.00
C1454  C     0.58973   0.92005   0.58517   0.00000  Uiso   1.00
C1455  C     0.63799   0.93310   0.57037   0.00000  Uiso   1.00
C1456  C     0.65402   0.95947   0.60237   0.00000  Uiso   1.00
C1457  C     0.62194   0.97277   0.64929   0.00000  Uiso   1.00
H1458  H     0.51979   0.92410   0.64175   0.00000  Uiso   1.00
H1459  H     0.57715   0.90035   0.55973   0.00000  Uiso   1.00
H1460  H     0.66274   0.92344   0.53368   0.00000  Uiso   1.00
H1461  H     0.35768   0.97049   0.59007   0.00000  Uiso   1.00
H1462  H     0.63499   0.99369   0.67318   0.00000  Uiso   1.00
C1463  C     0.83354   0.91254   0.74868   0.00000  Uiso   1.00
C1464  C     0.81017   0.81967   0.99105   0.00000  Uiso   1.00
C1465  C     0.82244   0.81326   0.93669   0.00000  Uiso   1.00
C1466  C     0.84620   0.81355   0.51715   0.00000  Uiso   1.00
C1467  C     0.89086   0.79409   0.99164   0.00000  Uiso   1.00
C1468  C     0.89890   0.78077   0.94057   0.00000  Uiso   1.00
C1469  C     0.86542   0.79051   0.91322   0.00000  Uiso   1.00
C1470  C     0.83961   0.82828   0.56733   0.00000  Uiso   1.00
C1471  C     0.91786   0.80162   0.56917   0.00000  Uiso   1.00
C1472  C     0.79097   0.82938   0.90816   0.00000  Uiso   1.00
C1473  C     0.87052   0.97974   0.70965   0.00000  Uiso   1.00
C1474  C     0.80721   0.83187   0.85026   0.00000  Uiso   1.00
C1475  C     0.87045   0.68950   0.71278   0.00000  Uiso   1.00
C1476  C     0.83408   0.70965   0.75068   0.00000  Uiso   1.00
C1477  C     0.79772   0.68740   0.78685   0.00000  Uiso   1.00
C1478  C     0.79814   0.97787   0.78554   0.00000  Uiso   1.00
C1479  C     0.83393   0.95728   0.74709   0.00000  Uiso   1.00
C1480  C     0.97985   0.86546   0.72824   0.00000  Uiso   1.00
C1481  C     0.69559   0.86605   0.72841   0.00000  Uiso   1.00
C1482  C     0.68598   0.80113   0.77221   0.00000  Uiso   1.00
C1483  C     0.96987   0.80115   0.77219   0.00000  Uiso   1.00
C1484  C     0.83335   0.75417   0.75093   0.00000  Uiso   1.00
C1485  C     0.85937   0.83076   0.65019   0.00000  Uiso   1.00
C1486  C     0.92652   0.78826   0.51783   0.00000  Uiso   1.00
C1487  C     0.87375   0.82136   0.59428   0.00000  Uiso   1.00
C1488  C     0.74434   0.84512   0.93629   0.00000  Uiso   1.00
C1489  C     0.72970   0.84348   0.99064   0.00000  Uiso   1.00
C1490  C     0.76212   0.83148   0.51772   0.00000  Uiso   1.00
Cu1491 Cu    0.78645   0.83333   0.75000   0.00000  Uiso   1.00
Cu1492 Cu    0.88022   0.83334   0.75000   0.00000  Uiso   1.00
H1493  H     0.94492   0.79567   0.58948   0.00000  Uiso   1.00
H1494  H     0.89725   0.70773   0.68400   0.00000  Uiso   1.00
H1495  H     0.76945   0.70318   0.81625   0.00000  Uiso   1.00
H1496  H     0.77046   0.96066   0.81436   0.00000  Uiso   1.00
H1497  H     0.96514   0.89085   0.71013   0.00000  Uiso   1.00
H1498  H     0.69983   0.77538   0.79044   0.00000  Uiso   1.00
H1499  H     0.94701   0.77535   0.79030   0.00000  Uiso   1.00
H1500  H     0.93184   0.76398   0.92106   0.00000  Uiso   1.00
H1501  H     0.96077   0.77310   0.99884   0.00000  Uiso   1.00
H1502  H     0.80827   0.84627   0.58590   0.00000  Uiso   1.00
H1503  H     0.74839   0.83071   0.55974   0.00000  Uiso   1.00
H1504  H     0.69338   0.85330   0.51235   0.00000  Uiso   1.00
H1505  H     0.87332   0.77903   0.87408   0.00000  Uiso   1.00
N1506  N     0.71598   0.83332   0.74998   0.00000  Uiso   1.00
N1507  N     0.95069   0.83335   0.74999   0.00000  Uiso   1.00
O1508  O     0.79375   0.89345   0.75000   0.00000  Uiso   1.00
O1509  O     0.87294   0.89346   0.75000   0.00000  Uiso   1.00
O1510  O     0.77441   0.83332   0.82549   0.00000  Uiso   1.00
O1511  O     0.85360   0.83333   0.82549   0.00000  Uiso   1.00
O1512  O     0.79373   0.77321   0.74999   0.00000  Uiso   1.00
O1513  O     0.87292   0.77322   0.74999   0.00000  Uiso   1.00
O1514  O     0.81306   0.83334   0.67451   0.00000  Uiso   1.00
O1515  O     0.89225   0.83335   0.67451   0.00000  Uiso   1.00
C1516  C     0.72277   0.90270   0.70231   0.00000  Uiso   1.00
C1517  C     0.71736   0.94067   0.72809   0.00000  Uiso   1.00
C1518  C     0.73772   0.97680   0.70090   0.00000  Uiso   1.00
C1519  C     0.76326   0.97530   0.64787   0.00000  Uiso   1.00
C1520  C     0.76629   0.93810   0.62143   0.00000  Uiso   1.00
C1521  C     0.74463   0.90239   0.64839   0.00000  Uiso   1.00
H1522  H     0.69716   0.94231   0.76896   0.00000  Uiso   1.00
H1523  H     0.73364   0.67262   0.72090   0.00000  Uiso   1.00
H1524  H     0.77935   0.66985   0.62696   0.00000  Uiso   1.00
H1525  H     0.78391   0.93727   0.57979   0.00000  Uiso   1.00
H1526  H     0.74218   0.87497   0.62735   0.00000  Uiso   1.00
C1527  C     0.71047   0.86587   0.91121   0.00000  Uiso   1.00
C1528  C     0.67375   0.84330   0.89948   0.00000  Uiso   1.00
C1529  C     0.97357   0.86365   0.87832   0.00000  Uiso   1.00
C1530  C     0.97631   0.90650   0.86920   0.00000  Uiso   1.00
C1531  C     0.67925   0.92916   0.88124   0.00000  Uiso   1.00
C1532  C     0.71298   0.90894   0.90216   0.00000  Uiso   1.00
H1533  H     0.67129   0.81010   0.90659   0.00000  Uiso   1.00
H1534  H     0.94544   0.84629   0.86894   0.00000  Uiso   1.00
H1535  H     0.95035   0.92213   0.85278   0.00000  Uiso   1.00
H1536  H     0.68121   0.96239   0.87436   0.00000  Uiso   1.00
H1537  H     0.74073   0.92682   0.91173   0.00000  Uiso   1.00
C1538  C     0.90630   0.96032   0.66429   0.00000  Uiso   1.00
C1539  C     0.89067   0.93352   0.63187   0.00000  Uiso   1.00
C1540  C     0.92306   0.92005   0.58517   0.00000  Uiso   1.00
C1541  C     0.97132   0.93310   0.57037   0.00000  Uiso   1.00
C1542  C     0.98735   0.95947   0.60237   0.00000  Uiso   1.00
C1543  C     0.95527   0.97277   0.64929   0.00000  Uiso   1.00
H1544  H     0.85313   0.92410   0.64175   0.00000  Uiso   1.00
H1545  H     0.91049   0.90035   0.55973   0.00000  Uiso   1.00
H1546  H     0.99607   0.92344   0.53368   0.00000  Uiso   1.00
H1547  H     0.69101   0.97049   0.59007   0.00000  Uiso   1.00
H1548  H     0.96832   0.99369   0.67318   0.00000  Uiso   1.00
loop_
_geom_bond_atom_site_label_1
_geom_bond_atom_site_label_2
_geom_bond_distance
_geom_bond_site_symmetry_2
_ccdc_geom_bond_type
C1     O46     1.297   .     A
C1     O47     1.290   .     A
C1     C17     1.443   .     S
C2     C3      1.413   .     A
C2     C778    1.416   .     S
C2     C802    1.409   .     S
C3     C7      1.416   .     A
C3     C10     1.427   .     A
C4     C8      1.395   .     A
C4     C776    1.416   1_554 S
C4     C779    1.413   1_554 S
C5     C6      1.396   .     A
C5     C778    1.413   .     S
C5     C798    1.408   .     S
C6     H38     1.084   .     S
C6     C7      1.396   .     A
C7     H43     1.079   .     S
C8     C25     1.388   .     A
C8     H40     1.065   .     S
C9     C25     1.402   .     A
C9     C24     1.401   .     A
C9     H31     1.083   .     S
C10    C26     1.426   .     A
C10    C12     1.483   .     S
C11    C76     1.489   .     S
C11    C17     1.417   .     A
C11    C271    1.395   .     S
C12    O48     1.300   .     A
C12    O49     1.306   .     A
C13    H32     1.085   .     S
C13    C14     1.393   .     A
C13    C527    1.395   1_545 S
C14    C15     1.394   .     A
C14    C22     1.436   .     S
C15    H33     1.084   .     S
C15    C532    1.384   1_545 S
C16    C17     1.399   .     A
C16    H34     1.082   .     S
C16    C273    1.384   .     S
C18    H35     1.083   .     S
C18    N45     1.351   .     A
C18    C105    1.412   .     S
C19    C54     1.471   .     S
C19    N44     1.392   .     A
C19    C190    1.412   1_455 S
C20    N44     1.368   .     A
C20    H36     1.081   .     S
C20    C193    1.421   1_455 S
C21    N45     1.370   .     A
C21    H37     1.081   .     S
C21    C106    1.421   .     S
C22    O50     1.292   .     A
C22    O51     1.294   .     A
C23    O53     1.298   .     A
C23    O52     1.303   .     A
C23    C25     1.470   .     S
C24    C779    1.408   1_554 S
C24    H813    1.084   1_554 S
C26    C27     1.391   .     A
C26    C65     1.477   .     S
C27    C802    1.382   .     S
C27    H816    1.084   .     S
C28    H41     1.078   .     S
C28    C776    1.409   1_554 S
C28    C801    1.382   1_554 S
Cu29   Cu30    2.694   .     S
Cu29   O50     1.947   .     S
Cu29   O48     1.948   .     S
Cu29   N44     2.025   .     S
Cu29   O46     1.953   .     S
Cu29   O52     1.941   .     S
Cu30   O51     1.953   .     S
Cu30   N45     2.025   .     S
Cu30   O53     1.948   .     S
Cu30   O47     1.947   .     S
Cu30   O49     1.941   .     S
H39    C798    1.084   .     S
H42    C801    1.084   1_554 S
C54    C59     1.396   .     A
C54    C55     1.405   .     A
C55    H60     1.081   .     S
C55    C56     1.400   .     A
C56    C57     1.397   .     A
C56    H319    1.082   .     S
C57    C58     1.397   .     A
C57    H320    1.082   .     S
C58    C59     1.397   .     A
C58    H63     1.082   .     S
C59    H64     1.074   .     S
H61    C572    1.082   1_545 S
H62    C573    1.082   1_545 S
C65    C66     1.403   .     A
C65    C70     1.403   .     A
C66    H71     1.083   .     S
C66    C239    1.399   1_455 S
C67    H72     1.081   .     S
C67    C68     1.397   .     A
C67    C152    1.399   .     S
C68    H73     1.082   .     S
C68    C155    1.398   .     S
C69    H74     1.082   .     S
C69    C70     1.398   .     A
C69    C240    1.398   1_455 S
C70    H75     1.083   .     S
C76    C77     1.406   .     A
C76    C81     1.408   .     A
C77    C78     1.399   .     A
C77    H82     1.080   .     S
C78    H83     1.081   .     S
C78    C79     1.395   .     A
C79    H84     1.082   .     S
C79    C80     1.395   .     A
C80    C81     1.398   .     A
C80    H171    1.080   .     S
C81    H86     1.083   .     S
H85    C252    1.080   1_455 S
C87    O132    1.297   .     A
C87    O133    1.290   .     A
C87    C103    1.443   .     S
C88    C89     1.413   .     A
C88    C864    1.416   .     S
C88    C888    1.409   .     S
C89    C93     1.416   .     A
C89    C96     1.427   .     A
C90    C94     1.395   .     A
C90    C862    1.416   1_554 S
C90    C865    1.413   1_554 S
C91    C92     1.396   .     A
C91    C864    1.413   .     S
C91    C884    1.408   .     S
C92    H124    1.084   .     S
C92    C93     1.396   .     A
C93    H129    1.079   .     S
C94    C111    1.388   .     A
C94    H126    1.065   .     S
C95    C111    1.402   .     A
C95    C110    1.401   .     A
C95    H117    1.083   .     S
C96    C112    1.426   .     A
C96    C98     1.483   .     S
C97    C162    1.489   .     S
C97    C103    1.417   .     A
C97    C357    1.395   .     S
C98    O134    1.300   .     A
C98    O135    1.306   .     A
C99    H118    1.085   .     S
C99    C100    1.393   .     A
C99    C613    1.395   1_545 S
C100   C101    1.394   .     A
C100   C108    1.436   .     S
C101   H119    1.084   .     S
C101   C618    1.384   1_545 S
C102   C103    1.399   .     A
C102   H120    1.082   .     S
C102   C359    1.384   .     S
C104   H121    1.083   .     S
C104   N131    1.351   .     A
C104   C191    1.412   .     S
C105   C140    1.471   .     S
C105   N130    1.392   .     A
C106   N130    1.368   .     A
C106   H122    1.081   .     S
C107   N131    1.370   .     A
C107   H123    1.081   .     S
C107   C192    1.421   .     S
C108   O136    1.292   .     A
C108   O137    1.294   .     A
C109   O139    1.298   .     A
C109   O138    1.303   .     A
C109   C111    1.470   .     S
C110   C865    1.408   1_554 S
C110   H899    1.084   1_554 S
C112   C113    1.391   .     A
C112   C151    1.477   .     S
C113   C888    1.382   .     S
C113   H902    1.084   .     S
C114   H127    1.078   .     S
C114   C862    1.409   1_554 S
C114   C887    1.382   1_554 S
Cu115  Cu116   2.694   .     S
Cu115  O136    1.947   .     S
Cu115  O134    1.948   .     S
Cu115  N130    2.025   .     S
Cu115  O132    1.953   .     S
Cu115  O138    1.941   .     S
Cu116  O137    1.953   .     S
Cu116  N131    2.025   .     S
Cu116  O139    1.948   .     S
Cu116  O133    1.947   .     S
Cu116  O135    1.941   .     S
H125   C884    1.084   .     S
H128   C887    1.084   1_554 S
C140   C145    1.396   .     A
C140   C141    1.405   .     A
C141   H146    1.081   .     S
C141   C142    1.400   .     A
C142   C143    1.397   .     A
C142   H405    1.082   .     S
C143   C144    1.397   .     A
C143   H406    1.082   .     S
C144   C145    1.397   .     A
C144   H149    1.082   .     S
C145   H150    1.074   .     S
H147   C658    1.082   1_545 S
H148   C659    1.082   1_545 S
C151   C152    1.403   .     A
C151   C156    1.403   .     A
C152   H157    1.083   .     S
C153   H158    1.081   .     S
C153   C154    1.397   .     A
C153   C238    1.399   .     S
C154   H159    1.082   .     S
C154   C241    1.398   .     S
C155   H160    1.082   .     S
C155   C156    1.398   .     A
C156   H161    1.083   .     S
C162   C163    1.406   .     A
C162   C167    1.408   .     A
C163   C164    1.399   .     A
C163   H168    1.080   .     S
C164   H169    1.081   .     S
C164   C165    1.395   .     A
C165   H170    1.082   .     S
C165   C166    1.395   .     A
C166   C167    1.398   .     A
C166   H257    1.080   .     S
C167   H172    1.083   .     S
C173   O218    1.297   .     A
C173   O219    1.290   .     A
C173   C189    1.443   .     S
C174   C175    1.413   .     A
C174   C950    1.416   .     S
C174   C974    1.409   .     S
C175   C179    1.416   .     A
C175   C182    1.427   .     A
C176   C180    1.395   .     A
C176   C948    1.416   1_554 S
C176   C951    1.413   1_554 S
C177   C178    1.396   .     A
C177   C950    1.413   .     S
C177   C970    1.408   .     S
C178   H210    1.084   .     S
C178   C179    1.396   .     A
C179   H215    1.079   .     S
C180   C197    1.388   .     A
C180   H212    1.065   .     S
C181   C197    1.402   .     A
C181   C196    1.401   .     A
C181   H203    1.083   .     S
C182   C198    1.426   .     A
C182   C184    1.483   .     S
C183   C248    1.489   .     S
C183   C189    1.417   .     A
C183   C443    1.395   .     S
C184   O220    1.300   .     A
C184   O221    1.306   .     A
C185   H204    1.085   .     S
C185   C186    1.393   .     A
C185   C699    1.395   1_545 S
C186   C187    1.394   .     A
C186   C194    1.436   .     S
C187   H205    1.084   .     S
C187   C704    1.384   1_545 S
C188   C189    1.399   .     A
C188   H206    1.082   .     S
C188   C445    1.384   .     S
C190   H207    1.083   .     S
C190   N217    1.351   .     A
C190   C19     1.412   1_655 S
C191   C226    1.471   .     S
C191   N216    1.392   .     A
C192   N216    1.368   .     A
C192   H208    1.081   .     S
C193   N217    1.370   .     A
C193   H209    1.081   .     S
C193   C20     1.421   1_655 S
C194   O222    1.292   .     A
C194   O223    1.294   .     A
C195   O225    1.298   .     A
C195   O224    1.303   .     A
C195   C197    1.470   .     S
C196   C951    1.408   1_554 S
C196   H985    1.084   1_554 S
C198   C199    1.391   .     A
C198   C237    1.477   .     S
C199   C974    1.382   .     S
C199   H988    1.084   .     S
C200   H213    1.078   .     S
C200   C948    1.409   1_554 S
C200   C973    1.382   1_554 S
Cu201  Cu202   2.694   .     S
Cu201  O222    1.947   .     S
Cu201  O220    1.948   .     S
Cu201  N216    2.025   .     S
Cu201  O218    1.953   .     S
Cu201  O224    1.941   .     S
Cu202  O223    1.953   .     S
Cu202  N217    2.025   .     S
Cu202  O225    1.948   .     S
Cu202  O219    1.947   .     S
Cu202  O221    1.941   .     S
H211   C970    1.084   .     S
H214   C973    1.084   1_554 S
C226   C231    1.396   .     A
C226   C227    1.405   .     A
C227   H232    1.081   .     S
C227   C228    1.400   .     A
C228   C229    1.397   .     A
C228   H491    1.082   .     S
C229   C230    1.397   .     A
C229   H492    1.082   .     S
C230   C231    1.397   .     A
C230   H235    1.082   .     S
C231   H236    1.074   .     S
H233   C744    1.082   1_545 S
H234   C745    1.082   1_545 S
C237   C238    1.403   .     A
C237   C242    1.403   .     A
C238   H243    1.083   .     S
C239   H244    1.081   .     S
C239   C240    1.397   .     A
C239   C66     1.399   1_655 S
C240   H245    1.082   .     S
C240   C69     1.398   1_655 S
C241   H246    1.082   .     S
C241   C242    1.398   .     A
C242   H247    1.083   .     S
C248   C249    1.406   .     A
C248   C253    1.408   .     A
C249   C250    1.399   .     A
C249   H254    1.080   .     S
C250   H255    1.081   .     S
C250   C251    1.395   .     A
C251   H256    1.082   .     S
C251   C252    1.395   .     A
C252   C253    1.398   .     A
C252   H85     1.080   1_655 S
C253   H258    1.083   .     S
C259   O304    1.297   .     A
C259   O305    1.290   .     A
C259   C275    1.443   .     S
C260   C261    1.413   .     A
C260   C1036   1.416   .     S
C260   C1060   1.409   .     S
C261   C265    1.416   .     A
C261   C268    1.427   .     A
C262   C266    1.395   .     A
C262   C1034   1.416   1_554 S
C262   C1037   1.413   1_554 S
C263   C264    1.396   .     A
C263   C1036   1.413   .     S
C263   C1056   1.408   .     S
C264   H296    1.084   .     S
C264   C265    1.396   .     A
C265   H301    1.079   .     S
C266   C283    1.388   .     A
C266   H298    1.065   .     S
C267   C283    1.402   .     A
C267   C282    1.401   .     A
C267   H289    1.083   .     S
C268   C284    1.426   .     A
C268   C270    1.483   .     S
C269   C334    1.489   .     S
C269   C275    1.417   .     A
C269   C529    1.395   .     S
C270   O306    1.300   .     A
C270   O307    1.306   .     A
C271   H290    1.085   .     S
C271   C272    1.393   .     A
C272   C273    1.394   .     A
C272   C280    1.436   .     S
C273   H291    1.084   .     S
C274   C275    1.399   .     A
C274   H292    1.082   .     S
C274   C531    1.384   .     S
C276   H293    1.083   .     S
C276   N303    1.351   .     A
C276   C363    1.412   .     S
C277   C312    1.471   .     S
C277   N302    1.392   .     A
C277   C448    1.412   1_455 S
C278   N302    1.368   .     A
C278   H294    1.081   .     S
C278   C451    1.421   1_455 S
C279   N303    1.370   .     A
C279   H295    1.081   .     S
C279   C364    1.421   .     S
C280   O308    1.292   .     A
C280   O309    1.294   .     A
C281   O311    1.298   .     A
C281   O310    1.303   .     A
C281   C283    1.470   .     S
C282   C1037   1.408   1_554 S
C282   H1071   1.084   1_554 S
C284   C285    1.391   .     A
C284   C323    1.477   .     S
C285   C1060   1.382   .     S
C285   H1074   1.084   .     S
C286   H299    1.078   .     S
C286   C1034   1.409   1_554 S
C286   C1059   1.382   1_554 S
Cu287  Cu288   2.694   .     S
Cu287  O308    1.947   .     S
Cu287  O306    1.948   .     S
Cu287  N302    2.025   .     S
Cu287  O304    1.953   .     S
Cu287  O310    1.941   .     S
Cu288  O309    1.953   .     S
Cu288  N303    2.025   .     S
Cu288  O311    1.948   .     S
Cu288  O305    1.947   .     S
Cu288  O307    1.941   .     S
H297   C1056   1.084   .     S
H300   C1059   1.084   1_554 S
C312   C317    1.396   .     A
C312   C313    1.405   .     A
C313   H318    1.081   .     S
C313   C314    1.400   .     A
C314   C315    1.397   .     A
C314   H577    1.082   .     S
C315   C316    1.397   .     A
C315   H578    1.082   .     S
C316   C317    1.397   .     A
C316   H321    1.082   .     S
C317   H322    1.074   .     S
C323   C324    1.403   .     A
C323   C328    1.403   .     A
C324   H329    1.083   .     S
C324   C497    1.399   1_455 S
C325   H330    1.081   .     S
C325   C326    1.397   .     A
C325   C410    1.399   .     S
C326   H331    1.082   .     S
C326   C413    1.398   .     S
C327   H332    1.082   .     S
C327   C328    1.398   .     A
C327   C498    1.398   1_455 S
C328   H333    1.083   .     S
C334   C335    1.406   .     A
C334   C339    1.408   .     A
C335   C336    1.399   .     A
C335   H340    1.080   .     S
C336   H341    1.081   .     S
C336   C337    1.395   .     A
C337   H342    1.082   .     S
C337   C338    1.395   .     A
C338   C339    1.398   .     A
C338   H429    1.080   .     S
C339   H344    1.083   .     S
H343   C510    1.080   1_455 S
C345   O390    1.297   .     A
C345   O391    1.290   .     A
C345   C361    1.443   .     S
C346   C347    1.413   .     A
C346   C1122   1.416   .     S
C346   C1146   1.409   .     S
C347   C351    1.416   .     A
C347   C354    1.427   .     A
C348   C352    1.395   .     A
C348   C1120   1.416   1_554 S
C348   C1123   1.413   1_554 S
C349   C350    1.396   .     A
C349   C1122   1.413   .     S
C349   C1142   1.408   .     S
C350   H382    1.084   .     S
C350   C351    1.396   .     A
C351   H387    1.079   .     S
C352   C369    1.388   .     A
C352   H384    1.065   .     S
C353   C369    1.402   .     A
C353   C368    1.401   .     A
C353   H375    1.083   .     S
C354   C370    1.426   .     A
C354   C356    1.483   .     S
C355   C420    1.489   .     S
C355   C361    1.417   .     A
C355   C615    1.395   .     S
C356   O392    1.300   .     A
C356   O393    1.306   .     A
C357   H376    1.085   .     S
C357   C358    1.393   .     A
C358   C359    1.394   .     A
C358   C366    1.436   .     S
C359   H377    1.084   .     S
C360   C361    1.399   .     A
C360   H378    1.082   .     S
C360   C617    1.384   .     S
C362   H379    1.083   .     S
C362   N389    1.351   .     A
C362   C449    1.412   .     S
C363   C398    1.471   .     S
C363   N388    1.392   .     A
C364   N388    1.368   .     A
C364   H380    1.081   .     S
C365   N389    1.370   .     A
C365   H381    1.081   .     S
C365   C450    1.421   .     S
C366   O394    1.292   .     A
C366   O395    1.294   .     A
C367   O397    1.298   .     A
C367   O396    1.303   .     A
C367   C369    1.470   .     S
C368   C1123   1.408   1_554 S
C368   H1157   1.084   1_554 S
C370   C371    1.391   .     A
C370   C409    1.477   .     S
C371   C1146   1.382   .     S
C371   H1160   1.084   .     S
C372   H385    1.078   .     S
C372   C1120   1.409   1_554 S
C372   C1145   1.382   1_554 S
Cu373  Cu374   2.694   .     S
Cu373  O394    1.947   .     S
Cu373  O392    1.948   .     S
Cu373  N388    2.025   .     S
Cu373  O390    1.953   .     S
Cu373  O396    1.941   .     S
Cu374  O395    1.953   .     S
Cu374  N389    2.025   .     S
Cu374  O397    1.948   .     S
Cu374  O391    1.947   .     S
Cu374  O393    1.941   .     S
H383   C1142   1.084   .     S
H386   C1145   1.084   1_554 S
C398   C403    1.396   .     A
C398   C399    1.405   .     A
C399   H404    1.081   .     S
C399   C400    1.400   .     A
C400   C401    1.397   .     A
C400   H663    1.082   .     S
C401   C402    1.397   .     A
C401   H664    1.082   .     S
C402   C403    1.397   .     A
C402   H407    1.082   .     S
C403   H408    1.074   .     S
C409   C410    1.403   .     A
C409   C414    1.403   .     A
C410   H415    1.083   .     S
C411   H416    1.081   .     S
C411   C412    1.397   .     A
C411   C496    1.399   .     S
C412   H417    1.082   .     S
C412   C499    1.398   .     S
C413   H418    1.082   .     S
C413   C414    1.398   .     A
C414   H419    1.083   .     S
C420   C421    1.406   .     A
C420   C425    1.408   .     A
C421   C422    1.399   .     A
C421   H426    1.080   .     S
C422   H427    1.081   .     S
C422   C423    1.395   .     A
C423   H428    1.082   .     S
C423   C424    1.395   .     A
C424   C425    1.398   .     A
C424   H515    1.080   .     S
C425   H430    1.083   .     S
C431   O476    1.297   .     A
C431   O477    1.290   .     A
C431   C447    1.443   .     S
C432   C433    1.413   .     A
C432   C1208   1.416   .     S
C432   C1232   1.409   .     S
C433   C437    1.416   .     A
C433   C440    1.427   .     A
C434   C438    1.395   .     A
C434   C1206   1.416   1_554 S
C434   C1209   1.413   1_554 S
C435   C436    1.396   .     A
C435   C1208   1.413   .     S
C435   C1228   1.408   .     S
C436   H468    1.084   .     S
C436   C437    1.396   .     A
C437   H473    1.079   .     S
C438   C455    1.388   .     A
C438   H470    1.065   .     S
C439   C455    1.402   .     A
C439   C454    1.401   .     A
C439   H461    1.083   .     S
C440   C456    1.426   .     A
C440   C442    1.483   .     S
C441   C506    1.489   .     S
C441   C447    1.417   .     A
C441   C701    1.395   .     S
C442   O478    1.300   .     A
C442   O479    1.306   .     A
C443   H462    1.085   .     S
C443   C444    1.393   .     A
C444   C445    1.394   .     A
C444   C452    1.436   .     S
C445   H463    1.084   .     S
C446   C447    1.399   .     A
C446   H464    1.082   .     S
C446   C703    1.384   .     S
C448   H465    1.083   .     S
C448   N475    1.351   .     A
C448   C277    1.412   1_655 S
C449   C484    1.471   .     S
C449   N474    1.392   .     A
C450   N474    1.368   .     A
C450   H466    1.081   .     S
C451   N475    1.370   .     A
C451   H467    1.081   .     S
C451   C278    1.421   1_655 S
C452   O480    1.292   .     A
C452   O481    1.294   .     A
C453   O483    1.298   .     A
C453   O482    1.303   .     A
C453   C455    1.470   .     S
C454   C1209   1.408   1_554 S
C454   H1243   1.084   1_554 S
C456   C457    1.391   .     A
C456   C495    1.477   .     S
C457   C1232   1.382   .     S
C457   H1246   1.084   .     S
C458   H471    1.078   .     S
C458   C1206   1.409   1_554 S
C458   C1231   1.382   1_554 S
Cu459  Cu460   2.694   .     S
Cu459  O480    1.947   .     S
Cu459  O478    1.948   .     S
Cu459  N474    2.025   .     S
Cu459  O476    1.953   .     S
Cu459  O482    1.941   .     S
Cu460  O481    1.953   .     S
Cu460  N475    2.025   .     S
Cu460  O483    1.948   .     S
Cu460  O477    1.947   .     S
Cu460  O479    1.941   .     S
H469   C1228   1.084   .     S
H472   C1231   1.084   1_554 S
C484   C489    1.396   .     A
C484   C485    1.405   .     A
C485   H490    1.081   .     S
C485   C486    1.400   .     A
C486   C487    1.397   .     A
C486   H749    1.082   .     S
C487   C488    1.397   .     A
C487   H750    1.082   .     S
C488   C489    1.397   .     A
C488   H493    1.082   .     S
C489   H494    1.074   .     S
C495   C496    1.403   .     A
C495   C500    1.403   .     A
C496   H501    1.083   .     S
C497   H502    1.081   .     S
C497   C498    1.397   .     A
C497   C324    1.399   1_655 S
C498   H503    1.082   .     S
C498   C327    1.398   1_655 S
C499   H504    1.082   .     S
C499   C500    1.398   .     A
C500   H505    1.083   .     S
C506   C507    1.406   .     A
C506   C511    1.408   .     A
C507   C508    1.399   .     A
C507   H512    1.080   .     S
C508   H513    1.081   .     S
C508   C509    1.395   .     A
C509   H514    1.082   .     S
C509   C510    1.395   .     A
C510   C511    1.398   .     A
C510   H343    1.080   1_655 S
C511   H516    1.083   .     S
C517   O562    1.297   .     A
C517   O563    1.290   .     A
C517   C533    1.443   .     S
C518   C519    1.413   .     A
C518   C1294   1.416   .     S
C518   C1318   1.409   .     S
C519   C523    1.416   .     A
C519   C526    1.427   .     A
C520   C524    1.395   .     A
C520   C1292   1.416   1_554 S
C520   C1295   1.413   1_554 S
C521   C522    1.396   .     A
C521   C1294   1.413   .     S
C521   C1314   1.408   .     S
C522   H554    1.084   .     S
C522   C523    1.396   .     A
C523   H559    1.079   .     S
C524   C541    1.388   .     A
C524   H556    1.065   .     S
C525   C541    1.402   .     A
C525   C540    1.401   .     A
C525   H547    1.083   .     S
C526   C542    1.426   .     A
C526   C528    1.483   .     S
C527   C592    1.489   .     S
C527   C533    1.417   .     A
C527   C13     1.395   1_565 S
C528   O564    1.300   .     A
C528   O565    1.306   .     A
C529   H548    1.085   .     S
C529   C530    1.393   .     A
C530   C531    1.394   .     A
C530   C538    1.436   .     S
C531   H549    1.084   .     S
C532   C533    1.399   .     A
C532   H550    1.082   .     S
C532   C15     1.384   1_565 S
C534   H551    1.083   .     S
C534   N561    1.351   .     A
C534   C621    1.412   .     S
C535   C570    1.471   .     S
C535   N560    1.392   .     A
C535   C706    1.412   1_455 S
C536   N560    1.368   .     A
C536   H552    1.081   .     S
C536   C709    1.421   1_455 S
C537   N561    1.370   .     A
C537   H553    1.081   .     S
C537   C622    1.421   .     S
C538   O566    1.292   .     A
C538   O567    1.294   .     A
C539   O569    1.298   .     A
C539   O568    1.303   .     A
C539   C541    1.470   .     S
C540   C1295   1.408   1_554 S
C540   H1329   1.084   1_554 S
C542   C543    1.391   .     A
C542   C581    1.477   .     S
C543   C1318   1.382   .     S
C543   H1332   1.084   .     S
C544   H557    1.078   .     S
C544   C1292   1.409   1_554 S
C544   C1317   1.382   1_554 S
Cu545  Cu546   2.694   .     S
Cu545  O566    1.947   .     S
Cu545  O564    1.948   .     S
Cu545  N560    2.025   .     S
Cu545  O562    1.953   .     S
Cu545  O568    1.941   .     S
Cu546  O567    1.953   .     S
Cu546  N561    2.025   .     S
Cu546  O569    1.948   .     S
Cu546  O563    1.947   .     S
Cu546  O565    1.941   .     S
H555   C1314   1.084   .     S
H558   C1317   1.084   1_554 S
C570   C575    1.396   .     A
C570   C571    1.405   .     A
C571   H576    1.081   .     S
C571   C572    1.400   .     A
C572   C573    1.397   .     A
C572   H61     1.082   1_565 S
C573   C574    1.397   .     A
C573   H62     1.082   1_565 S
C574   C575    1.397   .     A
C574   H579    1.082   .     S
C575   H580    1.074   .     S
C581   C582    1.403   .     A
C581   C586    1.403   .     A
C582   H587    1.083   .     S
C582   C755    1.399   1_455 S
C583   H588    1.081   .     S
C583   C584    1.397   .     A
C583   C668    1.399   .     S
C584   H589    1.082   .     S
C584   C671    1.398   .     S
C585   H590    1.082   .     S
C585   C586    1.398   .     A
C585   C756    1.398   1_455 S
C586   H591    1.083   .     S
C592   C593    1.406   .     A
C592   C597    1.408   .     A
C593   C594    1.399   .     A
C593   H598    1.080   .     S
C594   H599    1.081   .     S
C594   C595    1.395   .     A
C595   H600    1.082   .     S
C595   C596    1.395   .     A
C596   C597    1.398   .     A
C596   H687    1.080   .     S
C597   H602    1.083   .     S
H601   C768    1.080   1_455 S
C603   O648    1.297   .     A
C603   O649    1.290   .     A
C603   C619    1.443   .     S
C604   C605    1.413   .     A
C604   C1380   1.416   .     S
C604   C1404   1.409   .     S
C605   C609    1.416   .     A
C605   C612    1.427   .     A
C606   C610    1.395   .     A
C606   C1378   1.416   1_554 S
C606   C1381   1.413   1_554 S
C607   C608    1.396   .     A
C607   C1380   1.413   .     S
C607   C1400   1.408   .     S
C608   H640    1.084   .     S
C608   C609    1.396   .     A
C609   H645    1.079   .     S
C610   C627    1.388   .     A
C610   H642    1.065   .     S
C611   C627    1.402   .     A
C611   C626    1.401   .     A
C611   H633    1.083   .     S
C612   C628    1.426   .     A
C612   C614    1.483   .     S
C613   C678    1.489   .     S
C613   C619    1.417   .     A
C613   C99     1.395   1_565 S
C614   O650    1.300   .     A
C614   O651    1.306   .     A
C615   H634    1.085   .     S
C615   C616    1.393   .     A
C616   C617    1.394   .     A
C616   C624    1.436   .     S
C617   H635    1.084   .     S
C618   C619    1.399   .     A
C618   H636    1.082   .     S
C618   C101    1.384   1_565 S
C620   H637    1.083   .     S
C620   N647    1.351   .     A
C620   C707    1.412   .     S
C621   C656    1.471   .     S
C621   N646    1.392   .     A
C622   N646    1.368   .     A
C622   H638    1.081   .     S
C623   N647    1.370   .     A
C623   H639    1.081   .     S
C623   C708    1.421   .     S
C624   O652    1.292   .     A
C624   O653    1.294   .     A
C625   O655    1.298   .     A
C625   O654    1.303   .     A
C625   C627    1.470   .     S
C626   C1381   1.408   1_554 S
C626   H1415   1.084   1_554 S
C628   C629    1.391   .     A
C628   C667    1.477   .     S
C629   C1404   1.382   .     S
C629   H1418   1.084   .     S
C630   H643    1.078   .     S
C630   C1378   1.409   1_554 S
C630   C1403   1.382   1_554 S
Cu631  Cu632   2.694   .     S
Cu631  O652    1.947   .     S
Cu631  O650    1.948   .     S
Cu631  N646    2.025   .     S
Cu631  O648    1.953   .     S
Cu631  O654    1.941   .     S
Cu632  O653    1.953   .     S
Cu632  N647    2.025   .     S
Cu632  O655    1.948   .     S
Cu632  O649    1.947   .     S
Cu632  O651    1.941   .     S
H641   C1400   1.084   .     S
H644   C1403   1.084   1_554 S
C656   C661    1.396   .     A
C656   C657    1.405   .     A
C657   H662    1.081   .     S
C657   C658    1.400   .     A
C658   C659    1.397   .     A
C658   H147    1.082   1_565 S
C659   C660    1.397   .     A
C659   H148    1.082   1_565 S
C660   C661    1.397   .     A
C660   H665    1.082   .     S
C661   H666    1.074   .     S
C667   C668    1.403   .     A
C667   C672    1.403   .     A
C668   H673    1.083   .     S
C669   H674    1.081   .     S
C669   C670    1.397   .     A
C669   C754    1.399   .     S
C670   H675    1.082   .     S
C670   C757    1.398   .     S
C671   H676    1.082   .     S
C671   C672    1.398   .     A
C672   H677    1.083   .     S
C678   C679    1.406   .     A
C678   C683    1.408   .     A
C679   C680    1.399   .     A
C679   H684    1.080   .     S
C680   H685    1.081   .     S
C680   C681    1.395   .     A
C681   H686    1.082   .     S
C681   C682    1.395   .     A
C682   C683    1.398   .     A
C682   H773    1.080   .     S
C683   H688    1.083   .     S
C689   O734    1.297   .     A
C689   O735    1.290   .     A
C689   C705    1.443   .     S
C690   C691    1.413   .     A
C690   C1466   1.416   .     S
C690   C1490   1.409   .     S
C691   C695    1.416   .     A
C691   C698    1.427   .     A
C692   C696    1.395   .     A
C692   C1464   1.416   1_554 S
C692   C1467   1.413   1_554 S
C693   C694    1.396   .     A
C693   C1466   1.413   .     S
C693   C1486   1.408   .     S
C694   H726    1.084   .     S
C694   C695    1.396   .     A
C695   H731    1.079   .     S
C696   C713    1.388   .     A
C696   H728    1.065   .     S
C697   C713    1.402   .     A
C697   C712    1.401   .     A
C697   H719    1.083   .     S
C698   C714    1.426   .     A
C698   C700    1.483   .     S
C699   C764    1.489   .     S
C699   C705    1.417   .     A
C699   C185    1.395   1_565 S
C700   O736    1.300   .     A
C700   O737    1.306   .     A
C701   H720    1.085   .     S
C701   C702    1.393   .     A
C702   C703    1.394   .     A
C702   C710    1.436   .     S
C703   H721    1.084   .     S
C704   C705    1.399   .     A
C704   H722    1.082   .     S
C704   C187    1.384   1_565 S
C706   H723    1.083   .     S
C706   N733    1.351   .     A
C706   C535    1.412   1_655 S
C707   C742    1.471   .     S
C707   N732    1.392   .     A
C708   N732    1.368   .     A
C708   H724    1.081   .     S
C709   N733    1.370   .     A
C709   H725    1.081   .     S
C709   C536    1.421   1_655 S
C710   O738    1.292   .     A
C710   O739    1.294   .     A
C711   O741    1.298   .     A
C711   O740    1.303   .     A
C711   C713    1.470   .     S
C712   C1467   1.408   1_554 S
C712   H1501   1.084   1_554 S
C714   C715    1.391   .     A
C714   C753    1.477   .     S
C715   C1490   1.382   .     S
C715   H1504   1.084   .     S
C716   H729    1.078   .     S
C716   C1464   1.409   1_554 S
C716   C1489   1.382   1_554 S
Cu717  Cu718   2.694   .     S
Cu717  O738    1.947   .     S
Cu717  O736    1.948   .     S
Cu717  N732    2.025   .     S
Cu717  O734    1.953   .     S
Cu717  O740    1.941   .     S
Cu718  O739    1.953   .     S
Cu718  N733    2.025   .     S
Cu718  O741    1.948   .     S
Cu718  O735    1.947   .     S
Cu718  O737    1.941   .     S
H727   C1486   1.084   .     S
H730   C1489   1.084   1_554 S
C742   C747    1.396   .     A
C742   C743    1.405   .     A
C743   H748    1.081   .     S
C743   C744    1.400   .     A
C744   C745    1.397   .     A
C744   H233    1.082   1_565 S
C745   C746    1.397   .     A
C745   H234    1.082   1_565 S
C746   C747    1.397   .     A
C746   H751    1.082   .     S
C747   H752    1.074   .     S
C753   C754    1.403   .     A
C753   C758    1.403   .     A
C754   H759    1.083   .     S
C755   H760    1.081   .     S
C755   C756    1.397   .     A
C755   C582    1.399   1_655 S
C756   H761    1.082   .     S
C756   C585    1.398   1_655 S
C757   H762    1.082   .     S
C757   C758    1.398   .     A
C758   H763    1.083   .     S
C764   C765    1.406   .     A
C764   C769    1.408   .     A
C765   C766    1.399   .     A
C765   H770    1.080   .     S
C766   H771    1.081   .     S
C766   C767    1.395   .     A
C767   H772    1.082   .     S
C767   C768    1.395   .     A
C768   C769    1.398   .     A
C768   H601    1.080   1_655 S
C769   H774    1.083   .     S
C775   O820    1.297   .     A
C775   O821    1.290   .     A
C775   C791    1.443   .     S
C776   C777    1.413   .     A
C776   C4      1.416   1_556 S
C776   C28     1.409   1_556 S
C777   C781    1.416   .     A
C777   C784    1.427   .     A
C778   C782    1.395   .     A
C779   C780    1.396   .     A
C779   C4      1.413   1_556 S
C779   C24     1.408   1_556 S
C780   H812    1.084   .     S
C780   C781    1.396   .     A
C781   H817    1.079   .     S
C782   C799    1.388   .     A
C782   H814    1.065   .     S
C783   C799    1.402   .     A
C783   C798    1.401   .     A
C783   H805    1.083   .     S
C784   C800    1.426   .     A
C784   C786    1.483   .     S
C785   C850    1.489   .     S
C785   C791    1.417   .     A
C785   C1045   1.395   .     S
C786   O822    1.300   .     A
C786   O823    1.306   .     A
C787   H806    1.085   .     S
C787   C788    1.393   .     A
C787   C1301   1.395   1_545 S
C788   C789    1.394   .     A
C788   C796    1.436   .     S
C789   H807    1.084   .     S
C789   C1306   1.384   1_545 S
C790   C791    1.399   .     A
C790   H808    1.082   .     S
C790   C1047   1.384   .     S
C792   H809    1.083   .     S
C792   N819    1.351   .     A
C792   C879    1.412   .     S
C793   C828    1.471   .     S
C793   N818    1.392   .     A
C793   C964    1.412   1_455 S
C794   N818    1.368   .     A
C794   H810    1.081   .     S
C794   C967    1.421   1_455 S
C795   N819    1.370   .     A
C795   H811    1.081   .     S
C795   C880    1.421   .     S
C796   O824    1.292   .     A
C796   O825    1.294   .     A
C797   O827    1.298   .     A
C797   O826    1.303   .     A
C797   C799    1.470   .     S
C800   C801    1.391   .     A
C800   C839    1.477   .     S
C801   C28     1.382   1_556 S
C801   H42     1.084   1_556 S
C802   H815    1.078   .     S
Cu803  Cu804   2.694   .     S
Cu803  O824    1.947   .     S
Cu803  O822    1.948   .     S
Cu803  N818    2.025   .     S
Cu803  O820    1.953   .     S
Cu803  O826    1.941   .     S
Cu804  O825    1.953   .     S
Cu804  N819    2.025   .     S
Cu804  O827    1.948   .     S
Cu804  O821    1.947   .     S
Cu804  O823    1.941   .     S
H813   C24     1.084   1_556 S
C828   C833    1.396   .     A
C828   C829    1.405   .     A
C829   H834    1.081   .     S
C829   C830    1.400   .     A
C830   C831    1.397   .     A
C830   H1093   1.082   .     S
C831   C832    1.397   .     A
C831   H1094   1.082   .     S
C832   C833    1.397   .     A
C832   H837    1.082   .     S
C833   H838    1.074   .     S
H835   C1346   1.082   1_545 S
H836   C1347   1.082   1_545 S
C839   C840    1.403   .     A
C839   C844    1.403   .     A
C840   H845    1.083   .     S
C840   C1013   1.399   1_455 S
C841   H846    1.081   .     S
C841   C842    1.397   .     A
C841   C926    1.399   .     S
C842   H847    1.082   .     S
C842   C929    1.398   .     S
C843   H848    1.082   .     S
C843   C844    1.398   .     A
C843   C1014   1.398   1_455 S
C844   H849    1.083   .     S
C850   C851    1.406   .     A
C850   C855    1.408   .     A
C851   C852    1.399   .     A
C851   H856    1.080   .     S
C852   H857    1.081   .     S
C852   C853    1.395   .     A
C853   H858    1.082   .     S
C853   C854    1.395   .     A
C854   C855    1.398   .     A
C854   H945    1.080   .     S
C855   H860    1.083   .     S
H859   C1026   1.080   1_455 S
C861   O906    1.297   .     A
C861   O907    1.290   .     A
C861   C877    1.443   .     S
C862   C863    1.413   .     A
C862   C90     1.416   1_556 S
C862   C114    1.409   1_556 S
C863   C867    1.416   .     A
C863   C870    1.427   .     A
C864   C868    1.395   .     A
C865   C866    1.396   .     A
C865   C90     1.413   1_556 S
C865   C110    1.408   1_556 S
C866   H898    1.084   .     S
C866   C867    1.396   .     A
C867   H903    1.079   .     S
C868   C885    1.388   .     A
C868   H900    1.065   .     S
C869   C885    1.402   .     A
C869   C884    1.401   .     A
C869   H891    1.083   .     S
C870   C886    1.426   .     A
C870   C872    1.483   .     S
C871   C936    1.489   .     S
C871   C877    1.417   .     A
C871   C1131   1.395   .     S
C872   O908    1.300   .     A
C872   O909    1.306   .     A
C873   H892    1.085   .     S
C873   C874    1.393   .     A
C873   C1387   1.395   1_545 S
C874   C875    1.394   .     A
C874   C882    1.436   .     S
C875   H893    1.084   .     S
C875   C1392   1.384   1_545 S
C876   C877    1.399   .     A
C876   H894    1.082   .     S
C876   C1133   1.384   .     S
C878   H895    1.083   .     S
C878   N905    1.351   .     A
C878   C965    1.412   .     S
C879   C914    1.471   .     S
C879   N904    1.392   .     A
C880   N904    1.368   .     A
C880   H896    1.081   .     S
C881   N905    1.370   .     A
C881   H897    1.081   .     S
C881   C966    1.421   .     S
C882   O910    1.292   .     A
C882   O911    1.294   .     A
C883   O913    1.298   .     A
C883   O912    1.303   .     A
C883   C885    1.470   .     S
C886   C887    1.391   .     A
C886   C925    1.477   .     S
C887   C114    1.382   1_556 S
C887   H128    1.084   1_556 S
C888   H901    1.078   .     S
Cu889  Cu890   2.694   .     S
Cu889  O910    1.947   .     S
Cu889  O908    1.948   .     S
Cu889  N904    2.025   .     S
Cu889  O906    1.953   .     S
Cu889  O912    1.941   .     S
Cu890  O911    1.953   .     S
Cu890  N905    2.025   .     S
Cu890  O913    1.948   .     S
Cu890  O907    1.947   .     S
Cu890  O909    1.941   .     S
H899   C110    1.084   1_556 S
C914   C919    1.396   .     A
C914   C915    1.405   .     A
C915   H920    1.081   .     S
C915   C916    1.400   .     A
C916   C917    1.397   .     A
C916   H1179   1.082   .     S
C917   C918    1.397   .     A
C917   H1180   1.082   .     S
C918   C919    1.397   .     A
C918   H923    1.082   .     S
C919   H924    1.074   .     S
H921   C1432   1.082   1_545 S
H922   C1433   1.082   1_545 S
C925   C926    1.403   .     A
C925   C930    1.403   .     A
C926   H931    1.083   .     S
C927   H932    1.081   .     S
C927   C928    1.397   .     A
C927   C1012   1.399   .     S
C928   H933    1.082   .     S
C928   C1015   1.398   .     S
C929   H934    1.082   .     S
C929   C930    1.398   .     A
C930   H935    1.083   .     S
C936   C937    1.406   .     A
C936   C941    1.408   .     A
C937   C938    1.399   .     A
C937   H942    1.080   .     S
C938   H943    1.081   .     S
C938   C939    1.395   .     A
C939   H944    1.082   .     S
C939   C940    1.395   .     A
C940   C941    1.398   .     A
C940   H1031   1.080   .     S
C941   H946    1.083   .     S
C947   O992    1.297   .     A
C947   O993    1.290   .     A
C947   C963    1.443   .     S
C948   C949    1.413   .     A
C948   C176    1.416   1_556 S
C948   C200    1.409   1_556 S
C949   C953    1.416   .     A
C949   C956    1.427   .     A
C950   C954    1.395   .     A
C951   C952    1.396   .     A
C951   C176    1.413   1_556 S
C951   C196    1.408   1_556 S
C952   H984    1.084   .     S
C952   C953    1.396   .     A
C953   H989    1.079   .     S
C954   C971    1.388   .     A
C954   H986    1.065   .     S
C955   C971    1.402   .     A
C955   C970    1.401   .     A
C955   H977    1.083   .     S
C956   C972    1.426   .     A
C956   C958    1.483   .     S
C957   C1022   1.489   .     S
C957   C963    1.417   .     A
C957   C1217   1.395   .     S
C958   O994    1.300   .     A
C958   O995    1.306   .     A
C959   H978    1.085   .     S
C959   C960    1.393   .     A
C959   C1473   1.395   1_545 S
C960   C961    1.394   .     A
C960   C968    1.436   .     S
C961   H979    1.084   .     S
C961   C1478   1.384   1_545 S
C962   C963    1.399   .     A
C962   H980    1.082   .     S
C962   C1219   1.384   .     S
C964   H981    1.083   .     S
C964   N991    1.351   .     A
C964   C793    1.412   1_655 S
C965   C1000   1.471   .     S
C965   N990    1.392   .     A
C966   N990    1.368   .     A
C966   H982    1.081   .     S
C967   N991    1.370   .     A
C967   H983    1.081   .     S
C967   C794    1.421   1_655 S
C968   O996    1.292   .     A
C968   O997    1.294   .     A
C969   O999    1.298   .     A
C969   O998    1.303   .     A
C969   C971    1.470   .     S
C972   C973    1.391   .     A
C972   C1011   1.477   .     S
C973   C200    1.382   1_556 S
C973   H214    1.084   1_556 S
C974   H987    1.078   .     S
Cu975  Cu976   2.694   .     S
Cu975  O996    1.947   .     S
Cu975  O994    1.948   .     S
Cu975  N990    2.025   .     S
Cu975  O992    1.953   .     S
Cu975  O998    1.941   .     S
Cu976  O997    1.953   .     S
Cu976  N991    2.025   .     S
Cu976  O999    1.948   .     S
Cu976  O993    1.947   .     S
Cu976  O995    1.941   .     S
H985   C196    1.084   1_556 S
C1000  C1005   1.396   .     A
C1000  C1001   1.405   .     A
C1001  H1006   1.081   .     S
C1001  C1002   1.400   .     A
C1002  C1003   1.397   .     A
C1002  H1265   1.082   .     S
C1003  C1004   1.397   .     A
C1003  H1266   1.082   .     S
C1004  C1005   1.397   .     A
C1004  H1009   1.082   .     S
C1005  H1010   1.074   .     S
H1007  C1518   1.082   1_545 S
H1008  C1519   1.082   1_545 S
C1011  C1012   1.403   .     A
C1011  C1016   1.403   .     A
C1012  H1017   1.083   .     S
C1013  H1018   1.081   .     S
C1013  C1014   1.397   .     A
C1013  C840    1.399   1_655 S
C1014  H1019   1.082   .     S
C1014  C843    1.398   1_655 S
C1015  H1020   1.082   .     S
C1015  C1016   1.398   .     A
C1016  H1021   1.083   .     S
C1022  C1023   1.406   .     A
C1022  C1027   1.408   .     A
C1023  C1024   1.399   .     A
C1023  H1028   1.080   .     S
C1024  H1029   1.081   .     S
C1024  C1025   1.395   .     A
C1025  H1030   1.082   .     S
C1025  C1026   1.395   .     A
C1026  C1027   1.398   .     A
C1026  H859    1.080   1_655 S
C1027  H1032   1.083   .     S
C1033  O1078   1.297   .     A
C1033  O1079   1.290   .     A
C1033  C1049   1.443   .     S
C1034  C1035   1.413   .     A
C1034  C262    1.416   1_556 S
C1034  C286    1.409   1_556 S
C1035  C1039   1.416   .     A
C1035  C1042   1.427   .     A
C1036  C1040   1.395   .     A
C1037  C1038   1.396   .     A
C1037  C262    1.413   1_556 S
C1037  C282    1.408   1_556 S
C1038  H1070   1.084   .     S
C1038  C1039   1.396   .     A
C1039  H1075   1.079   .     S
C1040  C1057   1.388   .     A
C1040  H1072   1.065   .     S
C1041  C1057   1.402   .     A
C1041  C1056   1.401   .     A
C1041  H1063   1.083   .     S
C1042  C1058   1.426   .     A
C1042  C1044   1.483   .     S
C1043  C1108   1.489   .     S
C1043  C1049   1.417   .     A
C1043  C1303   1.395   .     S
C1044  O1080   1.300   .     A
C1044  O1081   1.306   .     A
C1045  H1064   1.085   .     S
C1045  C1046   1.393   .     A
C1046  C1047   1.394   .     A
C1046  C1054   1.436   .     S
C1047  H1065   1.084   .     S
C1048  C1049   1.399   .     A
C1048  H1066   1.082   .     S
C1048  C1305   1.384   .     S
C1050  H1067   1.083   .     S
C1050  N1077   1.351   .     A
C1050  C1137   1.412   .     S
C1051  C1086   1.471   .     S
C1051  N1076   1.392   .     A
C1051  C1222   1.412   1_455 S
C1052  N1076   1.368   .     A
C1052  H1068   1.081   .     S
C1052  C1225   1.421   1_455 S
C1053  N1077   1.370   .     A
C1053  H1069   1.081   .     S
C1053  C1138   1.421   .     S
C1054  O1082   1.292   .     A
C1054  O1083   1.294   .     A
C1055  O1085   1.298   .     A
C1055  O1084   1.303   .     A
C1055  C1057   1.470   .     S
C1058  C1059   1.391   .     A
C1058  C1097   1.477   .     S
C1059  C286    1.382   1_556 S
C1059  H300    1.084   1_556 S
C1060  H1073   1.078   .     S
Cu1061 Cu1062  2.694   .     S
Cu1061 O1082   1.947   .     S
Cu1061 O1080   1.948   .     S
Cu1061 N1076   2.025   .     S
Cu1061 O1078   1.953   .     S
Cu1061 O1084   1.941   .     S
Cu1062 O1083   1.953   .     S
Cu1062 N1077   2.025   .     S
Cu1062 O1085   1.948   .     S
Cu1062 O1079   1.947   .     S
Cu1062 O1081   1.941   .     S
H1071  C282    1.084   1_556 S
C1086  C1091   1.396   .     A
C1086  C1087   1.405   .     A
C1087  H1092   1.081   .     S
C1087  C1088   1.400   .     A
C1088  C1089   1.397   .     A
C1088  H1351   1.082   .     S
C1089  C1090   1.397   .     A
C1089  H1352   1.082   .     S
C1090  C1091   1.397   .     A
C1090  H1095   1.082   .     S
C1091  H1096   1.074   .     S
C1097  C1098   1.403   .     A
C1097  C1102   1.403   .     A
C1098  H1103   1.083   .     S
C1098  C1271   1.399   1_455 S
C1099  H1104   1.081   .     S
C1099  C1100   1.397   .     A
C1099  C1184   1.399   .     S
C1100  H1105   1.082   .     S
C1100  C1187   1.398   .     S
C1101  H1106   1.082   .     S
C1101  C1102   1.398   .     A
C1101  C1272   1.398   1_455 S
C1102  H1107   1.083   .     S
C1108  C1109   1.406   .     A
C1108  C1113   1.408   .     A
C1109  C1110   1.399   .     A
C1109  H1114   1.080   .     S
C1110  H1115   1.081   .     S
C1110  C1111   1.395   .     A
C1111  H1116   1.082   .     S
C1111  C1112   1.395   .     A
C1112  C1113   1.398   .     A
C1112  H1203   1.080   .     S
C1113  H1118   1.083   .     S
H1117  C1284   1.080   1_455 S
C1119  O1164   1.297   .     A
C1119  O1165   1.290   .     A
C1119  C1135   1.443   .     S
C1120  C1121   1.413   .     A
C1120  C348    1.416   1_556 S
C1120  C372    1.409   1_556 S
C1121  C1125   1.416   .     A
C1121  C1128   1.427   .     A
C1122  C1126   1.395   .     A
C1123  C1124   1.396   .     A
C1123  C348    1.413   1_556 S
C1123  C368    1.408   1_556 S
C1124  H1156   1.084   .     S
C1124  C1125   1.396   .     A
C1125  H1161   1.079   .     S
C1126  C1143   1.388   .     A
C1126  H1158   1.065   .     S
C1127  C1143   1.402   .     A
C1127  C1142   1.401   .     A
C1127  H1149   1.083   .     S
C1128  C1144   1.426   .     A
C1128  C1130   1.483   .     S
C1129  C1194   1.489   .     S
C1129  C1135   1.417   .     A
C1129  C1389   1.395   .     S
C1130  O1166   1.300   .     A
C1130  O1167   1.306   .     A
C1131  H1150   1.085   .     S
C1131  C1132   1.393   .     A
C1132  C1133   1.394   .     A
C1132  C1140   1.436   .     S
C1133  H1151   1.084   .     S
C1134  C1135   1.399   .     A
C1134  H1152   1.082   .     S
C1134  C1391   1.384   .     S
C1136  H1153   1.083   .     S
C1136  N1163   1.351   .     A
C1136  C1223   1.412   .     S
C1137  C1172   1.471   .     S
C1137  N1162   1.392   .     A
C1138  N1162   1.368   .     A
C1138  H1154   1.081   .     S
C1139  N1163   1.370   .     A
C1139  H1155   1.081   .     S
C1139  C1224   1.421   .     S
C1140  O1168   1.292   .     A
C1140  O1169   1.294   .     A
C1141  O1171   1.298   .     A
C1141  O1170   1.303   .     A
C1141  C1143   1.470   .     S
C1144  C1145   1.391   .     A
C1144  C1183   1.477   .     S
C1145  C372    1.382   1_556 S
C1145  H386    1.084   1_556 S
C1146  H1159   1.078   .     S
Cu1147 Cu1148  2.694   .     S
Cu1147 O1168   1.947   .     S
Cu1147 O1166   1.948   .     S
Cu1147 N1162   2.025   .     S
Cu1147 O1164   1.953   .     S
Cu1147 O1170   1.941   .     S
Cu1148 O1169   1.953   .     S
Cu1148 N1163   2.025   .     S
Cu1148 O1171   1.948   .     S
Cu1148 O1165   1.947   .     S
Cu1148 O1167   1.941   .     S
H1157  C368    1.084   1_556 S
C1172  C1177   1.396   .     A
C1172  C1173   1.405   .     A
C1173  H1178   1.081   .     S
C1173  C1174   1.400   .     A
C1174  C1175   1.397   .     A
C1174  H1437   1.082   .     S
C1175  C1176   1.397   .     A
C1175  H1438   1.082   .     S
C1176  C1177   1.397   .     A
C1176  H1181   1.082   .     S
C1177  H1182   1.074   .     S
C1183  C1184   1.403   .     A
C1183  C1188   1.403   .     A
C1184  H1189   1.083   .     S
C1185  H1190   1.081   .     S
C1185  C1186   1.397   .     A
C1185  C1270   1.399   .     S
C1186  H1191   1.082   .     S
C1186  C1273   1.398   .     S
C1187  H1192   1.082   .     S
C1187  C1188   1.398   .     A
C1188  H1193   1.083   .     S
C1194  C1195   1.406   .     A
C1194  C1199   1.408   .     A
C1195  C1196   1.399   .     A
C1195  H1200   1.080   .     S
C1196  H1201   1.081   .     S
C1196  C1197   1.395   .     A
C1197  H1202   1.082   .     S
C1197  C1198   1.395   .     A
C1198  C1199   1.398   .     A
C1198  H1289   1.080   .     S
C1199  H1204   1.083   .     S
C1205  O1250   1.297   .     A
C1205  O1251   1.290   .     A
C1205  C1221   1.443   .     S
C1206  C1207   1.413   .     A
C1206  C434    1.416   1_556 S
C1206  C458    1.409   1_556 S
C1207  C1211   1.416   .     A
C1207  C1214   1.427   .     A
C1208  C1212   1.395   .     A
C1209  C1210   1.396   .     A
C1209  C434    1.413   1_556 S
C1209  C454    1.408   1_556 S
C1210  H1242   1.084   .     S
C1210  C1211   1.396   .     A
C1211  H1247   1.079   .     S
C1212  C1229   1.388   .     A
C1212  H1244   1.065   .     S
C1213  C1229   1.402   .     A
C1213  C1228   1.401   .     A
C1213  H1235   1.083   .     S
C1214  C1230   1.426   .     A
C1214  C1216   1.483   .     S
C1215  C1280   1.489   .     S
C1215  C1221   1.417   .     A
C1215  C1475   1.395   .     S
C1216  O1252   1.300   .     A
C1216  O1253   1.306   .     A
C1217  H1236   1.085   .     S
C1217  C1218   1.393   .     A
C1218  C1219   1.394   .     A
C1218  C1226   1.436   .     S
C1219  H1237   1.084   .     S
C1220  C1221   1.399   .     A
C1220  H1238   1.082   .     S
C1220  C1477   1.384   .     S
C1222  H1239   1.083   .     S
C1222  N1249   1.351   .     A
C1222  C1051   1.412   1_655 S
C1223  C1258   1.471   .     S
C1223  N1248   1.392   .     A
C1224  N1248   1.368   .     A
C1224  H1240   1.081   .     S
C1225  N1249   1.370   .     A
C1225  H1241   1.081   .     S
C1225  C1052   1.421   1_655 S
C1226  O1254   1.292   .     A
C1226  O1255   1.294   .     A
C1227  O1257   1.298   .     A
C1227  O1256   1.303   .     A
C1227  C1229   1.470   .     S
C1230  C1231   1.391   .     A
C1230  C1269   1.477   .     S
C1231  C458    1.382   1_556 S
C1231  H472    1.084   1_556 S
C1232  H1245   1.078   .     S
Cu1233 Cu1234  2.694   .     S
Cu1233 O1254   1.947   .     S
Cu1233 O1252   1.948   .     S
Cu1233 N1248   2.025   .     S
Cu1233 O1250   1.953   .     S
Cu1233 O1256   1.941   .     S
Cu1234 O1255   1.953   .     S
Cu1234 N1249   2.025   .     S
Cu1234 O1257   1.948   .     S
Cu1234 O1251   1.947   .     S
Cu1234 O1253   1.941   .     S
H1243  C454    1.084   1_556 S
C1258  C1263   1.396   .     A
C1258  C1259   1.405   .     A
C1259  H1264   1.081   .     S
C1259  C1260   1.400   .     A
C1260  C1261   1.397   .     A
C1260  H1523   1.082   .     S
C1261  C1262   1.397   .     A
C1261  H1524   1.082   .     S
C1262  C1263   1.397   .     A
C1262  H1267   1.082   .     S
C1263  H1268   1.074   .     S
C1269  C1270   1.403   .     A
C1269  C1274   1.403   .     A
C1270  H1275   1.083   .     S
C1271  H1276   1.081   .     S
C1271  C1272   1.397   .     A
C1271  C1098   1.399   1_655 S
C1272  H1277   1.082   .     S
C1272  C1101   1.398   1_655 S
C1273  H1278   1.082   .     S
C1273  C1274   1.398   .     A
C1274  H1279   1.083   .     S
C1280  C1281   1.406   .     A
C1280  C1285   1.408   .     A
C1281  C1282   1.399   .     A
C1281  H1286   1.080   .     S
C1282  H1287   1.081   .     S
C1282  C1283   1.395   .     A
C1283  H1288   1.082   .     S
C1283  C1284   1.395   .     A
C1284  C1285   1.398   .     A
C1284  H1117   1.080   1_655 S
C1285  H1290   1.083   .     S
C1291  O1336   1.297   .     A
C1291  O1337   1.290   .     A
C1291  C1307   1.443   .     S
C1292  C1293   1.413   .     A
C1292  C520    1.416   1_556 S
C1292  C544    1.409   1_556 S
C1293  C1297   1.416   .     A
C1293  C1300   1.427   .     A
C1294  C1298   1.395   .     A
C1295  C1296   1.396   .     A
C1295  C520    1.413   1_556 S
C1295  C540    1.408   1_556 S
C1296  H1328   1.084   .     S
C1296  C1297   1.396   .     A
C1297  H1333   1.079   .     S
C1298  C1315   1.388   .     A
C1298  H1330   1.065   .     S
C1299  C1315   1.402   .     A
C1299  C1314   1.401   .     A
C1299  H1321   1.083   .     S
C1300  C1316   1.426   .     A
C1300  C1302   1.483   .     S
C1301  C1366   1.489   .     S
C1301  C1307   1.417   .     A
C1301  C787    1.395   1_565 S
C1302  O1338   1.300   .     A
C1302  O1339   1.306   .     A
C1303  H1322   1.085   .     S
C1303  C1304   1.393   .     A
C1304  C1305   1.394   .     A
C1304  C1312   1.436   .     S
C1305  H1323   1.084   .     S
C1306  C1307   1.399   .     A
C1306  H1324   1.082   .     S
C1306  C789    1.384   1_565 S
C1308  H1325   1.083   .     S
C1308  N1335   1.351   .     A
C1308  C1395   1.412   .     S
C1309  C1344   1.471   .     S
C1309  N1334   1.392   .     A
C1309  C1480   1.412   1_455 S
C1310  N1334   1.368   .     A
C1310  H1326   1.081   .     S
C1310  C1483   1.421   1_455 S
C1311  N1335   1.370   .     A
C1311  H1327   1.081   .     S
C1311  C1396   1.421   .     S
C1312  O1340   1.292   .     A
C1312  O1341   1.294   .     A
C1313  O1343   1.298   .     A
C1313  O1342   1.303   .     A
C1313  C1315   1.470   .     S
C1316  C1317   1.391   .     A
C1316  C1355   1.477   .     S
C1317  C544    1.382   1_556 S
C1317  H558    1.084   1_556 S
C1318  H1331   1.078   .     S
Cu1319 Cu1320  2.694   .     S
Cu1319 O1340   1.947   .     S
Cu1319 O1338   1.948   .     S
Cu1319 N1334   2.025   .     S
Cu1319 O1336   1.953   .     S
Cu1319 O1342   1.941   .     S
Cu1320 O1341   1.953   .     S
Cu1320 N1335   2.025   .     S
Cu1320 O1343   1.948   .     S
Cu1320 O1337   1.947   .     S
Cu1320 O1339   1.941   .     S
H1329  C540    1.084   1_556 S
C1344  C1349   1.396   .     A
C1344  C1345   1.405   .     A
C1345  H1350   1.081   .     S
C1345  C1346   1.400   .     A
C1346  C1347   1.397   .     A
C1346  H835    1.082   1_565 S
C1347  C1348   1.397   .     A
C1347  H836    1.082   1_565 S
C1348  C1349   1.397   .     A
C1348  H1353   1.082   .     S
C1349  H1354   1.074   .     S
C1355  C1356   1.403   .     A
C1355  C1360   1.403   .     A
C1356  H1361   1.083   .     S
C1356  C1529   1.399   1_455 S
C1357  H1362   1.081   .     S
C1357  C1358   1.397   .     A
C1357  C1442   1.399   .     S
C1358  H1363   1.082   .     S
C1358  C1445   1.398   .     S
C1359  H1364   1.082   .     S
C1359  C1360   1.398   .     A
C1359  C1530   1.398   1_455 S
C1360  H1365   1.083   .     S
C1366  C1367   1.406   .     A
C1366  C1371   1.408   .     A
C1367  C1368   1.399   .     A
C1367  H1372   1.080   .     S
C1368  H1373   1.081   .     S
C1368  C1369   1.395   .     A
C1369  H1374   1.082   .     S
C1369  C1370   1.395   .     A
C1370  C1371   1.398   .     A
C1370  H1461   1.080   .     S
C1371  H1376   1.083   .     S
H1375  C1542   1.080   1_455 S
C1377  O1422   1.297   .     A
C1377  O1423   1.290   .     A
C1377  C1393   1.443   .     S
C1378  C1379   1.413   .     A
C1378  C606    1.416   1_556 S
C1378  C630    1.409   1_556 S
C1379  C1383   1.416   .     A
C1379  C1386   1.427   .     A
C1380  C1384   1.395   .     A
C1381  C1382   1.396   .     A
C1381  C606    1.413   1_556 S
C1381  C626    1.408   1_556 S
C1382  H1414   1.084   .     S
C1382  C1383   1.396   .     A
C1383  H1419   1.079   .     S
C1384  C1401   1.388   .     A
C1384  H1416   1.065   .     S
C1385  C1401   1.402   .     A
C1385  C1400   1.401   .     A
C1385  H1407   1.083   .     S
C1386  C1402   1.426   .     A
C1386  C1388   1.483   .     S
C1387  C1452   1.489   .     S
C1387  C1393   1.417   .     A
C1387  C873    1.395   1_565 S
C1388  O1424   1.300   .     A
C1388  O1425   1.306   .     A
C1389  H1408   1.085   .     S
C1389  C1390   1.393   .     A
C1390  C1391   1.394   .     A
C1390  C1398   1.436   .     S
C1391  H1409   1.084   .     S
C1392  C1393   1.399   .     A
C1392  H1410   1.082   .     S
C1392  C875    1.384   1_565 S
C1394  H1411   1.083   .     S
C1394  N1421   1.351   .     A
C1394  C1481   1.412   .     S
C1395  C1430   1.471   .     S
C1395  N1420   1.392   .     A
C1396  N1420   1.368   .     A
C1396  H1412   1.081   .     S
C1397  N1421   1.370   .     A
C1397  H1413   1.081   .     S
C1397  C1482   1.421   .     S
C1398  O1426   1.292   .     A
C1398  O1427   1.294   .     A
C1399  O1429   1.298   .     A
C1399  O1428   1.303   .     A
C1399  C1401   1.470   .     S
C1402  C1403   1.391   .     A
C1402  C1441   1.477   .     S
C1403  C630    1.382   1_556 S
C1403  H644    1.084   1_556 S
C1404  H1417   1.078   .     S
Cu1405 Cu1406  2.694   .     S
Cu1405 O1426   1.947   .     S
Cu1405 O1424   1.948   .     S
Cu1405 N1420   2.025   .     S
Cu1405 O1422   1.953   .     S
Cu1405 O1428   1.941   .     S
Cu1406 O1427   1.953   .     S
Cu1406 N1421   2.025   .     S
Cu1406 O1429   1.948   .     S
Cu1406 O1423   1.947   .     S
Cu1406 O1425   1.941   .     S
H1415  C626    1.084   1_556 S
C1430  C1435   1.396   .     A
C1430  C1431   1.405   .     A
C1431  H1436   1.081   .     S
C1431  C1432   1.400   .     A
C1432  C1433   1.397   .     A
C1432  H921    1.082   1_565 S
C1433  C1434   1.397   .     A
C1433  H922    1.082   1_565 S
C1434  C1435   1.397   .     A
C1434  H1439   1.082   .     S
C1435  H1440   1.074   .     S
C1441  C1442   1.403   .     A
C1441  C1446   1.403   .     A
C1442  H1447   1.083   .     S
C1443  H1448   1.081   .     S
C1443  C1444   1.397   .     A
C1443  C1528   1.399   .     S
C1444  H1449   1.082   .     S
C1444  C1531   1.398   .     S
C1445  H1450   1.082   .     S
C1445  C1446   1.398   .     A
C1446  H1451   1.083   .     S
C1452  C1453   1.406   .     A
C1452  C1457   1.408   .     A
C1453  C1454   1.399   .     A
C1453  H1458   1.080   .     S
C1454  H1459   1.081   .     S
C1454  C1455   1.395   .     A
C1455  H1460   1.082   .     S
C1455  C1456   1.395   .     A
C1456  C1457   1.398   .     A
C1456  H1547   1.080   .     S
C1457  H1462   1.083   .     S
C1463  O1508   1.297   .     A
C1463  O1509   1.290   .     A
C1463  C1479   1.443   .     S
C1464  C1465   1.413   .     A
C1464  C692    1.416   1_556 S
C1464  C716    1.409   1_556 S
C1465  C1469   1.416   .     A
C1465  C1472   1.427   .     A
C1466  C1470   1.395   .     A
C1467  C1468   1.396   .     A
C1467  C692    1.413   1_556 S
C1467  C712    1.408   1_556 S
C1468  H1500   1.084   .     S
C1468  C1469   1.396   .     A
C1469  H1505   1.079   .     S
C1470  C1487   1.388   .     A
C1470  H1502   1.065   .     S
C1471  C1487   1.402   .     A
C1471  C1486   1.401   .     A
C1471  H1493   1.083   .     S
C1472  C1488   1.426   .     A
C1472  C1474   1.483   .     S
C1473  C1538   1.489   .     S
C1473  C1479   1.417   .     A
C1473  C959    1.395   1_565 S
C1474  O1510   1.300   .     A
C1474  O1511   1.306   .     A
C1475  H1494   1.085   .     S
C1475  C1476   1.393   .     A
C1476  C1477   1.394   .     A
C1476  C1484   1.436   .     S
C1477  H1495   1.084   .     S
C1478  C1479   1.399   .     A
C1478  H1496   1.082   .     S
C1478  C961    1.384   1_565 S
C1480  H1497   1.083   .     S
C1480  N1507   1.351   .     A
C1480  C1309   1.412   1_655 S
C1481  C1516   1.471   .     S
C1481  N1506   1.392   .     A
C1482  N1506   1.368   .     A
C1482  H1498   1.081   .     S
C1483  N1507   1.370   .     A
C1483  H1499   1.081   .     S
C1483  C1310   1.421   1_655 S
C1484  O1512   1.292   .     A
C1484  O1513   1.294   .     A
C1485  O1515   1.298   .     A
C1485  O1514   1.303   .     A
C1485  C1487   1.470   .     S
C1488  C1489   1.391   .     A
C1488  C1527   1.477   .     S
C1489  C716    1.382   1_556 S
C1489  H730    1.084   1_556 S
C1490  H1503   1.078   .     S
Cu1491 Cu1492  2.694   .     S
Cu1491 O1512   1.947   .     S
Cu1491 O1510   1.948   .     S
Cu1491 N1506   2.025   .     S
Cu1491 O1508   1.953   .     S
Cu1491 O1514   1.941   .     S
Cu1492 O1513   1.953   .     S
Cu1492 N1507   2.025   .     S
Cu1492 O1515   1.948   .     S
Cu1492 O1509   1.947   .     S
Cu1492 O1511   1.941   .     S
H1501  C712    1.084   1_556 S
C1516  C1521   1.396   .     A
C1516  C1517   1.405   .     A
C1517  H1522   1.081   .     S
C1517  C1518   1.400   .     A
C1518  C1519   1.397   .     A
C1518  H1007   1.082   1_565 S
C1519  C1520   1.397   .     A
C1519  H1008   1.082   1_565 S
C1520  C1521   1.397   .     A
C1520  H1525   1.082   .     S
C1521  H1526   1.074   .     S
C1527  C1528   1.403   .     A
C1527  C1532   1.403   .     A
C1528  H1533   1.083   .     S
C1529  H1534   1.081   .     S
C1529  C1530   1.397   .     A
C1529  C1356   1.399   1_655 S
C1530  H1535   1.082   .     S
C1530  C1359   1.398   1_655 S
C1531  H1536   1.082   .     S
C1531  C1532   1.398   .     A
C1532  H1537   1.083   .     S
C1538  C1539   1.406   .     A
C1538  C1543   1.408   .     A
C1539  C1540   1.399   .     A
C1539  H1544   1.080   .     S
C1540  H1545   1.081   .     S
C1540  C1541   1.395   .     A
C1541  H1546   1.082   .     S
C1541  C1542   1.395   .     A
C1542  C1543   1.398   .     A
C1542  H1375   1.080   1_655 S
C1543  H1548   1.083   .     S
