data_str_m2_o1_o10_pcu_sym.216
_audit_creation_date              2020-01-03
_audit_creation_method            'Materials Studio'
_symmetry_space_group_name_H-M    'P1'
_symmetry_Int_Tables_number       1
_symmetry_cell_setting            triclinic
loop_
_symmetry_equiv_pos_as_xyz
  x,y,z
_cell_length_a                    26.1753
_cell_length_b                    32.4248
_cell_length_c                    28.5715
_cell_angle_alpha                 89.8027
_cell_angle_beta                  97.9366
_cell_angle_gamma                 90.6182
loop_
_atom_site_label
_atom_site_type_symbol
_atom_site_fract_x
_atom_site_fract_y
_atom_site_fract_z
_atom_site_U_iso_or_equiv
_atom_site_adp_type
_atom_site_occupancy
C1     C     0.16649   0.08750   0.16676   0.00000  Uiso   1.00
C2     C     0.16684   0.24584   0.16658   0.00000  Uiso   1.00
C3     C     0.06792   0.16694   0.15458   0.00000  Uiso   1.00
C4     C     0.26541   0.16639   0.17876   0.00000  Uiso   1.00
C5     C     0.01263   0.16713   0.14792   0.00000  Uiso   1.00
C6     C     0.32070   0.16620   0.18541   0.00000  Uiso   1.00
C7     C     0.12841   0.02123   0.13619   0.00000  Uiso   1.00
C8     C     0.20493   0.31210   0.19715   0.00000  Uiso   1.00
C9     C     0.12931   0.31142   0.13546   0.00000  Uiso   1.00
C10    C     0.20402   0.02192   0.19787   0.00000  Uiso   1.00
C11    C     0.16726   0.29050   0.16626   0.00000  Uiso   1.00
C12    C     0.16607   0.04284   0.16708   0.00000  Uiso   1.00
C13    C     0.13311   0.14205   0.02064   0.00000  Uiso   1.00
C14    C     0.20022   0.19128   0.31269   0.00000  Uiso   1.00
C15    C     0.13314   0.14205   0.30438   0.00000  Uiso   1.00
C16    C     0.20019   0.19129   0.02895   0.00000  Uiso   1.00
Cu17   Cu    0.16667   0.16667   0.21355   0.00000  Uiso   1.00
Cu18   Cu    0.16667   0.16666   0.11978   0.00000  Uiso   1.00
H19    H     0.32599   0.16790   0.11194   0.00000  Uiso   1.00
H20    H     0.00734   0.16543   0.22139   0.00000  Uiso   1.00
H21    H     0.10626   0.12231   0.03600   0.00000  Uiso   1.00
H22    H     0.22708   0.21103   0.29734   0.00000  Uiso   1.00
H23    H     0.10633   0.12226   0.28238   0.00000  Uiso   1.00
H24    H     0.22700   0.21107   0.05096   0.00000  Uiso   1.00
N25    N     0.16668   0.16668   0.28403   0.00000  Uiso   1.00
N26    N     0.16665   0.16666   0.04931   0.00000  Uiso   1.00
O27    O     0.16666   0.10655   0.20625   0.00000  Uiso   1.00
O28    O     0.16667   0.22678   0.12709   0.00000  Uiso   1.00
O29    O     0.16666   0.10654   0.12706   0.00000  Uiso   1.00
O30    O     0.16667   0.22679   0.20628   0.00000  Uiso   1.00
O31    O     0.09161   0.16667   0.19712   0.00000  Uiso   1.00
O32    O     0.24172   0.16666   0.13621   0.00000  Uiso   1.00
O33    O     0.09161   0.16666   0.11793   0.00000  Uiso   1.00
O34    O     0.24172   0.16667   0.21540   0.00000  Uiso   1.00
C35    C     0.08556   0.04350   0.10751   0.00000  Uiso   1.00
O36    O     0.07627   0.03779   0.06491   0.00000  Uiso   1.00
O37    O     0.05590   0.07111   0.12950   0.00000  Uiso   1.00
H38    H     0.02766   0.08410   0.10645   0.00000  Uiso   1.00
C39    C     0.24777   0.28983   0.22582   0.00000  Uiso   1.00
O40    O     0.25706   0.29554   0.26842   0.00000  Uiso   1.00
O41    O     0.27743   0.26222   0.20384   0.00000  Uiso   1.00
H42    H     0.30567   0.24923   0.22689   0.00000  Uiso   1.00
N43    N     0.08910   0.28919   0.10692   0.00000  Uiso   1.00
H44    H     0.07324   0.26461   0.12308   0.00000  Uiso   1.00
C45    C     0.09692   0.28143   0.05845   0.00000  Uiso   1.00
H46    H     0.06193   0.29072   0.03443   0.00000  Uiso   1.00
H47    H     0.10307   0.24803   0.05317   0.00000  Uiso   1.00
H48    H     0.13063   0.29897   0.04859   0.00000  Uiso   1.00
N49    N     0.24423   0.04414   0.22642   0.00000  Uiso   1.00
H50    H     0.26009   0.06872   0.21026   0.00000  Uiso   1.00
C51    C     0.23642   0.05190   0.27488   0.00000  Uiso   1.00
H52    H     0.27140   0.04262   0.29890   0.00000  Uiso   1.00
H53    H     0.20270   0.03437   0.28474   0.00000  Uiso   1.00
H54    H     0.23026   0.08530   0.28017   0.00000  Uiso   1.00
C55    C     0.49983   0.08750   0.16676   0.00000  Uiso   1.00
C56    C     0.50017   0.24584   0.16658   0.00000  Uiso   1.00
C57    C     0.40125   0.16694   0.15458   0.00000  Uiso   1.00
C58    C     0.59875   0.16639   0.17876   0.00000  Uiso   1.00
C59    C     0.34597   0.16713   0.14792   0.00000  Uiso   1.00
C60    C     0.65403   0.16620   0.18541   0.00000  Uiso   1.00
C61    C     0.46174   0.02123   0.13619   0.00000  Uiso   1.00
C62    C     0.53826   0.31210   0.19715   0.00000  Uiso   1.00
C63    C     0.46264   0.31142   0.13546   0.00000  Uiso   1.00
C64    C     0.53736   0.02192   0.19787   0.00000  Uiso   1.00
C65    C     0.50059   0.29050   0.16626   0.00000  Uiso   1.00
C66    C     0.49940   0.04284   0.16708   0.00000  Uiso   1.00
C67    C     0.46645   0.14205   0.02064   0.00000  Uiso   1.00
C68    C     0.53355   0.19128   0.31269   0.00000  Uiso   1.00
C69    C     0.46647   0.14205   0.30438   0.00000  Uiso   1.00
C70    C     0.53353   0.19129   0.02895   0.00000  Uiso   1.00
Cu71   Cu    0.50000   0.16667   0.21355   0.00000  Uiso   1.00
Cu72   Cu    0.50000   0.16666   0.11978   0.00000  Uiso   1.00
H73    H     0.65932   0.16790   0.11194   0.00000  Uiso   1.00
H74    H     0.34068   0.16543   0.22139   0.00000  Uiso   1.00
H75    H     0.43959   0.12231   0.03600   0.00000  Uiso   1.00
H76    H     0.56041   0.21103   0.29734   0.00000  Uiso   1.00
H77    H     0.43967   0.12226   0.28238   0.00000  Uiso   1.00
H78    H     0.56033   0.21107   0.05096   0.00000  Uiso   1.00
N79    N     0.50001   0.16668   0.28403   0.00000  Uiso   1.00
N80    N     0.49999   0.16666   0.04931   0.00000  Uiso   1.00
O81    O     0.50000   0.10655   0.20625   0.00000  Uiso   1.00
O82    O     0.50000   0.22678   0.12709   0.00000  Uiso   1.00
O83    O     0.50000   0.10654   0.12706   0.00000  Uiso   1.00
O84    O     0.50000   0.22679   0.20628   0.00000  Uiso   1.00
O85    O     0.42495   0.16667   0.19712   0.00000  Uiso   1.00
O86    O     0.57505   0.16666   0.13621   0.00000  Uiso   1.00
O87    O     0.42494   0.16666   0.11793   0.00000  Uiso   1.00
O88    O     0.57506   0.16667   0.21540   0.00000  Uiso   1.00
C89    C     0.41889   0.04350   0.10751   0.00000  Uiso   1.00
O90    O     0.40960   0.03779   0.06491   0.00000  Uiso   1.00
O91    O     0.38924   0.07111   0.12950   0.00000  Uiso   1.00
H92    H     0.36100   0.08410   0.10645   0.00000  Uiso   1.00
C93    C     0.58111   0.28983   0.22582   0.00000  Uiso   1.00
O94    O     0.59040   0.29554   0.26842   0.00000  Uiso   1.00
O95    O     0.61076   0.26222   0.20384   0.00000  Uiso   1.00
H96    H     0.63900   0.24923   0.22689   0.00000  Uiso   1.00
N97    N     0.42244   0.28919   0.10692   0.00000  Uiso   1.00
H98    H     0.40658   0.26461   0.12308   0.00000  Uiso   1.00
C99    C     0.43025   0.28143   0.05845   0.00000  Uiso   1.00
H100   H     0.39527   0.29072   0.03443   0.00000  Uiso   1.00
H101   H     0.43640   0.24803   0.05317   0.00000  Uiso   1.00
H102   H     0.46396   0.29897   0.04859   0.00000  Uiso   1.00
N103   N     0.57756   0.04414   0.22642   0.00000  Uiso   1.00
H104   H     0.59342   0.06872   0.21026   0.00000  Uiso   1.00
C105   C     0.56975   0.05190   0.27488   0.00000  Uiso   1.00
H106   H     0.60473   0.04262   0.29890   0.00000  Uiso   1.00
H107   H     0.53604   0.03437   0.28474   0.00000  Uiso   1.00
H108   H     0.56360   0.08530   0.28017   0.00000  Uiso   1.00
C109   C     0.83316   0.08750   0.16676   0.00000  Uiso   1.00
C110   C     0.83351   0.24584   0.16658   0.00000  Uiso   1.00
C111   C     0.73459   0.16694   0.15458   0.00000  Uiso   1.00
C112   C     0.93208   0.16639   0.17876   0.00000  Uiso   1.00
C113   C     0.67930   0.16713   0.14792   0.00000  Uiso   1.00
C114   C     0.98737   0.16620   0.18541   0.00000  Uiso   1.00
C115   C     0.79507   0.02123   0.13619   0.00000  Uiso   1.00
C116   C     0.87159   0.31210   0.19715   0.00000  Uiso   1.00
C117   C     0.79598   0.31142   0.13546   0.00000  Uiso   1.00
C118   C     0.87069   0.02192   0.19787   0.00000  Uiso   1.00
C119   C     0.83393   0.29050   0.16626   0.00000  Uiso   1.00
C120   C     0.83274   0.04284   0.16708   0.00000  Uiso   1.00
C121   C     0.79978   0.14205   0.02064   0.00000  Uiso   1.00
C122   C     0.86689   0.19128   0.31269   0.00000  Uiso   1.00
C123   C     0.79981   0.14205   0.30438   0.00000  Uiso   1.00
C124   C     0.86686   0.19129   0.02895   0.00000  Uiso   1.00
Cu125  Cu    0.83333   0.16667   0.21355   0.00000  Uiso   1.00
Cu126  Cu    0.83333   0.16666   0.11978   0.00000  Uiso   1.00
H127   H     0.99266   0.16790   0.11194   0.00000  Uiso   1.00
H128   H     0.67401   0.16543   0.22139   0.00000  Uiso   1.00
H129   H     0.77292   0.12231   0.03600   0.00000  Uiso   1.00
H130   H     0.89374   0.21103   0.29734   0.00000  Uiso   1.00
H131   H     0.77300   0.12226   0.28238   0.00000  Uiso   1.00
H132   H     0.89367   0.21107   0.05096   0.00000  Uiso   1.00
N133   N     0.83335   0.16668   0.28403   0.00000  Uiso   1.00
N134   N     0.83332   0.16666   0.04931   0.00000  Uiso   1.00
O135   O     0.83333   0.10655   0.20625   0.00000  Uiso   1.00
O136   O     0.83334   0.22678   0.12709   0.00000  Uiso   1.00
O137   O     0.83333   0.10654   0.12706   0.00000  Uiso   1.00
O138   O     0.83334   0.22679   0.20628   0.00000  Uiso   1.00
O139   O     0.75828   0.16667   0.19712   0.00000  Uiso   1.00
O140   O     0.90839   0.16666   0.13621   0.00000  Uiso   1.00
O141   O     0.75828   0.16666   0.11793   0.00000  Uiso   1.00
O142   O     0.90839   0.16667   0.21540   0.00000  Uiso   1.00
C143   C     0.75223   0.04350   0.10751   0.00000  Uiso   1.00
O144   O     0.74294   0.03779   0.06491   0.00000  Uiso   1.00
O145   O     0.72257   0.07111   0.12950   0.00000  Uiso   1.00
H146   H     0.69433   0.08410   0.10645   0.00000  Uiso   1.00
C147   C     0.91444   0.28983   0.22582   0.00000  Uiso   1.00
O148   O     0.92373   0.29554   0.26842   0.00000  Uiso   1.00
O149   O     0.94410   0.26222   0.20384   0.00000  Uiso   1.00
H150   H     0.97234   0.24923   0.22689   0.00000  Uiso   1.00
N151   N     0.75577   0.28919   0.10692   0.00000  Uiso   1.00
H152   H     0.73991   0.26461   0.12308   0.00000  Uiso   1.00
C153   C     0.76358   0.28143   0.05845   0.00000  Uiso   1.00
H154   H     0.72860   0.29072   0.03443   0.00000  Uiso   1.00
H155   H     0.76974   0.24803   0.05317   0.00000  Uiso   1.00
H156   H     0.79730   0.29897   0.04859   0.00000  Uiso   1.00
N157   N     0.91090   0.04414   0.22642   0.00000  Uiso   1.00
H158   H     0.92676   0.06872   0.21026   0.00000  Uiso   1.00
C159   C     0.90308   0.05190   0.27488   0.00000  Uiso   1.00
H160   H     0.93807   0.04262   0.29890   0.00000  Uiso   1.00
H161   H     0.86937   0.03437   0.28474   0.00000  Uiso   1.00
H162   H     0.89693   0.08530   0.28017   0.00000  Uiso   1.00
C163   C     0.16649   0.42083   0.16676   0.00000  Uiso   1.00
C164   C     0.16684   0.57917   0.16658   0.00000  Uiso   1.00
C165   C     0.06792   0.50027   0.15458   0.00000  Uiso   1.00
C166   C     0.26541   0.49973   0.17876   0.00000  Uiso   1.00
C167   C     0.01263   0.50047   0.14792   0.00000  Uiso   1.00
C168   C     0.32070   0.49953   0.18541   0.00000  Uiso   1.00
C169   C     0.12841   0.35456   0.13619   0.00000  Uiso   1.00
C170   C     0.20493   0.64544   0.19715   0.00000  Uiso   1.00
C171   C     0.12931   0.64475   0.13546   0.00000  Uiso   1.00
C172   C     0.20402   0.35525   0.19787   0.00000  Uiso   1.00
C173   C     0.16726   0.62383   0.16626   0.00000  Uiso   1.00
C174   C     0.16607   0.37617   0.16708   0.00000  Uiso   1.00
C175   C     0.13311   0.47538   0.02064   0.00000  Uiso   1.00
C176   C     0.20022   0.52462   0.31269   0.00000  Uiso   1.00
C177   C     0.13314   0.47538   0.30438   0.00000  Uiso   1.00
C178   C     0.20019   0.52462   0.02895   0.00000  Uiso   1.00
Cu179  Cu    0.16667   0.50001   0.21355   0.00000  Uiso   1.00
Cu180  Cu    0.16667   0.49999   0.11978   0.00000  Uiso   1.00
H181   H     0.32599   0.50123   0.11194   0.00000  Uiso   1.00
H182   H     0.00734   0.49877   0.22139   0.00000  Uiso   1.00
H183   H     0.10626   0.45564   0.03600   0.00000  Uiso   1.00
H184   H     0.22708   0.54436   0.29734   0.00000  Uiso   1.00
H185   H     0.10633   0.45560   0.28238   0.00000  Uiso   1.00
H186   H     0.22700   0.54440   0.05096   0.00000  Uiso   1.00
N187   N     0.16668   0.50001   0.28403   0.00000  Uiso   1.00
N188   N     0.16665   0.49999   0.04931   0.00000  Uiso   1.00
O189   O     0.16666   0.43989   0.20625   0.00000  Uiso   1.00
O190   O     0.16667   0.56011   0.12709   0.00000  Uiso   1.00
O191   O     0.16666   0.43988   0.12706   0.00000  Uiso   1.00
O192   O     0.16667   0.56012   0.20628   0.00000  Uiso   1.00
O193   O     0.09161   0.50000   0.19712   0.00000  Uiso   1.00
O194   O     0.24172   0.50000   0.13621   0.00000  Uiso   1.00
O195   O     0.09161   0.49999   0.11793   0.00000  Uiso   1.00
O196   O     0.24172   0.50001   0.21540   0.00000  Uiso   1.00
C197   C     0.08556   0.37684   0.10751   0.00000  Uiso   1.00
O198   O     0.07627   0.37113   0.06491   0.00000  Uiso   1.00
O199   O     0.05590   0.40444   0.12950   0.00000  Uiso   1.00
H200   H     0.02766   0.41744   0.10645   0.00000  Uiso   1.00
C201   C     0.24777   0.62316   0.22582   0.00000  Uiso   1.00
O202   O     0.25706   0.62887   0.26842   0.00000  Uiso   1.00
O203   O     0.27743   0.59555   0.20384   0.00000  Uiso   1.00
H204   H     0.30567   0.58256   0.22689   0.00000  Uiso   1.00
N205   N     0.08910   0.62253   0.10692   0.00000  Uiso   1.00
H206   H     0.07324   0.59794   0.12308   0.00000  Uiso   1.00
C207   C     0.09692   0.61477   0.05845   0.00000  Uiso   1.00
H208   H     0.06193   0.62405   0.03443   0.00000  Uiso   1.00
H209   H     0.10307   0.58136   0.05317   0.00000  Uiso   1.00
H210   H     0.13063   0.63230   0.04859   0.00000  Uiso   1.00
N211   N     0.24423   0.37747   0.22642   0.00000  Uiso   1.00
H212   H     0.26009   0.40205   0.21026   0.00000  Uiso   1.00
C213   C     0.23642   0.38523   0.27488   0.00000  Uiso   1.00
H214   H     0.27140   0.37595   0.29890   0.00000  Uiso   1.00
H215   H     0.20270   0.36770   0.28474   0.00000  Uiso   1.00
H216   H     0.23026   0.41863   0.28017   0.00000  Uiso   1.00
C217   C     0.49983   0.42083   0.16676   0.00000  Uiso   1.00
C218   C     0.50017   0.57917   0.16658   0.00000  Uiso   1.00
C219   C     0.40125   0.50027   0.15458   0.00000  Uiso   1.00
C220   C     0.59875   0.49973   0.17876   0.00000  Uiso   1.00
C221   C     0.34597   0.50047   0.14792   0.00000  Uiso   1.00
C222   C     0.65403   0.49953   0.18541   0.00000  Uiso   1.00
C223   C     0.46174   0.35456   0.13619   0.00000  Uiso   1.00
C224   C     0.53826   0.64544   0.19715   0.00000  Uiso   1.00
C225   C     0.46264   0.64475   0.13546   0.00000  Uiso   1.00
C226   C     0.53736   0.35525   0.19787   0.00000  Uiso   1.00
C227   C     0.50059   0.62383   0.16626   0.00000  Uiso   1.00
C228   C     0.49940   0.37617   0.16708   0.00000  Uiso   1.00
C229   C     0.46645   0.47538   0.02064   0.00000  Uiso   1.00
C230   C     0.53355   0.52462   0.31269   0.00000  Uiso   1.00
C231   C     0.46647   0.47538   0.30438   0.00000  Uiso   1.00
C232   C     0.53353   0.52462   0.02895   0.00000  Uiso   1.00
Cu233  Cu    0.50000   0.50001   0.21355   0.00000  Uiso   1.00
Cu234  Cu    0.50000   0.49999   0.11978   0.00000  Uiso   1.00
H235   H     0.65932   0.50123   0.11194   0.00000  Uiso   1.00
H236   H     0.34068   0.49877   0.22139   0.00000  Uiso   1.00
H237   H     0.43959   0.45564   0.03600   0.00000  Uiso   1.00
H238   H     0.56041   0.54436   0.29734   0.00000  Uiso   1.00
H239   H     0.43967   0.45560   0.28238   0.00000  Uiso   1.00
H240   H     0.56033   0.54440   0.05096   0.00000  Uiso   1.00
N241   N     0.50001   0.50001   0.28403   0.00000  Uiso   1.00
N242   N     0.49999   0.49999   0.04931   0.00000  Uiso   1.00
O243   O     0.50000   0.43989   0.20625   0.00000  Uiso   1.00
O244   O     0.50000   0.56011   0.12709   0.00000  Uiso   1.00
O245   O     0.50000   0.43988   0.12706   0.00000  Uiso   1.00
O246   O     0.50000   0.56012   0.20628   0.00000  Uiso   1.00
O247   O     0.42495   0.50000   0.19712   0.00000  Uiso   1.00
O248   O     0.57505   0.50000   0.13621   0.00000  Uiso   1.00
O249   O     0.42494   0.49999   0.11793   0.00000  Uiso   1.00
O250   O     0.57506   0.50001   0.21540   0.00000  Uiso   1.00
C251   C     0.41889   0.37684   0.10751   0.00000  Uiso   1.00
O252   O     0.40960   0.37113   0.06491   0.00000  Uiso   1.00
O253   O     0.38924   0.40444   0.12950   0.00000  Uiso   1.00
H254   H     0.36100   0.41744   0.10645   0.00000  Uiso   1.00
C255   C     0.58111   0.62316   0.22582   0.00000  Uiso   1.00
O256   O     0.59040   0.62887   0.26842   0.00000  Uiso   1.00
O257   O     0.61076   0.59555   0.20384   0.00000  Uiso   1.00
H258   H     0.63900   0.58256   0.22689   0.00000  Uiso   1.00
N259   N     0.42244   0.62253   0.10692   0.00000  Uiso   1.00
H260   H     0.40658   0.59794   0.12308   0.00000  Uiso   1.00
C261   C     0.43025   0.61477   0.05845   0.00000  Uiso   1.00
H262   H     0.39527   0.62405   0.03443   0.00000  Uiso   1.00
H263   H     0.43640   0.58136   0.05317   0.00000  Uiso   1.00
H264   H     0.46396   0.63230   0.04859   0.00000  Uiso   1.00
N265   N     0.57756   0.37747   0.22642   0.00000  Uiso   1.00
H266   H     0.59342   0.40205   0.21026   0.00000  Uiso   1.00
C267   C     0.56975   0.38523   0.27488   0.00000  Uiso   1.00
H268   H     0.60473   0.37595   0.29890   0.00000  Uiso   1.00
H269   H     0.53604   0.36770   0.28474   0.00000  Uiso   1.00
H270   H     0.56360   0.41863   0.28017   0.00000  Uiso   1.00
C271   C     0.83316   0.42083   0.16676   0.00000  Uiso   1.00
C272   C     0.83351   0.57917   0.16658   0.00000  Uiso   1.00
C273   C     0.73459   0.50027   0.15458   0.00000  Uiso   1.00
C274   C     0.93208   0.49973   0.17876   0.00000  Uiso   1.00
C275   C     0.67930   0.50047   0.14792   0.00000  Uiso   1.00
C276   C     0.98737   0.49953   0.18541   0.00000  Uiso   1.00
C277   C     0.79507   0.35456   0.13619   0.00000  Uiso   1.00
C278   C     0.87159   0.64544   0.19715   0.00000  Uiso   1.00
C279   C     0.79598   0.64475   0.13546   0.00000  Uiso   1.00
C280   C     0.87069   0.35525   0.19787   0.00000  Uiso   1.00
C281   C     0.83393   0.62383   0.16626   0.00000  Uiso   1.00
C282   C     0.83274   0.37617   0.16708   0.00000  Uiso   1.00
C283   C     0.79978   0.47538   0.02064   0.00000  Uiso   1.00
C284   C     0.86689   0.52462   0.31269   0.00000  Uiso   1.00
C285   C     0.79981   0.47538   0.30438   0.00000  Uiso   1.00
C286   C     0.86686   0.52462   0.02895   0.00000  Uiso   1.00
Cu287  Cu    0.83333   0.50001   0.21355   0.00000  Uiso   1.00
Cu288  Cu    0.83333   0.49999   0.11978   0.00000  Uiso   1.00
H289   H     0.99266   0.50123   0.11194   0.00000  Uiso   1.00
H290   H     0.67401   0.49877   0.22139   0.00000  Uiso   1.00
H291   H     0.77292   0.45564   0.03600   0.00000  Uiso   1.00
H292   H     0.89374   0.54436   0.29734   0.00000  Uiso   1.00
H293   H     0.77300   0.45560   0.28238   0.00000  Uiso   1.00
H294   H     0.89367   0.54440   0.05096   0.00000  Uiso   1.00
N295   N     0.83335   0.50001   0.28403   0.00000  Uiso   1.00
N296   N     0.83332   0.49999   0.04931   0.00000  Uiso   1.00
O297   O     0.83333   0.43989   0.20625   0.00000  Uiso   1.00
O298   O     0.83334   0.56011   0.12709   0.00000  Uiso   1.00
O299   O     0.83333   0.43988   0.12706   0.00000  Uiso   1.00
O300   O     0.83334   0.56012   0.20628   0.00000  Uiso   1.00
O301   O     0.75828   0.50000   0.19712   0.00000  Uiso   1.00
O302   O     0.90839   0.50000   0.13621   0.00000  Uiso   1.00
O303   O     0.75828   0.49999   0.11793   0.00000  Uiso   1.00
O304   O     0.90839   0.50001   0.21540   0.00000  Uiso   1.00
C305   C     0.75223   0.37684   0.10751   0.00000  Uiso   1.00
O306   O     0.74294   0.37113   0.06491   0.00000  Uiso   1.00
O307   O     0.72257   0.40444   0.12950   0.00000  Uiso   1.00
H308   H     0.69433   0.41744   0.10645   0.00000  Uiso   1.00
C309   C     0.91444   0.62316   0.22582   0.00000  Uiso   1.00
O310   O     0.92373   0.62887   0.26842   0.00000  Uiso   1.00
O311   O     0.94410   0.59555   0.20384   0.00000  Uiso   1.00
H312   H     0.97234   0.58256   0.22689   0.00000  Uiso   1.00
N313   N     0.75577   0.62253   0.10692   0.00000  Uiso   1.00
H314   H     0.73991   0.59794   0.12308   0.00000  Uiso   1.00
C315   C     0.76358   0.61477   0.05845   0.00000  Uiso   1.00
H316   H     0.72860   0.62405   0.03443   0.00000  Uiso   1.00
H317   H     0.76974   0.58136   0.05317   0.00000  Uiso   1.00
H318   H     0.79730   0.63230   0.04859   0.00000  Uiso   1.00
N319   N     0.91090   0.37747   0.22642   0.00000  Uiso   1.00
H320   H     0.92676   0.40205   0.21026   0.00000  Uiso   1.00
C321   C     0.90308   0.38523   0.27488   0.00000  Uiso   1.00
H322   H     0.93807   0.37595   0.29890   0.00000  Uiso   1.00
H323   H     0.86937   0.36770   0.28474   0.00000  Uiso   1.00
H324   H     0.89693   0.41863   0.28017   0.00000  Uiso   1.00
C325   C     0.16649   0.75416   0.16676   0.00000  Uiso   1.00
C326   C     0.16684   0.91250   0.16658   0.00000  Uiso   1.00
C327   C     0.06792   0.83361   0.15458   0.00000  Uiso   1.00
C328   C     0.26541   0.83306   0.17876   0.00000  Uiso   1.00
C329   C     0.01263   0.83380   0.14792   0.00000  Uiso   1.00
C330   C     0.32070   0.83287   0.18541   0.00000  Uiso   1.00
C331   C     0.12841   0.68790   0.13619   0.00000  Uiso   1.00
C332   C     0.20493   0.97877   0.19715   0.00000  Uiso   1.00
C333   C     0.12931   0.97808   0.13546   0.00000  Uiso   1.00
C334   C     0.20402   0.68858   0.19787   0.00000  Uiso   1.00
C335   C     0.16726   0.95716   0.16626   0.00000  Uiso   1.00
C336   C     0.16607   0.70950   0.16708   0.00000  Uiso   1.00
C337   C     0.13311   0.80872   0.02064   0.00000  Uiso   1.00
C338   C     0.20022   0.85795   0.31269   0.00000  Uiso   1.00
C339   C     0.13314   0.80871   0.30438   0.00000  Uiso   1.00
C340   C     0.20019   0.85795   0.02895   0.00000  Uiso   1.00
Cu341  Cu    0.16667   0.83334   0.21355   0.00000  Uiso   1.00
Cu342  Cu    0.16667   0.83333   0.11978   0.00000  Uiso   1.00
H343   H     0.32599   0.83457   0.11194   0.00000  Uiso   1.00
H344   H     0.00734   0.83210   0.22139   0.00000  Uiso   1.00
H345   H     0.10626   0.78897   0.03600   0.00000  Uiso   1.00
H346   H     0.22708   0.87769   0.29734   0.00000  Uiso   1.00
H347   H     0.10633   0.78893   0.28238   0.00000  Uiso   1.00
H348   H     0.22700   0.87774   0.05096   0.00000  Uiso   1.00
N349   N     0.16668   0.83334   0.28403   0.00000  Uiso   1.00
N350   N     0.16665   0.83332   0.04931   0.00000  Uiso   1.00
O351   O     0.16666   0.77322   0.20625   0.00000  Uiso   1.00
O352   O     0.16667   0.89345   0.12709   0.00000  Uiso   1.00
O353   O     0.16666   0.77321   0.12706   0.00000  Uiso   1.00
O354   O     0.16667   0.89346   0.20628   0.00000  Uiso   1.00
O355   O     0.09161   0.83334   0.19712   0.00000  Uiso   1.00
O356   O     0.24172   0.83333   0.13621   0.00000  Uiso   1.00
O357   O     0.09161   0.83333   0.11793   0.00000  Uiso   1.00
O358   O     0.24172   0.83334   0.21540   0.00000  Uiso   1.00
C359   C     0.08556   0.71017   0.10751   0.00000  Uiso   1.00
O360   O     0.07627   0.70446   0.06491   0.00000  Uiso   1.00
O361   O     0.05590   0.73778   0.12950   0.00000  Uiso   1.00
H362   H     0.02766   0.75077   0.10645   0.00000  Uiso   1.00
C363   C     0.24777   0.95650   0.22582   0.00000  Uiso   1.00
O364   O     0.25706   0.96221   0.26842   0.00000  Uiso   1.00
O365   O     0.27743   0.92889   0.20384   0.00000  Uiso   1.00
H366   H     0.30567   0.91590   0.22689   0.00000  Uiso   1.00
N367   N     0.08910   0.95586   0.10692   0.00000  Uiso   1.00
H368   H     0.07324   0.93128   0.12308   0.00000  Uiso   1.00
C369   C     0.09692   0.94810   0.05845   0.00000  Uiso   1.00
H370   H     0.06193   0.95738   0.03443   0.00000  Uiso   1.00
H371   H     0.10307   0.91470   0.05317   0.00000  Uiso   1.00
H372   H     0.13063   0.96563   0.04859   0.00000  Uiso   1.00
N373   N     0.24423   0.71081   0.22642   0.00000  Uiso   1.00
H374   H     0.26009   0.73539   0.21026   0.00000  Uiso   1.00
C375   C     0.23642   0.71857   0.27488   0.00000  Uiso   1.00
H376   H     0.27140   0.70928   0.29890   0.00000  Uiso   1.00
H377   H     0.20270   0.70103   0.28474   0.00000  Uiso   1.00
H378   H     0.23026   0.75197   0.28017   0.00000  Uiso   1.00
C379   C     0.49983   0.75416   0.16676   0.00000  Uiso   1.00
C380   C     0.50017   0.91250   0.16658   0.00000  Uiso   1.00
C381   C     0.40125   0.83361   0.15458   0.00000  Uiso   1.00
C382   C     0.59875   0.83306   0.17876   0.00000  Uiso   1.00
C383   C     0.34597   0.83380   0.14792   0.00000  Uiso   1.00
C384   C     0.65403   0.83287   0.18541   0.00000  Uiso   1.00
C385   C     0.46174   0.68790   0.13619   0.00000  Uiso   1.00
C386   C     0.53826   0.97877   0.19715   0.00000  Uiso   1.00
C387   C     0.46264   0.97808   0.13546   0.00000  Uiso   1.00
C388   C     0.53736   0.68858   0.19787   0.00000  Uiso   1.00
C389   C     0.50059   0.95716   0.16626   0.00000  Uiso   1.00
C390   C     0.49940   0.70950   0.16708   0.00000  Uiso   1.00
C391   C     0.46645   0.80872   0.02064   0.00000  Uiso   1.00
C392   C     0.53355   0.85795   0.31269   0.00000  Uiso   1.00
C393   C     0.46647   0.80871   0.30438   0.00000  Uiso   1.00
C394   C     0.53353   0.85795   0.02895   0.00000  Uiso   1.00
Cu395  Cu    0.50000   0.83334   0.21355   0.00000  Uiso   1.00
Cu396  Cu    0.50000   0.83333   0.11978   0.00000  Uiso   1.00
H397   H     0.65932   0.83457   0.11194   0.00000  Uiso   1.00
H398   H     0.34068   0.83210   0.22139   0.00000  Uiso   1.00
H399   H     0.43959   0.78897   0.03600   0.00000  Uiso   1.00
H400   H     0.56041   0.87769   0.29734   0.00000  Uiso   1.00
H401   H     0.43967   0.78893   0.28238   0.00000  Uiso   1.00
H402   H     0.56033   0.87774   0.05096   0.00000  Uiso   1.00
N403   N     0.50001   0.83334   0.28403   0.00000  Uiso   1.00
N404   N     0.49999   0.83332   0.04931   0.00000  Uiso   1.00
O405   O     0.50000   0.77322   0.20625   0.00000  Uiso   1.00
O406   O     0.50000   0.89345   0.12709   0.00000  Uiso   1.00
O407   O     0.50000   0.77321   0.12706   0.00000  Uiso   1.00
O408   O     0.50000   0.89346   0.20628   0.00000  Uiso   1.00
O409   O     0.42495   0.83334   0.19712   0.00000  Uiso   1.00
O410   O     0.57505   0.83333   0.13621   0.00000  Uiso   1.00
O411   O     0.42494   0.83333   0.11793   0.00000  Uiso   1.00
O412   O     0.57506   0.83334   0.21540   0.00000  Uiso   1.00
C413   C     0.41889   0.71017   0.10751   0.00000  Uiso   1.00
O414   O     0.40960   0.70446   0.06491   0.00000  Uiso   1.00
O415   O     0.38924   0.73778   0.12950   0.00000  Uiso   1.00
H416   H     0.36100   0.75077   0.10645   0.00000  Uiso   1.00
C417   C     0.58111   0.95650   0.22582   0.00000  Uiso   1.00
O418   O     0.59040   0.96221   0.26842   0.00000  Uiso   1.00
O419   O     0.61076   0.92889   0.20384   0.00000  Uiso   1.00
H420   H     0.63900   0.91590   0.22689   0.00000  Uiso   1.00
N421   N     0.42244   0.95586   0.10692   0.00000  Uiso   1.00
H422   H     0.40658   0.93128   0.12308   0.00000  Uiso   1.00
C423   C     0.43025   0.94810   0.05845   0.00000  Uiso   1.00
H424   H     0.39527   0.95738   0.03443   0.00000  Uiso   1.00
H425   H     0.43640   0.91470   0.05317   0.00000  Uiso   1.00
H426   H     0.46396   0.96563   0.04859   0.00000  Uiso   1.00
N427   N     0.57756   0.71081   0.22642   0.00000  Uiso   1.00
H428   H     0.59342   0.73539   0.21026   0.00000  Uiso   1.00
C429   C     0.56975   0.71857   0.27488   0.00000  Uiso   1.00
H430   H     0.60473   0.70928   0.29890   0.00000  Uiso   1.00
H431   H     0.53604   0.70103   0.28474   0.00000  Uiso   1.00
H432   H     0.56360   0.75197   0.28017   0.00000  Uiso   1.00
C433   C     0.83316   0.75416   0.16676   0.00000  Uiso   1.00
C434   C     0.83351   0.91250   0.16658   0.00000  Uiso   1.00
C435   C     0.73459   0.83361   0.15458   0.00000  Uiso   1.00
C436   C     0.93208   0.83306   0.17876   0.00000  Uiso   1.00
C437   C     0.67930   0.83380   0.14792   0.00000  Uiso   1.00
C438   C     0.98737   0.83287   0.18541   0.00000  Uiso   1.00
C439   C     0.79507   0.68790   0.13619   0.00000  Uiso   1.00
C440   C     0.87159   0.97877   0.19715   0.00000  Uiso   1.00
C441   C     0.79598   0.97808   0.13546   0.00000  Uiso   1.00
C442   C     0.87069   0.68858   0.19787   0.00000  Uiso   1.00
C443   C     0.83393   0.95716   0.16626   0.00000  Uiso   1.00
C444   C     0.83274   0.70950   0.16708   0.00000  Uiso   1.00
C445   C     0.79978   0.80872   0.02064   0.00000  Uiso   1.00
C446   C     0.86689   0.85795   0.31269   0.00000  Uiso   1.00
C447   C     0.79981   0.80871   0.30438   0.00000  Uiso   1.00
C448   C     0.86686   0.85795   0.02895   0.00000  Uiso   1.00
Cu449  Cu    0.83333   0.83334   0.21355   0.00000  Uiso   1.00
Cu450  Cu    0.83333   0.83333   0.11978   0.00000  Uiso   1.00
H451   H     0.99266   0.83457   0.11194   0.00000  Uiso   1.00
H452   H     0.67401   0.83210   0.22139   0.00000  Uiso   1.00
H453   H     0.77292   0.78897   0.03600   0.00000  Uiso   1.00
H454   H     0.89374   0.87769   0.29734   0.00000  Uiso   1.00
H455   H     0.77300   0.78893   0.28238   0.00000  Uiso   1.00
H456   H     0.89367   0.87774   0.05096   0.00000  Uiso   1.00
N457   N     0.83335   0.83334   0.28403   0.00000  Uiso   1.00
N458   N     0.83332   0.83332   0.04931   0.00000  Uiso   1.00
O459   O     0.83333   0.77322   0.20625   0.00000  Uiso   1.00
O460   O     0.83334   0.89345   0.12709   0.00000  Uiso   1.00
O461   O     0.83333   0.77321   0.12706   0.00000  Uiso   1.00
O462   O     0.83334   0.89346   0.20628   0.00000  Uiso   1.00
O463   O     0.75828   0.83334   0.19712   0.00000  Uiso   1.00
O464   O     0.90839   0.83333   0.13621   0.00000  Uiso   1.00
O465   O     0.75828   0.83333   0.11793   0.00000  Uiso   1.00
O466   O     0.90839   0.83334   0.21540   0.00000  Uiso   1.00
C467   C     0.75223   0.71017   0.10751   0.00000  Uiso   1.00
O468   O     0.74294   0.70446   0.06491   0.00000  Uiso   1.00
O469   O     0.72257   0.73778   0.12950   0.00000  Uiso   1.00
H470   H     0.69433   0.75077   0.10645   0.00000  Uiso   1.00
C471   C     0.91444   0.95650   0.22582   0.00000  Uiso   1.00
O472   O     0.92373   0.96221   0.26842   0.00000  Uiso   1.00
O473   O     0.94410   0.92889   0.20384   0.00000  Uiso   1.00
H474   H     0.97234   0.91590   0.22689   0.00000  Uiso   1.00
N475   N     0.75577   0.95586   0.10692   0.00000  Uiso   1.00
H476   H     0.73991   0.93128   0.12308   0.00000  Uiso   1.00
C477   C     0.76358   0.94810   0.05845   0.00000  Uiso   1.00
H478   H     0.72860   0.95738   0.03443   0.00000  Uiso   1.00
H479   H     0.76974   0.91470   0.05317   0.00000  Uiso   1.00
H480   H     0.79730   0.96563   0.04859   0.00000  Uiso   1.00
N481   N     0.91090   0.71081   0.22642   0.00000  Uiso   1.00
H482   H     0.92676   0.73539   0.21026   0.00000  Uiso   1.00
C483   C     0.90308   0.71857   0.27488   0.00000  Uiso   1.00
H484   H     0.93807   0.70928   0.29890   0.00000  Uiso   1.00
H485   H     0.86937   0.70103   0.28474   0.00000  Uiso   1.00
H486   H     0.89693   0.75197   0.28017   0.00000  Uiso   1.00
C487   C     0.16649   0.08750   0.50009   0.00000  Uiso   1.00
C488   C     0.16684   0.24584   0.49991   0.00000  Uiso   1.00
C489   C     0.06792   0.16694   0.48791   0.00000  Uiso   1.00
C490   C     0.26541   0.16639   0.51209   0.00000  Uiso   1.00
C491   C     0.01263   0.16713   0.48125   0.00000  Uiso   1.00
C492   C     0.32070   0.16620   0.51875   0.00000  Uiso   1.00
C493   C     0.12841   0.02123   0.46952   0.00000  Uiso   1.00
C494   C     0.20493   0.31210   0.53048   0.00000  Uiso   1.00
C495   C     0.12931   0.31142   0.46880   0.00000  Uiso   1.00
C496   C     0.20402   0.02192   0.53120   0.00000  Uiso   1.00
C497   C     0.16726   0.29050   0.49959   0.00000  Uiso   1.00
C498   C     0.16607   0.04284   0.50041   0.00000  Uiso   1.00
C499   C     0.13311   0.14205   0.35398   0.00000  Uiso   1.00
C500   C     0.20022   0.19128   0.64602   0.00000  Uiso   1.00
C501   C     0.13314   0.14205   0.63771   0.00000  Uiso   1.00
C502   C     0.20019   0.19129   0.36229   0.00000  Uiso   1.00
Cu503  Cu    0.16667   0.16667   0.54689   0.00000  Uiso   1.00
Cu504  Cu    0.16667   0.16666   0.45311   0.00000  Uiso   1.00
H505   H     0.32599   0.16790   0.44528   0.00000  Uiso   1.00
H506   H     0.00734   0.16543   0.55472   0.00000  Uiso   1.00
H507   H     0.10626   0.12231   0.36933   0.00000  Uiso   1.00
H508   H     0.22708   0.21103   0.63067   0.00000  Uiso   1.00
H509   H     0.10633   0.12226   0.61571   0.00000  Uiso   1.00
H510   H     0.22700   0.21107   0.38429   0.00000  Uiso   1.00
N511   N     0.16668   0.16668   0.61736   0.00000  Uiso   1.00
N512   N     0.16665   0.16666   0.38264   0.00000  Uiso   1.00
O513   O     0.16666   0.10655   0.53958   0.00000  Uiso   1.00
O514   O     0.16667   0.22678   0.46042   0.00000  Uiso   1.00
O515   O     0.16666   0.10654   0.46039   0.00000  Uiso   1.00
O516   O     0.16667   0.22679   0.53961   0.00000  Uiso   1.00
O517   O     0.09161   0.16667   0.53046   0.00000  Uiso   1.00
O518   O     0.24172   0.16666   0.46954   0.00000  Uiso   1.00
O519   O     0.09161   0.16666   0.45127   0.00000  Uiso   1.00
O520   O     0.24172   0.16667   0.54873   0.00000  Uiso   1.00
C521   C     0.08556   0.04350   0.44084   0.00000  Uiso   1.00
O522   O     0.07627   0.03779   0.39824   0.00000  Uiso   1.00
O523   O     0.05590   0.07111   0.46283   0.00000  Uiso   1.00
H524   H     0.02766   0.08410   0.43978   0.00000  Uiso   1.00
C525   C     0.24777   0.28983   0.55916   0.00000  Uiso   1.00
O526   O     0.25706   0.29554   0.60176   0.00000  Uiso   1.00
O527   O     0.27743   0.26222   0.53717   0.00000  Uiso   1.00
H528   H     0.30567   0.24923   0.56022   0.00000  Uiso   1.00
N529   N     0.08910   0.28919   0.44025   0.00000  Uiso   1.00
H530   H     0.07324   0.26461   0.45641   0.00000  Uiso   1.00
C531   C     0.09692   0.28143   0.39179   0.00000  Uiso   1.00
H532   H     0.06193   0.29072   0.36776   0.00000  Uiso   1.00
H533   H     0.10307   0.24803   0.38650   0.00000  Uiso   1.00
H534   H     0.13063   0.29897   0.38193   0.00000  Uiso   1.00
N535   N     0.24423   0.04414   0.55975   0.00000  Uiso   1.00
H536   H     0.26009   0.06872   0.54359   0.00000  Uiso   1.00
C537   C     0.23642   0.05190   0.60821   0.00000  Uiso   1.00
H538   H     0.27140   0.04262   0.63224   0.00000  Uiso   1.00
H539   H     0.20270   0.03437   0.61807   0.00000  Uiso   1.00
H540   H     0.23026   0.08530   0.61350   0.00000  Uiso   1.00
C541   C     0.49983   0.08750   0.50009   0.00000  Uiso   1.00
C542   C     0.50017   0.24584   0.49991   0.00000  Uiso   1.00
C543   C     0.40125   0.16694   0.48791   0.00000  Uiso   1.00
C544   C     0.59875   0.16639   0.51209   0.00000  Uiso   1.00
C545   C     0.34597   0.16713   0.48125   0.00000  Uiso   1.00
C546   C     0.65403   0.16620   0.51875   0.00000  Uiso   1.00
C547   C     0.46174   0.02123   0.46952   0.00000  Uiso   1.00
C548   C     0.53826   0.31210   0.53048   0.00000  Uiso   1.00
C549   C     0.46264   0.31142   0.46880   0.00000  Uiso   1.00
C550   C     0.53736   0.02192   0.53120   0.00000  Uiso   1.00
C551   C     0.50059   0.29050   0.49959   0.00000  Uiso   1.00
C552   C     0.49940   0.04284   0.50041   0.00000  Uiso   1.00
C553   C     0.46645   0.14205   0.35398   0.00000  Uiso   1.00
C554   C     0.53355   0.19128   0.64602   0.00000  Uiso   1.00
C555   C     0.46647   0.14205   0.63771   0.00000  Uiso   1.00
C556   C     0.53353   0.19129   0.36229   0.00000  Uiso   1.00
Cu557  Cu    0.50000   0.16667   0.54689   0.00000  Uiso   1.00
Cu558  Cu    0.50000   0.16666   0.45311   0.00000  Uiso   1.00
H559   H     0.65932   0.16790   0.44528   0.00000  Uiso   1.00
H560   H     0.34068   0.16543   0.55472   0.00000  Uiso   1.00
H561   H     0.43959   0.12231   0.36933   0.00000  Uiso   1.00
H562   H     0.56041   0.21103   0.63067   0.00000  Uiso   1.00
H563   H     0.43967   0.12226   0.61571   0.00000  Uiso   1.00
H564   H     0.56033   0.21107   0.38429   0.00000  Uiso   1.00
N565   N     0.50001   0.16668   0.61736   0.00000  Uiso   1.00
N566   N     0.49999   0.16666   0.38264   0.00000  Uiso   1.00
O567   O     0.50000   0.10655   0.53958   0.00000  Uiso   1.00
O568   O     0.50000   0.22678   0.46042   0.00000  Uiso   1.00
O569   O     0.50000   0.10654   0.46039   0.00000  Uiso   1.00
O570   O     0.50000   0.22679   0.53961   0.00000  Uiso   1.00
O571   O     0.42495   0.16667   0.53046   0.00000  Uiso   1.00
O572   O     0.57505   0.16666   0.46954   0.00000  Uiso   1.00
O573   O     0.42494   0.16666   0.45127   0.00000  Uiso   1.00
O574   O     0.57506   0.16667   0.54873   0.00000  Uiso   1.00
C575   C     0.41889   0.04350   0.44084   0.00000  Uiso   1.00
O576   O     0.40960   0.03779   0.39824   0.00000  Uiso   1.00
O577   O     0.38924   0.07111   0.46283   0.00000  Uiso   1.00
H578   H     0.36100   0.08410   0.43978   0.00000  Uiso   1.00
C579   C     0.58111   0.28983   0.55916   0.00000  Uiso   1.00
O580   O     0.59040   0.29554   0.60176   0.00000  Uiso   1.00
O581   O     0.61076   0.26222   0.53717   0.00000  Uiso   1.00
H582   H     0.63900   0.24923   0.56022   0.00000  Uiso   1.00
N583   N     0.42244   0.28919   0.44025   0.00000  Uiso   1.00
H584   H     0.40658   0.26461   0.45641   0.00000  Uiso   1.00
C585   C     0.43025   0.28143   0.39179   0.00000  Uiso   1.00
H586   H     0.39527   0.29072   0.36776   0.00000  Uiso   1.00
H587   H     0.43640   0.24803   0.38650   0.00000  Uiso   1.00
H588   H     0.46396   0.29897   0.38193   0.00000  Uiso   1.00
N589   N     0.57756   0.04414   0.55975   0.00000  Uiso   1.00
H590   H     0.59342   0.06872   0.54359   0.00000  Uiso   1.00
C591   C     0.56975   0.05190   0.60821   0.00000  Uiso   1.00
H592   H     0.60473   0.04262   0.63224   0.00000  Uiso   1.00
H593   H     0.53604   0.03437   0.61807   0.00000  Uiso   1.00
H594   H     0.56360   0.08530   0.61350   0.00000  Uiso   1.00
C595   C     0.83316   0.08750   0.50009   0.00000  Uiso   1.00
C596   C     0.83351   0.24584   0.49991   0.00000  Uiso   1.00
C597   C     0.73459   0.16694   0.48791   0.00000  Uiso   1.00
C598   C     0.93208   0.16639   0.51209   0.00000  Uiso   1.00
C599   C     0.67930   0.16713   0.48125   0.00000  Uiso   1.00
C600   C     0.98737   0.16620   0.51875   0.00000  Uiso   1.00
C601   C     0.79507   0.02123   0.46952   0.00000  Uiso   1.00
C602   C     0.87159   0.31210   0.53048   0.00000  Uiso   1.00
C603   C     0.79598   0.31142   0.46880   0.00000  Uiso   1.00
C604   C     0.87069   0.02192   0.53120   0.00000  Uiso   1.00
C605   C     0.83393   0.29050   0.49959   0.00000  Uiso   1.00
C606   C     0.83274   0.04284   0.50041   0.00000  Uiso   1.00
C607   C     0.79978   0.14205   0.35398   0.00000  Uiso   1.00
C608   C     0.86689   0.19128   0.64602   0.00000  Uiso   1.00
C609   C     0.79981   0.14205   0.63771   0.00000  Uiso   1.00
C610   C     0.86686   0.19129   0.36229   0.00000  Uiso   1.00
Cu611  Cu    0.83333   0.16667   0.54689   0.00000  Uiso   1.00
Cu612  Cu    0.83333   0.16666   0.45311   0.00000  Uiso   1.00
H613   H     0.99266   0.16790   0.44528   0.00000  Uiso   1.00
H614   H     0.67401   0.16543   0.55472   0.00000  Uiso   1.00
H615   H     0.77292   0.12231   0.36933   0.00000  Uiso   1.00
H616   H     0.89374   0.21103   0.63067   0.00000  Uiso   1.00
H617   H     0.77300   0.12226   0.61571   0.00000  Uiso   1.00
H618   H     0.89367   0.21107   0.38429   0.00000  Uiso   1.00
N619   N     0.83335   0.16668   0.61736   0.00000  Uiso   1.00
N620   N     0.83332   0.16666   0.38264   0.00000  Uiso   1.00
O621   O     0.83333   0.10655   0.53958   0.00000  Uiso   1.00
O622   O     0.83334   0.22678   0.46042   0.00000  Uiso   1.00
O623   O     0.83333   0.10654   0.46039   0.00000  Uiso   1.00
O624   O     0.83334   0.22679   0.53961   0.00000  Uiso   1.00
O625   O     0.75828   0.16667   0.53046   0.00000  Uiso   1.00
O626   O     0.90839   0.16666   0.46954   0.00000  Uiso   1.00
O627   O     0.75828   0.16666   0.45127   0.00000  Uiso   1.00
O628   O     0.90839   0.16667   0.54873   0.00000  Uiso   1.00
C629   C     0.75223   0.04350   0.44084   0.00000  Uiso   1.00
O630   O     0.74294   0.03779   0.39824   0.00000  Uiso   1.00
O631   O     0.72257   0.07111   0.46283   0.00000  Uiso   1.00
H632   H     0.69433   0.08410   0.43978   0.00000  Uiso   1.00
C633   C     0.91444   0.28983   0.55916   0.00000  Uiso   1.00
O634   O     0.92373   0.29554   0.60176   0.00000  Uiso   1.00
O635   O     0.94410   0.26222   0.53717   0.00000  Uiso   1.00
H636   H     0.97234   0.24923   0.56022   0.00000  Uiso   1.00
N637   N     0.75577   0.28919   0.44025   0.00000  Uiso   1.00
H638   H     0.73991   0.26461   0.45641   0.00000  Uiso   1.00
C639   C     0.76358   0.28143   0.39179   0.00000  Uiso   1.00
H640   H     0.72860   0.29072   0.36776   0.00000  Uiso   1.00
H641   H     0.76974   0.24803   0.38650   0.00000  Uiso   1.00
H642   H     0.79730   0.29897   0.38193   0.00000  Uiso   1.00
N643   N     0.91090   0.04414   0.55975   0.00000  Uiso   1.00
H644   H     0.92676   0.06872   0.54359   0.00000  Uiso   1.00
C645   C     0.90308   0.05190   0.60821   0.00000  Uiso   1.00
H646   H     0.93807   0.04262   0.63224   0.00000  Uiso   1.00
H647   H     0.86937   0.03437   0.61807   0.00000  Uiso   1.00
H648   H     0.89693   0.08530   0.61350   0.00000  Uiso   1.00
C649   C     0.16649   0.42083   0.50009   0.00000  Uiso   1.00
C650   C     0.16684   0.57917   0.49991   0.00000  Uiso   1.00
C651   C     0.06792   0.50027   0.48791   0.00000  Uiso   1.00
C652   C     0.26541   0.49973   0.51209   0.00000  Uiso   1.00
C653   C     0.01263   0.50047   0.48125   0.00000  Uiso   1.00
C654   C     0.32070   0.49953   0.51875   0.00000  Uiso   1.00
C655   C     0.12841   0.35456   0.46952   0.00000  Uiso   1.00
C656   C     0.20493   0.64544   0.53048   0.00000  Uiso   1.00
C657   C     0.12931   0.64475   0.46880   0.00000  Uiso   1.00
C658   C     0.20402   0.35525   0.53120   0.00000  Uiso   1.00
C659   C     0.16726   0.62383   0.49959   0.00000  Uiso   1.00
C660   C     0.16607   0.37617   0.50041   0.00000  Uiso   1.00
C661   C     0.13311   0.47538   0.35398   0.00000  Uiso   1.00
C662   C     0.20022   0.52462   0.64602   0.00000  Uiso   1.00
C663   C     0.13314   0.47538   0.63771   0.00000  Uiso   1.00
C664   C     0.20019   0.52462   0.36229   0.00000  Uiso   1.00
Cu665  Cu    0.16667   0.50001   0.54689   0.00000  Uiso   1.00
Cu666  Cu    0.16667   0.49999   0.45311   0.00000  Uiso   1.00
H667   H     0.32599   0.50123   0.44528   0.00000  Uiso   1.00
H668   H     0.00734   0.49877   0.55472   0.00000  Uiso   1.00
H669   H     0.10626   0.45564   0.36933   0.00000  Uiso   1.00
H670   H     0.22708   0.54436   0.63067   0.00000  Uiso   1.00
H671   H     0.10633   0.45560   0.61571   0.00000  Uiso   1.00
H672   H     0.22700   0.54440   0.38429   0.00000  Uiso   1.00
N673   N     0.16668   0.50001   0.61736   0.00000  Uiso   1.00
N674   N     0.16665   0.49999   0.38264   0.00000  Uiso   1.00
O675   O     0.16666   0.43989   0.53958   0.00000  Uiso   1.00
O676   O     0.16667   0.56011   0.46042   0.00000  Uiso   1.00
O677   O     0.16666   0.43988   0.46039   0.00000  Uiso   1.00
O678   O     0.16667   0.56012   0.53961   0.00000  Uiso   1.00
O679   O     0.09161   0.50000   0.53046   0.00000  Uiso   1.00
O680   O     0.24172   0.50000   0.46954   0.00000  Uiso   1.00
O681   O     0.09161   0.49999   0.45127   0.00000  Uiso   1.00
O682   O     0.24172   0.50001   0.54873   0.00000  Uiso   1.00
C683   C     0.08556   0.37684   0.44084   0.00000  Uiso   1.00
O684   O     0.07627   0.37113   0.39824   0.00000  Uiso   1.00
O685   O     0.05590   0.40444   0.46283   0.00000  Uiso   1.00
H686   H     0.02766   0.41744   0.43978   0.00000  Uiso   1.00
C687   C     0.24777   0.62316   0.55916   0.00000  Uiso   1.00
O688   O     0.25706   0.62887   0.60176   0.00000  Uiso   1.00
O689   O     0.27743   0.59555   0.53717   0.00000  Uiso   1.00
H690   H     0.30567   0.58256   0.56022   0.00000  Uiso   1.00
N691   N     0.08910   0.62253   0.44025   0.00000  Uiso   1.00
H692   H     0.07324   0.59794   0.45641   0.00000  Uiso   1.00
C693   C     0.09692   0.61477   0.39179   0.00000  Uiso   1.00
H694   H     0.06193   0.62405   0.36776   0.00000  Uiso   1.00
H695   H     0.10307   0.58136   0.38650   0.00000  Uiso   1.00
H696   H     0.13063   0.63230   0.38193   0.00000  Uiso   1.00
N697   N     0.24423   0.37747   0.55975   0.00000  Uiso   1.00
H698   H     0.26009   0.40205   0.54359   0.00000  Uiso   1.00
C699   C     0.23642   0.38523   0.60821   0.00000  Uiso   1.00
H700   H     0.27140   0.37595   0.63224   0.00000  Uiso   1.00
H701   H     0.20270   0.36770   0.61807   0.00000  Uiso   1.00
H702   H     0.23026   0.41863   0.61350   0.00000  Uiso   1.00
C703   C     0.49983   0.42083   0.50009   0.00000  Uiso   1.00
C704   C     0.50017   0.57917   0.49991   0.00000  Uiso   1.00
C705   C     0.40125   0.50027   0.48791   0.00000  Uiso   1.00
C706   C     0.59875   0.49973   0.51209   0.00000  Uiso   1.00
C707   C     0.34597   0.50047   0.48125   0.00000  Uiso   1.00
C708   C     0.65403   0.49953   0.51875   0.00000  Uiso   1.00
C709   C     0.46174   0.35456   0.46952   0.00000  Uiso   1.00
C710   C     0.53826   0.64544   0.53048   0.00000  Uiso   1.00
C711   C     0.46264   0.64475   0.46880   0.00000  Uiso   1.00
C712   C     0.53736   0.35525   0.53120   0.00000  Uiso   1.00
C713   C     0.50059   0.62383   0.49959   0.00000  Uiso   1.00
C714   C     0.49940   0.37617   0.50041   0.00000  Uiso   1.00
C715   C     0.46645   0.47538   0.35398   0.00000  Uiso   1.00
C716   C     0.53355   0.52462   0.64602   0.00000  Uiso   1.00
C717   C     0.46647   0.47538   0.63771   0.00000  Uiso   1.00
C718   C     0.53353   0.52462   0.36229   0.00000  Uiso   1.00
Cu719  Cu    0.50000   0.50001   0.54689   0.00000  Uiso   1.00
Cu720  Cu    0.50000   0.49999   0.45311   0.00000  Uiso   1.00
H721   H     0.65932   0.50123   0.44528   0.00000  Uiso   1.00
H722   H     0.34068   0.49877   0.55472   0.00000  Uiso   1.00
H723   H     0.43959   0.45564   0.36933   0.00000  Uiso   1.00
H724   H     0.56041   0.54436   0.63067   0.00000  Uiso   1.00
H725   H     0.43967   0.45560   0.61571   0.00000  Uiso   1.00
H726   H     0.56033   0.54440   0.38429   0.00000  Uiso   1.00
N727   N     0.50001   0.50001   0.61736   0.00000  Uiso   1.00
N728   N     0.49999   0.49999   0.38264   0.00000  Uiso   1.00
O729   O     0.50000   0.43989   0.53958   0.00000  Uiso   1.00
O730   O     0.50000   0.56011   0.46042   0.00000  Uiso   1.00
O731   O     0.50000   0.43988   0.46039   0.00000  Uiso   1.00
O732   O     0.50000   0.56012   0.53961   0.00000  Uiso   1.00
O733   O     0.42495   0.50000   0.53046   0.00000  Uiso   1.00
O734   O     0.57505   0.50000   0.46954   0.00000  Uiso   1.00
O735   O     0.42494   0.49999   0.45127   0.00000  Uiso   1.00
O736   O     0.57506   0.50001   0.54873   0.00000  Uiso   1.00
C737   C     0.41889   0.37684   0.44084   0.00000  Uiso   1.00
O738   O     0.40960   0.37113   0.39824   0.00000  Uiso   1.00
O739   O     0.38924   0.40444   0.46283   0.00000  Uiso   1.00
H740   H     0.36100   0.41744   0.43978   0.00000  Uiso   1.00
C741   C     0.58111   0.62316   0.55916   0.00000  Uiso   1.00
O742   O     0.59040   0.62887   0.60176   0.00000  Uiso   1.00
O743   O     0.61076   0.59555   0.53717   0.00000  Uiso   1.00
H744   H     0.63900   0.58256   0.56022   0.00000  Uiso   1.00
N745   N     0.42244   0.62253   0.44025   0.00000  Uiso   1.00
H746   H     0.40658   0.59794   0.45641   0.00000  Uiso   1.00
C747   C     0.43025   0.61477   0.39179   0.00000  Uiso   1.00
H748   H     0.39527   0.62405   0.36776   0.00000  Uiso   1.00
H749   H     0.43640   0.58136   0.38650   0.00000  Uiso   1.00
H750   H     0.46396   0.63230   0.38193   0.00000  Uiso   1.00
N751   N     0.57756   0.37747   0.55975   0.00000  Uiso   1.00
H752   H     0.59342   0.40205   0.54359   0.00000  Uiso   1.00
C753   C     0.56975   0.38523   0.60821   0.00000  Uiso   1.00
H754   H     0.60473   0.37595   0.63224   0.00000  Uiso   1.00
H755   H     0.53604   0.36770   0.61807   0.00000  Uiso   1.00
H756   H     0.56360   0.41863   0.61350   0.00000  Uiso   1.00
C757   C     0.83316   0.42083   0.50009   0.00000  Uiso   1.00
C758   C     0.83351   0.57917   0.49991   0.00000  Uiso   1.00
C759   C     0.73459   0.50027   0.48791   0.00000  Uiso   1.00
C760   C     0.93208   0.49973   0.51209   0.00000  Uiso   1.00
C761   C     0.67930   0.50047   0.48125   0.00000  Uiso   1.00
C762   C     0.98737   0.49953   0.51875   0.00000  Uiso   1.00
C763   C     0.79507   0.35456   0.46952   0.00000  Uiso   1.00
C764   C     0.87159   0.64544   0.53048   0.00000  Uiso   1.00
C765   C     0.79598   0.64475   0.46880   0.00000  Uiso   1.00
C766   C     0.87069   0.35525   0.53120   0.00000  Uiso   1.00
C767   C     0.83393   0.62383   0.49959   0.00000  Uiso   1.00
C768   C     0.83274   0.37617   0.50041   0.00000  Uiso   1.00
C769   C     0.79978   0.47538   0.35398   0.00000  Uiso   1.00
C770   C     0.86689   0.52462   0.64602   0.00000  Uiso   1.00
C771   C     0.79981   0.47538   0.63771   0.00000  Uiso   1.00
C772   C     0.86686   0.52462   0.36229   0.00000  Uiso   1.00
Cu773  Cu    0.83333   0.50001   0.54689   0.00000  Uiso   1.00
Cu774  Cu    0.83333   0.49999   0.45311   0.00000  Uiso   1.00
H775   H     0.99266   0.50123   0.44528   0.00000  Uiso   1.00
H776   H     0.67401   0.49877   0.55472   0.00000  Uiso   1.00
H777   H     0.77292   0.45564   0.36933   0.00000  Uiso   1.00
H778   H     0.89374   0.54436   0.63067   0.00000  Uiso   1.00
H779   H     0.77300   0.45560   0.61571   0.00000  Uiso   1.00
H780   H     0.89367   0.54440   0.38429   0.00000  Uiso   1.00
N781   N     0.83335   0.50001   0.61736   0.00000  Uiso   1.00
N782   N     0.83332   0.49999   0.38264   0.00000  Uiso   1.00
O783   O     0.83333   0.43989   0.53958   0.00000  Uiso   1.00
O784   O     0.83334   0.56011   0.46042   0.00000  Uiso   1.00
O785   O     0.83333   0.43988   0.46039   0.00000  Uiso   1.00
O786   O     0.83334   0.56012   0.53961   0.00000  Uiso   1.00
O787   O     0.75828   0.50000   0.53046   0.00000  Uiso   1.00
O788   O     0.90839   0.50000   0.46954   0.00000  Uiso   1.00
O789   O     0.75828   0.49999   0.45127   0.00000  Uiso   1.00
O790   O     0.90839   0.50001   0.54873   0.00000  Uiso   1.00
C791   C     0.75223   0.37684   0.44084   0.00000  Uiso   1.00
O792   O     0.74294   0.37113   0.39824   0.00000  Uiso   1.00
O793   O     0.72257   0.40444   0.46283   0.00000  Uiso   1.00
H794   H     0.69433   0.41744   0.43978   0.00000  Uiso   1.00
C795   C     0.91444   0.62316   0.55916   0.00000  Uiso   1.00
O796   O     0.92373   0.62887   0.60176   0.00000  Uiso   1.00
O797   O     0.94410   0.59555   0.53717   0.00000  Uiso   1.00
H798   H     0.97234   0.58256   0.56022   0.00000  Uiso   1.00
N799   N     0.75577   0.62253   0.44025   0.00000  Uiso   1.00
H800   H     0.73991   0.59794   0.45641   0.00000  Uiso   1.00
C801   C     0.76358   0.61477   0.39179   0.00000  Uiso   1.00
H802   H     0.72860   0.62405   0.36776   0.00000  Uiso   1.00
H803   H     0.76974   0.58136   0.38650   0.00000  Uiso   1.00
H804   H     0.79730   0.63230   0.38193   0.00000  Uiso   1.00
N805   N     0.91090   0.37747   0.55975   0.00000  Uiso   1.00
H806   H     0.92676   0.40205   0.54359   0.00000  Uiso   1.00
C807   C     0.90308   0.38523   0.60821   0.00000  Uiso   1.00
H808   H     0.93807   0.37595   0.63224   0.00000  Uiso   1.00
H809   H     0.86937   0.36770   0.61807   0.00000  Uiso   1.00
H810   H     0.89693   0.41863   0.61350   0.00000  Uiso   1.00
C811   C     0.16649   0.75416   0.50009   0.00000  Uiso   1.00
C812   C     0.16684   0.91250   0.49991   0.00000  Uiso   1.00
C813   C     0.06792   0.83361   0.48791   0.00000  Uiso   1.00
C814   C     0.26541   0.83306   0.51209   0.00000  Uiso   1.00
C815   C     0.01263   0.83380   0.48125   0.00000  Uiso   1.00
C816   C     0.32070   0.83287   0.51875   0.00000  Uiso   1.00
C817   C     0.12841   0.68790   0.46952   0.00000  Uiso   1.00
C818   C     0.20493   0.97877   0.53048   0.00000  Uiso   1.00
C819   C     0.12931   0.97808   0.46880   0.00000  Uiso   1.00
C820   C     0.20402   0.68858   0.53120   0.00000  Uiso   1.00
C821   C     0.16726   0.95716   0.49959   0.00000  Uiso   1.00
C822   C     0.16607   0.70950   0.50041   0.00000  Uiso   1.00
C823   C     0.13311   0.80872   0.35398   0.00000  Uiso   1.00
C824   C     0.20022   0.85795   0.64602   0.00000  Uiso   1.00
C825   C     0.13314   0.80871   0.63771   0.00000  Uiso   1.00
C826   C     0.20019   0.85795   0.36229   0.00000  Uiso   1.00
Cu827  Cu    0.16667   0.83334   0.54689   0.00000  Uiso   1.00
Cu828  Cu    0.16667   0.83333   0.45311   0.00000  Uiso   1.00
H829   H     0.32599   0.83457   0.44528   0.00000  Uiso   1.00
H830   H     0.00734   0.83210   0.55472   0.00000  Uiso   1.00
H831   H     0.10626   0.78897   0.36933   0.00000  Uiso   1.00
H832   H     0.22708   0.87769   0.63067   0.00000  Uiso   1.00
H833   H     0.10633   0.78893   0.61571   0.00000  Uiso   1.00
H834   H     0.22700   0.87774   0.38429   0.00000  Uiso   1.00
N835   N     0.16668   0.83334   0.61736   0.00000  Uiso   1.00
N836   N     0.16665   0.83332   0.38264   0.00000  Uiso   1.00
O837   O     0.16666   0.77322   0.53958   0.00000  Uiso   1.00
O838   O     0.16667   0.89345   0.46042   0.00000  Uiso   1.00
O839   O     0.16666   0.77321   0.46039   0.00000  Uiso   1.00
O840   O     0.16667   0.89346   0.53961   0.00000  Uiso   1.00
O841   O     0.09161   0.83334   0.53046   0.00000  Uiso   1.00
O842   O     0.24172   0.83333   0.46954   0.00000  Uiso   1.00
O843   O     0.09161   0.83333   0.45127   0.00000  Uiso   1.00
O844   O     0.24172   0.83334   0.54873   0.00000  Uiso   1.00
C845   C     0.08556   0.71017   0.44084   0.00000  Uiso   1.00
O846   O     0.07627   0.70446   0.39824   0.00000  Uiso   1.00
O847   O     0.05590   0.73778   0.46283   0.00000  Uiso   1.00
H848   H     0.02766   0.75077   0.43978   0.00000  Uiso   1.00
C849   C     0.24777   0.95650   0.55916   0.00000  Uiso   1.00
O850   O     0.25706   0.96221   0.60176   0.00000  Uiso   1.00
O851   O     0.27743   0.92889   0.53717   0.00000  Uiso   1.00
H852   H     0.30567   0.91590   0.56022   0.00000  Uiso   1.00
N853   N     0.08910   0.95586   0.44025   0.00000  Uiso   1.00
H854   H     0.07324   0.93128   0.45641   0.00000  Uiso   1.00
C855   C     0.09692   0.94810   0.39179   0.00000  Uiso   1.00
H856   H     0.06193   0.95738   0.36776   0.00000  Uiso   1.00
H857   H     0.10307   0.91470   0.38650   0.00000  Uiso   1.00
H858   H     0.13063   0.96563   0.38193   0.00000  Uiso   1.00
N859   N     0.24423   0.71081   0.55975   0.00000  Uiso   1.00
H860   H     0.26009   0.73539   0.54359   0.00000  Uiso   1.00
C861   C     0.23642   0.71857   0.60821   0.00000  Uiso   1.00
H862   H     0.27140   0.70928   0.63224   0.00000  Uiso   1.00
H863   H     0.20270   0.70103   0.61807   0.00000  Uiso   1.00
H864   H     0.23026   0.75197   0.61350   0.00000  Uiso   1.00
C865   C     0.49983   0.75416   0.50009   0.00000  Uiso   1.00
C866   C     0.50017   0.91250   0.49991   0.00000  Uiso   1.00
C867   C     0.40125   0.83361   0.48791   0.00000  Uiso   1.00
C868   C     0.59875   0.83306   0.51209   0.00000  Uiso   1.00
C869   C     0.34597   0.83380   0.48125   0.00000  Uiso   1.00
C870   C     0.65403   0.83287   0.51875   0.00000  Uiso   1.00
C871   C     0.46174   0.68790   0.46952   0.00000  Uiso   1.00
C872   C     0.53826   0.97877   0.53048   0.00000  Uiso   1.00
C873   C     0.46264   0.97808   0.46880   0.00000  Uiso   1.00
C874   C     0.53736   0.68858   0.53120   0.00000  Uiso   1.00
C875   C     0.50059   0.95716   0.49959   0.00000  Uiso   1.00
C876   C     0.49940   0.70950   0.50041   0.00000  Uiso   1.00
C877   C     0.46645   0.80872   0.35398   0.00000  Uiso   1.00
C878   C     0.53355   0.85795   0.64602   0.00000  Uiso   1.00
C879   C     0.46647   0.80871   0.63771   0.00000  Uiso   1.00
C880   C     0.53353   0.85795   0.36229   0.00000  Uiso   1.00
Cu881  Cu    0.50000   0.83334   0.54689   0.00000  Uiso   1.00
Cu882  Cu    0.50000   0.83333   0.45311   0.00000  Uiso   1.00
H883   H     0.65932   0.83457   0.44528   0.00000  Uiso   1.00
H884   H     0.34068   0.83210   0.55472   0.00000  Uiso   1.00
H885   H     0.43959   0.78897   0.36933   0.00000  Uiso   1.00
H886   H     0.56041   0.87769   0.63067   0.00000  Uiso   1.00
H887   H     0.43967   0.78893   0.61571   0.00000  Uiso   1.00
H888   H     0.56033   0.87774   0.38429   0.00000  Uiso   1.00
N889   N     0.50001   0.83334   0.61736   0.00000  Uiso   1.00
N890   N     0.49999   0.83332   0.38264   0.00000  Uiso   1.00
O891   O     0.50000   0.77322   0.53958   0.00000  Uiso   1.00
O892   O     0.50000   0.89345   0.46042   0.00000  Uiso   1.00
O893   O     0.50000   0.77321   0.46039   0.00000  Uiso   1.00
O894   O     0.50000   0.89346   0.53961   0.00000  Uiso   1.00
O895   O     0.42495   0.83334   0.53046   0.00000  Uiso   1.00
O896   O     0.57505   0.83333   0.46954   0.00000  Uiso   1.00
O897   O     0.42494   0.83333   0.45127   0.00000  Uiso   1.00
O898   O     0.57506   0.83334   0.54873   0.00000  Uiso   1.00
C899   C     0.41889   0.71017   0.44084   0.00000  Uiso   1.00
O900   O     0.40960   0.70446   0.39824   0.00000  Uiso   1.00
O901   O     0.38924   0.73778   0.46283   0.00000  Uiso   1.00
H902   H     0.36100   0.75077   0.43978   0.00000  Uiso   1.00
C903   C     0.58111   0.95650   0.55916   0.00000  Uiso   1.00
O904   O     0.59040   0.96221   0.60176   0.00000  Uiso   1.00
O905   O     0.61076   0.92889   0.53717   0.00000  Uiso   1.00
H906   H     0.63900   0.91590   0.56022   0.00000  Uiso   1.00
N907   N     0.42244   0.95586   0.44025   0.00000  Uiso   1.00
H908   H     0.40658   0.93128   0.45641   0.00000  Uiso   1.00
C909   C     0.43025   0.94810   0.39179   0.00000  Uiso   1.00
H910   H     0.39527   0.95738   0.36776   0.00000  Uiso   1.00
H911   H     0.43640   0.91470   0.38650   0.00000  Uiso   1.00
H912   H     0.46396   0.96563   0.38193   0.00000  Uiso   1.00
N913   N     0.57756   0.71081   0.55975   0.00000  Uiso   1.00
H914   H     0.59342   0.73539   0.54359   0.00000  Uiso   1.00
C915   C     0.56975   0.71857   0.60821   0.00000  Uiso   1.00
H916   H     0.60473   0.70928   0.63224   0.00000  Uiso   1.00
H917   H     0.53604   0.70103   0.61807   0.00000  Uiso   1.00
H918   H     0.56360   0.75197   0.61350   0.00000  Uiso   1.00
C919   C     0.83316   0.75416   0.50009   0.00000  Uiso   1.00
C920   C     0.83351   0.91250   0.49991   0.00000  Uiso   1.00
C921   C     0.73459   0.83361   0.48791   0.00000  Uiso   1.00
C922   C     0.93208   0.83306   0.51209   0.00000  Uiso   1.00
C923   C     0.67930   0.83380   0.48125   0.00000  Uiso   1.00
C924   C     0.98737   0.83287   0.51875   0.00000  Uiso   1.00
C925   C     0.79507   0.68790   0.46952   0.00000  Uiso   1.00
C926   C     0.87159   0.97877   0.53048   0.00000  Uiso   1.00
C927   C     0.79598   0.97808   0.46880   0.00000  Uiso   1.00
C928   C     0.87069   0.68858   0.53120   0.00000  Uiso   1.00
C929   C     0.83393   0.95716   0.49959   0.00000  Uiso   1.00
C930   C     0.83274   0.70950   0.50041   0.00000  Uiso   1.00
C931   C     0.79978   0.80872   0.35398   0.00000  Uiso   1.00
C932   C     0.86689   0.85795   0.64602   0.00000  Uiso   1.00
C933   C     0.79981   0.80871   0.63771   0.00000  Uiso   1.00
C934   C     0.86686   0.85795   0.36229   0.00000  Uiso   1.00
Cu935  Cu    0.83333   0.83334   0.54689   0.00000  Uiso   1.00
Cu936  Cu    0.83333   0.83333   0.45311   0.00000  Uiso   1.00
H937   H     0.99266   0.83457   0.44528   0.00000  Uiso   1.00
H938   H     0.67401   0.83210   0.55472   0.00000  Uiso   1.00
H939   H     0.77292   0.78897   0.36933   0.00000  Uiso   1.00
H940   H     0.89374   0.87769   0.63067   0.00000  Uiso   1.00
H941   H     0.77300   0.78893   0.61571   0.00000  Uiso   1.00
H942   H     0.89367   0.87774   0.38429   0.00000  Uiso   1.00
N943   N     0.83335   0.83334   0.61736   0.00000  Uiso   1.00
N944   N     0.83332   0.83332   0.38264   0.00000  Uiso   1.00
O945   O     0.83333   0.77322   0.53958   0.00000  Uiso   1.00
O946   O     0.83334   0.89345   0.46042   0.00000  Uiso   1.00
O947   O     0.83333   0.77321   0.46039   0.00000  Uiso   1.00
O948   O     0.83334   0.89346   0.53961   0.00000  Uiso   1.00
O949   O     0.75828   0.83334   0.53046   0.00000  Uiso   1.00
O950   O     0.90839   0.83333   0.46954   0.00000  Uiso   1.00
O951   O     0.75828   0.83333   0.45127   0.00000  Uiso   1.00
O952   O     0.90839   0.83334   0.54873   0.00000  Uiso   1.00
C953   C     0.75223   0.71017   0.44084   0.00000  Uiso   1.00
O954   O     0.74294   0.70446   0.39824   0.00000  Uiso   1.00
O955   O     0.72257   0.73778   0.46283   0.00000  Uiso   1.00
H956   H     0.69433   0.75077   0.43978   0.00000  Uiso   1.00
C957   C     0.91444   0.95650   0.55916   0.00000  Uiso   1.00
O958   O     0.92373   0.96221   0.60176   0.00000  Uiso   1.00
O959   O     0.94410   0.92889   0.53717   0.00000  Uiso   1.00
H960   H     0.97234   0.91590   0.56022   0.00000  Uiso   1.00
N961   N     0.75577   0.95586   0.44025   0.00000  Uiso   1.00
H962   H     0.73991   0.93128   0.45641   0.00000  Uiso   1.00
C963   C     0.76358   0.94810   0.39179   0.00000  Uiso   1.00
H964   H     0.72860   0.95738   0.36776   0.00000  Uiso   1.00
H965   H     0.76974   0.91470   0.38650   0.00000  Uiso   1.00
H966   H     0.79730   0.96563   0.38193   0.00000  Uiso   1.00
N967   N     0.91090   0.71081   0.55975   0.00000  Uiso   1.00
H968   H     0.92676   0.73539   0.54359   0.00000  Uiso   1.00
C969   C     0.90308   0.71857   0.60821   0.00000  Uiso   1.00
H970   H     0.93807   0.70928   0.63224   0.00000  Uiso   1.00
H971   H     0.86937   0.70103   0.61807   0.00000  Uiso   1.00
H972   H     0.89693   0.75197   0.61350   0.00000  Uiso   1.00
C973   C     0.16649   0.08750   0.83342   0.00000  Uiso   1.00
C974   C     0.16684   0.24584   0.83324   0.00000  Uiso   1.00
C975   C     0.06792   0.16694   0.82124   0.00000  Uiso   1.00
C976   C     0.26541   0.16639   0.84542   0.00000  Uiso   1.00
C977   C     0.01263   0.16713   0.81459   0.00000  Uiso   1.00
C978   C     0.32070   0.16620   0.85208   0.00000  Uiso   1.00
C979   C     0.12841   0.02123   0.80285   0.00000  Uiso   1.00
C980   C     0.20493   0.31210   0.86381   0.00000  Uiso   1.00
C981   C     0.12931   0.31142   0.80213   0.00000  Uiso   1.00
C982   C     0.20402   0.02192   0.86454   0.00000  Uiso   1.00
C983   C     0.16726   0.29050   0.83292   0.00000  Uiso   1.00
C984   C     0.16607   0.04284   0.83374   0.00000  Uiso   1.00
C985   C     0.13311   0.14205   0.68731   0.00000  Uiso   1.00
C986   C     0.20022   0.19128   0.97936   0.00000  Uiso   1.00
C987   C     0.13314   0.14205   0.97105   0.00000  Uiso   1.00
C988   C     0.20019   0.19129   0.69562   0.00000  Uiso   1.00
Cu989  Cu    0.16667   0.16667   0.88022   0.00000  Uiso   1.00
Cu990  Cu    0.16667   0.16666   0.78645   0.00000  Uiso   1.00
H991   H     0.32599   0.16790   0.77861   0.00000  Uiso   1.00
H992   H     0.00734   0.16543   0.88806   0.00000  Uiso   1.00
H993   H     0.10626   0.12231   0.70266   0.00000  Uiso   1.00
H994   H     0.22708   0.21103   0.96400   0.00000  Uiso   1.00
H995   H     0.10633   0.12226   0.94904   0.00000  Uiso   1.00
H996   H     0.22700   0.21107   0.71762   0.00000  Uiso   1.00
N997   N     0.16668   0.16668   0.95069   0.00000  Uiso   1.00
N998   N     0.16665   0.16666   0.71597   0.00000  Uiso   1.00
O999   O     0.16666   0.10655   0.87291   0.00000  Uiso   1.00
O1000  O     0.16667   0.22678   0.79375   0.00000  Uiso   1.00
O1001  O     0.16666   0.10654   0.79372   0.00000  Uiso   1.00
O1002  O     0.16667   0.22679   0.87294   0.00000  Uiso   1.00
O1003  O     0.09161   0.16667   0.86379   0.00000  Uiso   1.00
O1004  O     0.24172   0.16666   0.80288   0.00000  Uiso   1.00
O1005  O     0.09161   0.16666   0.78460   0.00000  Uiso   1.00
O1006  O     0.24172   0.16667   0.88207   0.00000  Uiso   1.00
C1007  C     0.08556   0.04350   0.77418   0.00000  Uiso   1.00
O1008  O     0.07627   0.03779   0.73158   0.00000  Uiso   1.00
O1009  O     0.05590   0.07111   0.79616   0.00000  Uiso   1.00
H1010  H     0.02766   0.08410   0.77311   0.00000  Uiso   1.00
C1011  C     0.24777   0.28983   0.89249   0.00000  Uiso   1.00
O1012  O     0.25706   0.29554   0.93509   0.00000  Uiso   1.00
O1013  O     0.27743   0.26222   0.87050   0.00000  Uiso   1.00
H1014  H     0.30567   0.24923   0.89355   0.00000  Uiso   1.00
N1015  N     0.08910   0.28919   0.77358   0.00000  Uiso   1.00
H1016  H     0.07324   0.26461   0.78974   0.00000  Uiso   1.00
C1017  C     0.09692   0.28143   0.72512   0.00000  Uiso   1.00
H1018  H     0.06193   0.29072   0.70110   0.00000  Uiso   1.00
H1019  H     0.10307   0.24803   0.71983   0.00000  Uiso   1.00
H1020  H     0.13063   0.29897   0.71526   0.00000  Uiso   1.00
N1021  N     0.24423   0.04414   0.89308   0.00000  Uiso   1.00
H1022  H     0.26009   0.06872   0.87692   0.00000  Uiso   1.00
C1023  C     0.23642   0.05190   0.94155   0.00000  Uiso   1.00
H1024  H     0.27140   0.04262   0.96557   0.00000  Uiso   1.00
H1025  H     0.20270   0.03437   0.95141   0.00000  Uiso   1.00
H1026  H     0.23026   0.08530   0.94683   0.00000  Uiso   1.00
C1027  C     0.49983   0.08750   0.83342   0.00000  Uiso   1.00
C1028  C     0.50017   0.24584   0.83324   0.00000  Uiso   1.00
C1029  C     0.40125   0.16694   0.82124   0.00000  Uiso   1.00
C1030  C     0.59875   0.16639   0.84542   0.00000  Uiso   1.00
C1031  C     0.34597   0.16713   0.81459   0.00000  Uiso   1.00
C1032  C     0.65403   0.16620   0.85208   0.00000  Uiso   1.00
C1033  C     0.46174   0.02123   0.80285   0.00000  Uiso   1.00
C1034  C     0.53826   0.31210   0.86381   0.00000  Uiso   1.00
C1035  C     0.46264   0.31142   0.80213   0.00000  Uiso   1.00
C1036  C     0.53736   0.02192   0.86454   0.00000  Uiso   1.00
C1037  C     0.50059   0.29050   0.83292   0.00000  Uiso   1.00
C1038  C     0.49940   0.04284   0.83374   0.00000  Uiso   1.00
C1039  C     0.46645   0.14205   0.68731   0.00000  Uiso   1.00
C1040  C     0.53355   0.19128   0.97936   0.00000  Uiso   1.00
C1041  C     0.46647   0.14205   0.97105   0.00000  Uiso   1.00
C1042  C     0.53353   0.19129   0.69562   0.00000  Uiso   1.00
Cu1043 Cu    0.50000   0.16667   0.88022   0.00000  Uiso   1.00
Cu1044 Cu    0.50000   0.16666   0.78645   0.00000  Uiso   1.00
H1045  H     0.65932   0.16790   0.77861   0.00000  Uiso   1.00
H1046  H     0.34068   0.16543   0.88806   0.00000  Uiso   1.00
H1047  H     0.43959   0.12231   0.70266   0.00000  Uiso   1.00
H1048  H     0.56041   0.21103   0.96400   0.00000  Uiso   1.00
H1049  H     0.43967   0.12226   0.94904   0.00000  Uiso   1.00
H1050  H     0.56033   0.21107   0.71762   0.00000  Uiso   1.00
N1051  N     0.50001   0.16668   0.95069   0.00000  Uiso   1.00
N1052  N     0.49999   0.16666   0.71597   0.00000  Uiso   1.00
O1053  O     0.50000   0.10655   0.87291   0.00000  Uiso   1.00
O1054  O     0.50000   0.22678   0.79375   0.00000  Uiso   1.00
O1055  O     0.50000   0.10654   0.79372   0.00000  Uiso   1.00
O1056  O     0.50000   0.22679   0.87294   0.00000  Uiso   1.00
O1057  O     0.42495   0.16667   0.86379   0.00000  Uiso   1.00
O1058  O     0.57505   0.16666   0.80288   0.00000  Uiso   1.00
O1059  O     0.42494   0.16666   0.78460   0.00000  Uiso   1.00
O1060  O     0.57506   0.16667   0.88207   0.00000  Uiso   1.00
C1061  C     0.41889   0.04350   0.77418   0.00000  Uiso   1.00
O1062  O     0.40960   0.03779   0.73158   0.00000  Uiso   1.00
O1063  O     0.38924   0.07111   0.79616   0.00000  Uiso   1.00
H1064  H     0.36100   0.08410   0.77311   0.00000  Uiso   1.00
C1065  C     0.58111   0.28983   0.89249   0.00000  Uiso   1.00
O1066  O     0.59040   0.29554   0.93509   0.00000  Uiso   1.00
O1067  O     0.61076   0.26222   0.87050   0.00000  Uiso   1.00
H1068  H     0.63900   0.24923   0.89355   0.00000  Uiso   1.00
N1069  N     0.42244   0.28919   0.77358   0.00000  Uiso   1.00
H1070  H     0.40658   0.26461   0.78974   0.00000  Uiso   1.00
C1071  C     0.43025   0.28143   0.72512   0.00000  Uiso   1.00
H1072  H     0.39527   0.29072   0.70110   0.00000  Uiso   1.00
H1073  H     0.43640   0.24803   0.71983   0.00000  Uiso   1.00
H1074  H     0.46396   0.29897   0.71526   0.00000  Uiso   1.00
N1075  N     0.57756   0.04414   0.89308   0.00000  Uiso   1.00
H1076  H     0.59342   0.06872   0.87692   0.00000  Uiso   1.00
C1077  C     0.56975   0.05190   0.94155   0.00000  Uiso   1.00
H1078  H     0.60473   0.04262   0.96557   0.00000  Uiso   1.00
H1079  H     0.53604   0.03437   0.95141   0.00000  Uiso   1.00
H1080  H     0.56360   0.08530   0.94683   0.00000  Uiso   1.00
C1081  C     0.83316   0.08750   0.83342   0.00000  Uiso   1.00
C1082  C     0.83351   0.24584   0.83324   0.00000  Uiso   1.00
C1083  C     0.73459   0.16694   0.82124   0.00000  Uiso   1.00
C1084  C     0.93208   0.16639   0.84542   0.00000  Uiso   1.00
C1085  C     0.67930   0.16713   0.81459   0.00000  Uiso   1.00
C1086  C     0.98737   0.16620   0.85208   0.00000  Uiso   1.00
C1087  C     0.79507   0.02123   0.80285   0.00000  Uiso   1.00
C1088  C     0.87159   0.31210   0.86381   0.00000  Uiso   1.00
C1089  C     0.79598   0.31142   0.80213   0.00000  Uiso   1.00
C1090  C     0.87069   0.02192   0.86454   0.00000  Uiso   1.00
C1091  C     0.83393   0.29050   0.83292   0.00000  Uiso   1.00
C1092  C     0.83274   0.04284   0.83374   0.00000  Uiso   1.00
C1093  C     0.79978   0.14205   0.68731   0.00000  Uiso   1.00
C1094  C     0.86689   0.19128   0.97936   0.00000  Uiso   1.00
C1095  C     0.79981   0.14205   0.97105   0.00000  Uiso   1.00
C1096  C     0.86686   0.19129   0.69562   0.00000  Uiso   1.00
Cu1097 Cu    0.83333   0.16667   0.88022   0.00000  Uiso   1.00
Cu1098 Cu    0.83333   0.16666   0.78645   0.00000  Uiso   1.00
H1099  H     0.99266   0.16790   0.77861   0.00000  Uiso   1.00
H1100  H     0.67401   0.16543   0.88806   0.00000  Uiso   1.00
H1101  H     0.77292   0.12231   0.70266   0.00000  Uiso   1.00
H1102  H     0.89374   0.21103   0.96400   0.00000  Uiso   1.00
H1103  H     0.77300   0.12226   0.94904   0.00000  Uiso   1.00
H1104  H     0.89367   0.21107   0.71762   0.00000  Uiso   1.00
N1105  N     0.83335   0.16668   0.95069   0.00000  Uiso   1.00
N1106  N     0.83332   0.16666   0.71597   0.00000  Uiso   1.00
O1107  O     0.83333   0.10655   0.87291   0.00000  Uiso   1.00
O1108  O     0.83334   0.22678   0.79375   0.00000  Uiso   1.00
O1109  O     0.83333   0.10654   0.79372   0.00000  Uiso   1.00
O1110  O     0.83334   0.22679   0.87294   0.00000  Uiso   1.00
O1111  O     0.75828   0.16667   0.86379   0.00000  Uiso   1.00
O1112  O     0.90839   0.16666   0.80288   0.00000  Uiso   1.00
O1113  O     0.75828   0.16666   0.78460   0.00000  Uiso   1.00
O1114  O     0.90839   0.16667   0.88207   0.00000  Uiso   1.00
C1115  C     0.75223   0.04350   0.77418   0.00000  Uiso   1.00
O1116  O     0.74294   0.03779   0.73158   0.00000  Uiso   1.00
O1117  O     0.72257   0.07111   0.79616   0.00000  Uiso   1.00
H1118  H     0.69433   0.08410   0.77311   0.00000  Uiso   1.00
C1119  C     0.91444   0.28983   0.89249   0.00000  Uiso   1.00
O1120  O     0.92373   0.29554   0.93509   0.00000  Uiso   1.00
O1121  O     0.94410   0.26222   0.87050   0.00000  Uiso   1.00
H1122  H     0.97234   0.24923   0.89355   0.00000  Uiso   1.00
N1123  N     0.75577   0.28919   0.77358   0.00000  Uiso   1.00
H1124  H     0.73991   0.26461   0.78974   0.00000  Uiso   1.00
C1125  C     0.76358   0.28143   0.72512   0.00000  Uiso   1.00
H1126  H     0.72860   0.29072   0.70110   0.00000  Uiso   1.00
H1127  H     0.76974   0.24803   0.71983   0.00000  Uiso   1.00
H1128  H     0.79730   0.29897   0.71526   0.00000  Uiso   1.00
N1129  N     0.91090   0.04414   0.89308   0.00000  Uiso   1.00
H1130  H     0.92676   0.06872   0.87692   0.00000  Uiso   1.00
C1131  C     0.90308   0.05190   0.94155   0.00000  Uiso   1.00
H1132  H     0.93807   0.04262   0.96557   0.00000  Uiso   1.00
H1133  H     0.86937   0.03437   0.95141   0.00000  Uiso   1.00
H1134  H     0.89693   0.08530   0.94683   0.00000  Uiso   1.00
C1135  C     0.16649   0.42083   0.83342   0.00000  Uiso   1.00
C1136  C     0.16684   0.57917   0.83324   0.00000  Uiso   1.00
C1137  C     0.06792   0.50027   0.82124   0.00000  Uiso   1.00
C1138  C     0.26541   0.49973   0.84542   0.00000  Uiso   1.00
C1139  C     0.01263   0.50047   0.81459   0.00000  Uiso   1.00
C1140  C     0.32070   0.49953   0.85208   0.00000  Uiso   1.00
C1141  C     0.12841   0.35456   0.80285   0.00000  Uiso   1.00
C1142  C     0.20493   0.64544   0.86381   0.00000  Uiso   1.00
C1143  C     0.12931   0.64475   0.80213   0.00000  Uiso   1.00
C1144  C     0.20402   0.35525   0.86454   0.00000  Uiso   1.00
C1145  C     0.16726   0.62383   0.83292   0.00000  Uiso   1.00
C1146  C     0.16607   0.37617   0.83374   0.00000  Uiso   1.00
C1147  C     0.13311   0.47538   0.68731   0.00000  Uiso   1.00
C1148  C     0.20022   0.52462   0.97936   0.00000  Uiso   1.00
C1149  C     0.13314   0.47538   0.97105   0.00000  Uiso   1.00
C1150  C     0.20019   0.52462   0.69562   0.00000  Uiso   1.00
Cu1151 Cu    0.16667   0.50001   0.88022   0.00000  Uiso   1.00
Cu1152 Cu    0.16667   0.49999   0.78645   0.00000  Uiso   1.00
H1153  H     0.32599   0.50123   0.77861   0.00000  Uiso   1.00
H1154  H     0.00734   0.49877   0.88806   0.00000  Uiso   1.00
H1155  H     0.10626   0.45564   0.70266   0.00000  Uiso   1.00
H1156  H     0.22708   0.54436   0.96400   0.00000  Uiso   1.00
H1157  H     0.10633   0.45560   0.94904   0.00000  Uiso   1.00
H1158  H     0.22700   0.54440   0.71762   0.00000  Uiso   1.00
N1159  N     0.16668   0.50001   0.95069   0.00000  Uiso   1.00
N1160  N     0.16665   0.49999   0.71597   0.00000  Uiso   1.00
O1161  O     0.16666   0.43989   0.87291   0.00000  Uiso   1.00
O1162  O     0.16667   0.56011   0.79375   0.00000  Uiso   1.00
O1163  O     0.16666   0.43988   0.79372   0.00000  Uiso   1.00
O1164  O     0.16667   0.56012   0.87294   0.00000  Uiso   1.00
O1165  O     0.09161   0.50000   0.86379   0.00000  Uiso   1.00
O1166  O     0.24172   0.50000   0.80288   0.00000  Uiso   1.00
O1167  O     0.09161   0.49999   0.78460   0.00000  Uiso   1.00
O1168  O     0.24172   0.50001   0.88207   0.00000  Uiso   1.00
C1169  C     0.08556   0.37684   0.77418   0.00000  Uiso   1.00
O1170  O     0.07627   0.37113   0.73158   0.00000  Uiso   1.00
O1171  O     0.05590   0.40444   0.79616   0.00000  Uiso   1.00
H1172  H     0.02766   0.41744   0.77311   0.00000  Uiso   1.00
C1173  C     0.24777   0.62316   0.89249   0.00000  Uiso   1.00
O1174  O     0.25706   0.62887   0.93509   0.00000  Uiso   1.00
O1175  O     0.27743   0.59555   0.87050   0.00000  Uiso   1.00
H1176  H     0.30567   0.58256   0.89355   0.00000  Uiso   1.00
N1177  N     0.08910   0.62253   0.77358   0.00000  Uiso   1.00
H1178  H     0.07324   0.59794   0.78974   0.00000  Uiso   1.00
C1179  C     0.09692   0.61477   0.72512   0.00000  Uiso   1.00
H1180  H     0.06193   0.62405   0.70110   0.00000  Uiso   1.00
H1181  H     0.10307   0.58136   0.71983   0.00000  Uiso   1.00
H1182  H     0.13063   0.63230   0.71526   0.00000  Uiso   1.00
N1183  N     0.24423   0.37747   0.89308   0.00000  Uiso   1.00
H1184  H     0.26009   0.40205   0.87692   0.00000  Uiso   1.00
C1185  C     0.23642   0.38523   0.94155   0.00000  Uiso   1.00
H1186  H     0.27140   0.37595   0.96557   0.00000  Uiso   1.00
H1187  H     0.20270   0.36770   0.95141   0.00000  Uiso   1.00
H1188  H     0.23026   0.41863   0.94683   0.00000  Uiso   1.00
C1189  C     0.49983   0.42083   0.83342   0.00000  Uiso   1.00
C1190  C     0.50017   0.57917   0.83324   0.00000  Uiso   1.00
C1191  C     0.40125   0.50027   0.82124   0.00000  Uiso   1.00
C1192  C     0.59875   0.49973   0.84542   0.00000  Uiso   1.00
C1193  C     0.34597   0.50047   0.81459   0.00000  Uiso   1.00
C1194  C     0.65403   0.49953   0.85208   0.00000  Uiso   1.00
C1195  C     0.46174   0.35456   0.80285   0.00000  Uiso   1.00
C1196  C     0.53826   0.64544   0.86381   0.00000  Uiso   1.00
C1197  C     0.46264   0.64475   0.80213   0.00000  Uiso   1.00
C1198  C     0.53736   0.35525   0.86454   0.00000  Uiso   1.00
C1199  C     0.50059   0.62383   0.83292   0.00000  Uiso   1.00
C1200  C     0.49940   0.37617   0.83374   0.00000  Uiso   1.00
C1201  C     0.46645   0.47538   0.68731   0.00000  Uiso   1.00
C1202  C     0.53355   0.52462   0.97936   0.00000  Uiso   1.00
C1203  C     0.46647   0.47538   0.97105   0.00000  Uiso   1.00
C1204  C     0.53353   0.52462   0.69562   0.00000  Uiso   1.00
Cu1205 Cu    0.50000   0.50001   0.88022   0.00000  Uiso   1.00
Cu1206 Cu    0.50000   0.49999   0.78645   0.00000  Uiso   1.00
H1207  H     0.65932   0.50123   0.77861   0.00000  Uiso   1.00
H1208  H     0.34068   0.49877   0.88806   0.00000  Uiso   1.00
H1209  H     0.43959   0.45564   0.70266   0.00000  Uiso   1.00
H1210  H     0.56041   0.54436   0.96400   0.00000  Uiso   1.00
H1211  H     0.43967   0.45560   0.94904   0.00000  Uiso   1.00
H1212  H     0.56033   0.54440   0.71762   0.00000  Uiso   1.00
N1213  N     0.50001   0.50001   0.95069   0.00000  Uiso   1.00
N1214  N     0.49999   0.49999   0.71597   0.00000  Uiso   1.00
O1215  O     0.50000   0.43989   0.87291   0.00000  Uiso   1.00
O1216  O     0.50000   0.56011   0.79375   0.00000  Uiso   1.00
O1217  O     0.50000   0.43988   0.79372   0.00000  Uiso   1.00
O1218  O     0.50000   0.56012   0.87294   0.00000  Uiso   1.00
O1219  O     0.42495   0.50000   0.86379   0.00000  Uiso   1.00
O1220  O     0.57505   0.50000   0.80288   0.00000  Uiso   1.00
O1221  O     0.42494   0.49999   0.78460   0.00000  Uiso   1.00
O1222  O     0.57506   0.50001   0.88207   0.00000  Uiso   1.00
C1223  C     0.41889   0.37684   0.77418   0.00000  Uiso   1.00
O1224  O     0.40960   0.37113   0.73158   0.00000  Uiso   1.00
O1225  O     0.38924   0.40444   0.79616   0.00000  Uiso   1.00
H1226  H     0.36100   0.41744   0.77311   0.00000  Uiso   1.00
C1227  C     0.58111   0.62316   0.89249   0.00000  Uiso   1.00
O1228  O     0.59040   0.62887   0.93509   0.00000  Uiso   1.00
O1229  O     0.61076   0.59555   0.87050   0.00000  Uiso   1.00
H1230  H     0.63900   0.58256   0.89355   0.00000  Uiso   1.00
N1231  N     0.42244   0.62253   0.77358   0.00000  Uiso   1.00
H1232  H     0.40658   0.59794   0.78974   0.00000  Uiso   1.00
C1233  C     0.43025   0.61477   0.72512   0.00000  Uiso   1.00
H1234  H     0.39527   0.62405   0.70110   0.00000  Uiso   1.00
H1235  H     0.43640   0.58136   0.71983   0.00000  Uiso   1.00
H1236  H     0.46396   0.63230   0.71526   0.00000  Uiso   1.00
N1237  N     0.57756   0.37747   0.89308   0.00000  Uiso   1.00
H1238  H     0.59342   0.40205   0.87692   0.00000  Uiso   1.00
C1239  C     0.56975   0.38523   0.94155   0.00000  Uiso   1.00
H1240  H     0.60473   0.37595   0.96557   0.00000  Uiso   1.00
H1241  H     0.53604   0.36770   0.95141   0.00000  Uiso   1.00
H1242  H     0.56360   0.41863   0.94683   0.00000  Uiso   1.00
C1243  C     0.83316   0.42083   0.83342   0.00000  Uiso   1.00
C1244  C     0.83351   0.57917   0.83324   0.00000  Uiso   1.00
C1245  C     0.73459   0.50027   0.82124   0.00000  Uiso   1.00
C1246  C     0.93208   0.49973   0.84542   0.00000  Uiso   1.00
C1247  C     0.67930   0.50047   0.81459   0.00000  Uiso   1.00
C1248  C     0.98737   0.49953   0.85208   0.00000  Uiso   1.00
C1249  C     0.79507   0.35456   0.80285   0.00000  Uiso   1.00
C1250  C     0.87159   0.64544   0.86381   0.00000  Uiso   1.00
C1251  C     0.79598   0.64475   0.80213   0.00000  Uiso   1.00
C1252  C     0.87069   0.35525   0.86454   0.00000  Uiso   1.00
C1253  C     0.83393   0.62383   0.83292   0.00000  Uiso   1.00
C1254  C     0.83274   0.37617   0.83374   0.00000  Uiso   1.00
C1255  C     0.79978   0.47538   0.68731   0.00000  Uiso   1.00
C1256  C     0.86689   0.52462   0.97936   0.00000  Uiso   1.00
C1257  C     0.79981   0.47538   0.97105   0.00000  Uiso   1.00
C1258  C     0.86686   0.52462   0.69562   0.00000  Uiso   1.00
Cu1259 Cu    0.83333   0.50001   0.88022   0.00000  Uiso   1.00
Cu1260 Cu    0.83333   0.49999   0.78645   0.00000  Uiso   1.00
H1261  H     0.99266   0.50123   0.77861   0.00000  Uiso   1.00
H1262  H     0.67401   0.49877   0.88806   0.00000  Uiso   1.00
H1263  H     0.77292   0.45564   0.70266   0.00000  Uiso   1.00
H1264  H     0.89374   0.54436   0.96400   0.00000  Uiso   1.00
H1265  H     0.77300   0.45560   0.94904   0.00000  Uiso   1.00
H1266  H     0.89367   0.54440   0.71762   0.00000  Uiso   1.00
N1267  N     0.83335   0.50001   0.95069   0.00000  Uiso   1.00
N1268  N     0.83332   0.49999   0.71597   0.00000  Uiso   1.00
O1269  O     0.83333   0.43989   0.87291   0.00000  Uiso   1.00
O1270  O     0.83334   0.56011   0.79375   0.00000  Uiso   1.00
O1271  O     0.83333   0.43988   0.79372   0.00000  Uiso   1.00
O1272  O     0.83334   0.56012   0.87294   0.00000  Uiso   1.00
O1273  O     0.75828   0.50000   0.86379   0.00000  Uiso   1.00
O1274  O     0.90839   0.50000   0.80288   0.00000  Uiso   1.00
O1275  O     0.75828   0.49999   0.78460   0.00000  Uiso   1.00
O1276  O     0.90839   0.50001   0.88207   0.00000  Uiso   1.00
C1277  C     0.75223   0.37684   0.77418   0.00000  Uiso   1.00
O1278  O     0.74294   0.37113   0.73158   0.00000  Uiso   1.00
O1279  O     0.72257   0.40444   0.79616   0.00000  Uiso   1.00
H1280  H     0.69433   0.41744   0.77311   0.00000  Uiso   1.00
C1281  C     0.91444   0.62316   0.89249   0.00000  Uiso   1.00
O1282  O     0.92373   0.62887   0.93509   0.00000  Uiso   1.00
O1283  O     0.94410   0.59555   0.87050   0.00000  Uiso   1.00
H1284  H     0.97234   0.58256   0.89355   0.00000  Uiso   1.00
N1285  N     0.75577   0.62253   0.77358   0.00000  Uiso   1.00
H1286  H     0.73991   0.59794   0.78974   0.00000  Uiso   1.00
C1287  C     0.76358   0.61477   0.72512   0.00000  Uiso   1.00
H1288  H     0.72860   0.62405   0.70110   0.00000  Uiso   1.00
H1289  H     0.76974   0.58136   0.71983   0.00000  Uiso   1.00
H1290  H     0.79730   0.63230   0.71526   0.00000  Uiso   1.00
N1291  N     0.91090   0.37747   0.89308   0.00000  Uiso   1.00
H1292  H     0.92676   0.40205   0.87692   0.00000  Uiso   1.00
C1293  C     0.90308   0.38523   0.94155   0.00000  Uiso   1.00
H1294  H     0.93807   0.37595   0.96557   0.00000  Uiso   1.00
H1295  H     0.86937   0.36770   0.95141   0.00000  Uiso   1.00
H1296  H     0.89693   0.41863   0.94683   0.00000  Uiso   1.00
C1297  C     0.16649   0.75416   0.83342   0.00000  Uiso   1.00
C1298  C     0.16684   0.91250   0.83324   0.00000  Uiso   1.00
C1299  C     0.06792   0.83361   0.82124   0.00000  Uiso   1.00
C1300  C     0.26541   0.83306   0.84542   0.00000  Uiso   1.00
C1301  C     0.01263   0.83380   0.81459   0.00000  Uiso   1.00
C1302  C     0.32070   0.83287   0.85208   0.00000  Uiso   1.00
C1303  C     0.12841   0.68790   0.80285   0.00000  Uiso   1.00
C1304  C     0.20493   0.97877   0.86381   0.00000  Uiso   1.00
C1305  C     0.12931   0.97808   0.80213   0.00000  Uiso   1.00
C1306  C     0.20402   0.68858   0.86454   0.00000  Uiso   1.00
C1307  C     0.16726   0.95716   0.83292   0.00000  Uiso   1.00
C1308  C     0.16607   0.70950   0.83374   0.00000  Uiso   1.00
C1309  C     0.13311   0.80872   0.68731   0.00000  Uiso   1.00
C1310  C     0.20022   0.85795   0.97936   0.00000  Uiso   1.00
C1311  C     0.13314   0.80871   0.97105   0.00000  Uiso   1.00
C1312  C     0.20019   0.85795   0.69562   0.00000  Uiso   1.00
Cu1313 Cu    0.16667   0.83334   0.88022   0.00000  Uiso   1.00
Cu1314 Cu    0.16667   0.83333   0.78645   0.00000  Uiso   1.00
H1315  H     0.32599   0.83457   0.77861   0.00000  Uiso   1.00
H1316  H     0.00734   0.83210   0.88806   0.00000  Uiso   1.00
H1317  H     0.10626   0.78897   0.70266   0.00000  Uiso   1.00
H1318  H     0.22708   0.87769   0.96400   0.00000  Uiso   1.00
H1319  H     0.10633   0.78893   0.94904   0.00000  Uiso   1.00
H1320  H     0.22700   0.87774   0.71762   0.00000  Uiso   1.00
N1321  N     0.16668   0.83334   0.95069   0.00000  Uiso   1.00
N1322  N     0.16665   0.83332   0.71597   0.00000  Uiso   1.00
O1323  O     0.16666   0.77322   0.87291   0.00000  Uiso   1.00
O1324  O     0.16667   0.89345   0.79375   0.00000  Uiso   1.00
O1325  O     0.16666   0.77321   0.79372   0.00000  Uiso   1.00
O1326  O     0.16667   0.89346   0.87294   0.00000  Uiso   1.00
O1327  O     0.09161   0.83334   0.86379   0.00000  Uiso   1.00
O1328  O     0.24172   0.83333   0.80288   0.00000  Uiso   1.00
O1329  O     0.09161   0.83333   0.78460   0.00000  Uiso   1.00
O1330  O     0.24172   0.83334   0.88207   0.00000  Uiso   1.00
C1331  C     0.08556   0.71017   0.77418   0.00000  Uiso   1.00
O1332  O     0.07627   0.70446   0.73158   0.00000  Uiso   1.00
O1333  O     0.05590   0.73778   0.79616   0.00000  Uiso   1.00
H1334  H     0.02766   0.75077   0.77311   0.00000  Uiso   1.00
C1335  C     0.24777   0.95650   0.89249   0.00000  Uiso   1.00
O1336  O     0.25706   0.96221   0.93509   0.00000  Uiso   1.00
O1337  O     0.27743   0.92889   0.87050   0.00000  Uiso   1.00
H1338  H     0.30567   0.91590   0.89355   0.00000  Uiso   1.00
N1339  N     0.08910   0.95586   0.77358   0.00000  Uiso   1.00
H1340  H     0.07324   0.93128   0.78974   0.00000  Uiso   1.00
C1341  C     0.09692   0.94810   0.72512   0.00000  Uiso   1.00
H1342  H     0.06193   0.95738   0.70110   0.00000  Uiso   1.00
H1343  H     0.10307   0.91470   0.71983   0.00000  Uiso   1.00
H1344  H     0.13063   0.96563   0.71526   0.00000  Uiso   1.00
N1345  N     0.24423   0.71081   0.89308   0.00000  Uiso   1.00
H1346  H     0.26009   0.73539   0.87692   0.00000  Uiso   1.00
C1347  C     0.23642   0.71857   0.94155   0.00000  Uiso   1.00
H1348  H     0.27140   0.70928   0.96557   0.00000  Uiso   1.00
H1349  H     0.20270   0.70103   0.95141   0.00000  Uiso   1.00
H1350  H     0.23026   0.75197   0.94683   0.00000  Uiso   1.00
C1351  C     0.49983   0.75416   0.83342   0.00000  Uiso   1.00
C1352  C     0.50017   0.91250   0.83324   0.00000  Uiso   1.00
C1353  C     0.40125   0.83361   0.82124   0.00000  Uiso   1.00
C1354  C     0.59875   0.83306   0.84542   0.00000  Uiso   1.00
C1355  C     0.34597   0.83380   0.81459   0.00000  Uiso   1.00
C1356  C     0.65403   0.83287   0.85208   0.00000  Uiso   1.00
C1357  C     0.46174   0.68790   0.80285   0.00000  Uiso   1.00
C1358  C     0.53826   0.97877   0.86381   0.00000  Uiso   1.00
C1359  C     0.46264   0.97808   0.80213   0.00000  Uiso   1.00
C1360  C     0.53736   0.68858   0.86454   0.00000  Uiso   1.00
C1361  C     0.50059   0.95716   0.83292   0.00000  Uiso   1.00
C1362  C     0.49940   0.70950   0.83374   0.00000  Uiso   1.00
C1363  C     0.46645   0.80872   0.68731   0.00000  Uiso   1.00
C1364  C     0.53355   0.85795   0.97936   0.00000  Uiso   1.00
C1365  C     0.46647   0.80871   0.97105   0.00000  Uiso   1.00
C1366  C     0.53353   0.85795   0.69562   0.00000  Uiso   1.00
Cu1367 Cu    0.50000   0.83334   0.88022   0.00000  Uiso   1.00
Cu1368 Cu    0.50000   0.83333   0.78645   0.00000  Uiso   1.00
H1369  H     0.65932   0.83457   0.77861   0.00000  Uiso   1.00
H1370  H     0.34068   0.83210   0.88806   0.00000  Uiso   1.00
H1371  H     0.43959   0.78897   0.70266   0.00000  Uiso   1.00
H1372  H     0.56041   0.87769   0.96400   0.00000  Uiso   1.00
H1373  H     0.43967   0.78893   0.94904   0.00000  Uiso   1.00
H1374  H     0.56033   0.87774   0.71762   0.00000  Uiso   1.00
N1375  N     0.50001   0.83334   0.95069   0.00000  Uiso   1.00
N1376  N     0.49999   0.83332   0.71597   0.00000  Uiso   1.00
O1377  O     0.50000   0.77322   0.87291   0.00000  Uiso   1.00
O1378  O     0.50000   0.89345   0.79375   0.00000  Uiso   1.00
O1379  O     0.50000   0.77321   0.79372   0.00000  Uiso   1.00
O1380  O     0.50000   0.89346   0.87294   0.00000  Uiso   1.00
O1381  O     0.42495   0.83334   0.86379   0.00000  Uiso   1.00
O1382  O     0.57505   0.83333   0.80288   0.00000  Uiso   1.00
O1383  O     0.42494   0.83333   0.78460   0.00000  Uiso   1.00
O1384  O     0.57506   0.83334   0.88207   0.00000  Uiso   1.00
C1385  C     0.41889   0.71017   0.77418   0.00000  Uiso   1.00
O1386  O     0.40960   0.70446   0.73158   0.00000  Uiso   1.00
O1387  O     0.38924   0.73778   0.79616   0.00000  Uiso   1.00
H1388  H     0.36100   0.75077   0.77311   0.00000  Uiso   1.00
C1389  C     0.58111   0.95650   0.89249   0.00000  Uiso   1.00
O1390  O     0.59040   0.96221   0.93509   0.00000  Uiso   1.00
O1391  O     0.61076   0.92889   0.87050   0.00000  Uiso   1.00
H1392  H     0.63900   0.91590   0.89355   0.00000  Uiso   1.00
N1393  N     0.42244   0.95586   0.77358   0.00000  Uiso   1.00
H1394  H     0.40658   0.93128   0.78974   0.00000  Uiso   1.00
C1395  C     0.43025   0.94810   0.72512   0.00000  Uiso   1.00
H1396  H     0.39527   0.95738   0.70110   0.00000  Uiso   1.00
H1397  H     0.43640   0.91470   0.71983   0.00000  Uiso   1.00
H1398  H     0.46396   0.96563   0.71526   0.00000  Uiso   1.00
N1399  N     0.57756   0.71081   0.89308   0.00000  Uiso   1.00
H1400  H     0.59342   0.73539   0.87692   0.00000  Uiso   1.00
C1401  C     0.56975   0.71857   0.94155   0.00000  Uiso   1.00
H1402  H     0.60473   0.70928   0.96557   0.00000  Uiso   1.00
H1403  H     0.53604   0.70103   0.95141   0.00000  Uiso   1.00
H1404  H     0.56360   0.75197   0.94683   0.00000  Uiso   1.00
C1405  C     0.83316   0.75416   0.83342   0.00000  Uiso   1.00
C1406  C     0.83351   0.91250   0.83324   0.00000  Uiso   1.00
C1407  C     0.73459   0.83361   0.82124   0.00000  Uiso   1.00
C1408  C     0.93208   0.83306   0.84542   0.00000  Uiso   1.00
C1409  C     0.67930   0.83380   0.81459   0.00000  Uiso   1.00
C1410  C     0.98737   0.83287   0.85208   0.00000  Uiso   1.00
C1411  C     0.79507   0.68790   0.80285   0.00000  Uiso   1.00
C1412  C     0.87159   0.97877   0.86381   0.00000  Uiso   1.00
C1413  C     0.79598   0.97808   0.80213   0.00000  Uiso   1.00
C1414  C     0.87069   0.68858   0.86454   0.00000  Uiso   1.00
C1415  C     0.83393   0.95716   0.83292   0.00000  Uiso   1.00
C1416  C     0.83274   0.70950   0.83374   0.00000  Uiso   1.00
C1417  C     0.79978   0.80872   0.68731   0.00000  Uiso   1.00
C1418  C     0.86689   0.85795   0.97936   0.00000  Uiso   1.00
C1419  C     0.79981   0.80871   0.97105   0.00000  Uiso   1.00
C1420  C     0.86686   0.85795   0.69562   0.00000  Uiso   1.00
Cu1421 Cu    0.83333   0.83334   0.88022   0.00000  Uiso   1.00
Cu1422 Cu    0.83333   0.83333   0.78645   0.00000  Uiso   1.00
H1423  H     0.99266   0.83457   0.77861   0.00000  Uiso   1.00
H1424  H     0.67401   0.83210   0.88806   0.00000  Uiso   1.00
H1425  H     0.77292   0.78897   0.70266   0.00000  Uiso   1.00
H1426  H     0.89374   0.87769   0.96400   0.00000  Uiso   1.00
H1427  H     0.77300   0.78893   0.94904   0.00000  Uiso   1.00
H1428  H     0.89367   0.87774   0.71762   0.00000  Uiso   1.00
N1429  N     0.83335   0.83334   0.95069   0.00000  Uiso   1.00
N1430  N     0.83332   0.83332   0.71597   0.00000  Uiso   1.00
O1431  O     0.83333   0.77322   0.87291   0.00000  Uiso   1.00
O1432  O     0.83334   0.89345   0.79375   0.00000  Uiso   1.00
O1433  O     0.83333   0.77321   0.79372   0.00000  Uiso   1.00
O1434  O     0.83334   0.89346   0.87294   0.00000  Uiso   1.00
O1435  O     0.75828   0.83334   0.86379   0.00000  Uiso   1.00
O1436  O     0.90839   0.83333   0.80288   0.00000  Uiso   1.00
O1437  O     0.75828   0.83333   0.78460   0.00000  Uiso   1.00
O1438  O     0.90839   0.83334   0.88207   0.00000  Uiso   1.00
C1439  C     0.75223   0.71017   0.77418   0.00000  Uiso   1.00
O1440  O     0.74294   0.70446   0.73158   0.00000  Uiso   1.00
O1441  O     0.72257   0.73778   0.79616   0.00000  Uiso   1.00
H1442  H     0.69433   0.75077   0.77311   0.00000  Uiso   1.00
C1443  C     0.91444   0.95650   0.89249   0.00000  Uiso   1.00
O1444  O     0.92373   0.96221   0.93509   0.00000  Uiso   1.00
O1445  O     0.94410   0.92889   0.87050   0.00000  Uiso   1.00
H1446  H     0.97234   0.91590   0.89355   0.00000  Uiso   1.00
N1447  N     0.75577   0.95586   0.77358   0.00000  Uiso   1.00
H1448  H     0.73991   0.93128   0.78974   0.00000  Uiso   1.00
C1449  C     0.76358   0.94810   0.72512   0.00000  Uiso   1.00
H1450  H     0.72860   0.95738   0.70110   0.00000  Uiso   1.00
H1451  H     0.76974   0.91470   0.71983   0.00000  Uiso   1.00
H1452  H     0.79730   0.96563   0.71526   0.00000  Uiso   1.00
N1453  N     0.91090   0.71081   0.89308   0.00000  Uiso   1.00
H1454  H     0.92676   0.73539   0.87692   0.00000  Uiso   1.00
C1455  C     0.90308   0.71857   0.94155   0.00000  Uiso   1.00
H1456  H     0.93807   0.70928   0.96557   0.00000  Uiso   1.00
H1457  H     0.86937   0.70103   0.95141   0.00000  Uiso   1.00
H1458  H     0.89693   0.75197   0.94683   0.00000  Uiso   1.00
loop_
_geom_bond_atom_site_label_1
_geom_bond_atom_site_label_2
_geom_bond_distance
_geom_bond_site_symmetry_2
_ccdc_geom_bond_type
C1     C12     1.448   .     S
C1     O29     1.290   .     A
C1     O27     1.288   .     A
C2     O30     1.290   .     A
C2     C11     1.448   .     S
C2     O28     1.288   .     A
C3     O31     1.286   .     A
C3     C5      1.433   .     S
C3     O33     1.288   .     A
C4     O32     1.286   .     A
C4     O34     1.288   .     A
C4     C6      1.433   .     S
C5     C114    1.335   1_455 S
C5     H127    1.087   1_455 S
C6     C59     1.335   .     S
C6     H74     1.087   .     S
C7     C12     1.411   .     A
C7     C35     1.487   .     S
C7     C333    1.400   1_545 S
C8     C39     1.487   .     S
C8     C11     1.411   .     A
C8     C172    1.400   .     S
C9     C11     1.411   .     A
C9     N43     1.429   .     S
C9     C169    1.400   .     S
C10    C12     1.411   .     A
C10    N49     1.429   .     S
C10    C332    1.400   1_545 S
C13    H21     1.082   .     S
C13    N26     1.367   .     A
C13    C987    1.417   1_554 S
C14    H22     1.082   .     S
C14    N25     1.367   .     A
C14    C502    1.417   .     S
C15    H23     1.082   .     S
C15    N25     1.367   .     A
C15    C499    1.417   .     S
C16    H24     1.082   .     S
C16    N26     1.367   .     A
C16    C986    1.417   1_554 S
Cu17   N25     2.013   .     S
Cu17   Cu18    2.679   .     S
Cu17   O30     1.960   .     S
Cu17   O31     1.956   .     S
Cu17   O34     1.958   .     S
Cu17   O27     1.961   .     S
Cu18   N26     2.013   .     S
Cu18   O32     1.956   .     S
Cu18   O29     1.960   .     S
Cu18   O33     1.958   .     S
Cu18   O28     1.961   .     S
H19    C59     1.087   .     S
H20    C114    1.087   1_455 S
C35    O36     1.222   .     D
C35    O37     1.397   .     S
O37    H38     1.014   .     S
C39    O41     1.397   .     S
C39    O40     1.222   .     D
O41    H42     1.014   .     S
N43    H44     1.032   .     S
N43    C45     1.451   .     S
C45    H46     1.110   .     S
C45    H47     1.111   .     S
C45    H48     1.113   .     S
N49    H50     1.032   .     S
N49    C51     1.451   .     S
C51    H54     1.111   .     S
C51    H52     1.110   .     S
C51    H53     1.113   .     S
C55    C66     1.448   .     S
C55    O83     1.290   .     A
C55    O81     1.288   .     A
C56    O84     1.290   .     A
C56    C65     1.448   .     S
C56    O82     1.288   .     A
C57    O85     1.286   .     A
C57    C59     1.433   .     S
C57    O87     1.288   .     A
C58    O86     1.286   .     A
C58    O88     1.288   .     A
C58    C60     1.433   .     S
C60    C113    1.335   .     S
C60    H128    1.087   .     S
C61    C66     1.411   .     A
C61    C89     1.487   .     S
C61    C387    1.400   1_545 S
C62    C93     1.487   .     S
C62    C65     1.411   .     A
C62    C226    1.400   .     S
C63    C65     1.411   .     A
C63    N97     1.429   .     S
C63    C223    1.400   .     S
C64    C66     1.411   .     A
C64    N103    1.429   .     S
C64    C386    1.400   1_545 S
C67    H75     1.082   .     S
C67    N80     1.367   .     A
C67    C1041   1.417   1_554 S
C68    H76     1.082   .     S
C68    N79     1.367   .     A
C68    C556    1.417   .     S
C69    H77     1.082   .     S
C69    N79     1.367   .     A
C69    C553    1.417   .     S
C70    H78     1.082   .     S
C70    N80     1.367   .     A
C70    C1040   1.417   1_554 S
Cu71   N79     2.013   .     S
Cu71   Cu72    2.679   .     S
Cu71   O84     1.960   .     S
Cu71   O85     1.956   .     S
Cu71   O88     1.958   .     S
Cu71   O81     1.961   .     S
Cu72   N80     2.013   .     S
Cu72   O86     1.956   .     S
Cu72   O83     1.960   .     S
Cu72   O87     1.958   .     S
Cu72   O82     1.961   .     S
H73    C113    1.087   .     S
C89    O90     1.222   .     D
C89    O91     1.397   .     S
O91    H92     1.014   .     S
C93    O95     1.397   .     S
C93    O94     1.222   .     D
O95    H96     1.014   .     S
N97    H98     1.032   .     S
N97    C99     1.451   .     S
C99    H100    1.110   .     S
C99    H101    1.111   .     S
C99    H102    1.113   .     S
N103   H104    1.032   .     S
N103   C105    1.451   .     S
C105   H108    1.111   .     S
C105   H106    1.110   .     S
C105   H107    1.113   .     S
C109   C120    1.448   .     S
C109   O137    1.290   .     A
C109   O135    1.288   .     A
C110   O138    1.290   .     A
C110   C119    1.448   .     S
C110   O136    1.288   .     A
C111   O139    1.286   .     A
C111   C113    1.433   .     S
C111   O141    1.288   .     A
C112   O140    1.286   .     A
C112   O142    1.288   .     A
C112   C114    1.433   .     S
C114   C5      1.335   1_655 S
C114   H20     1.087   1_655 S
C115   C120    1.411   .     A
C115   C143    1.487   .     S
C115   C441    1.400   1_545 S
C116   C147    1.487   .     S
C116   C119    1.411   .     A
C116   C280    1.400   .     S
C117   C119    1.411   .     A
C117   N151    1.429   .     S
C117   C277    1.400   .     S
C118   C120    1.411   .     A
C118   N157    1.429   .     S
C118   C440    1.400   1_545 S
C121   H129    1.082   .     S
C121   N134    1.367   .     A
C121   C1095   1.417   1_554 S
C122   H130    1.082   .     S
C122   N133    1.367   .     A
C122   C610    1.417   .     S
C123   H131    1.082   .     S
C123   N133    1.367   .     A
C123   C607    1.417   .     S
C124   H132    1.082   .     S
C124   N134    1.367   .     A
C124   C1094   1.417   1_554 S
Cu125  N133    2.013   .     S
Cu125  Cu126   2.679   .     S
Cu125  O138    1.960   .     S
Cu125  O139    1.956   .     S
Cu125  O142    1.958   .     S
Cu125  O135    1.961   .     S
Cu126  N134    2.013   .     S
Cu126  O140    1.956   .     S
Cu126  O137    1.960   .     S
Cu126  O141    1.958   .     S
Cu126  O136    1.961   .     S
H127   C5      1.087   1_655 S
C143   O144    1.222   .     D
C143   O145    1.397   .     S
O145   H146    1.014   .     S
C147   O149    1.397   .     S
C147   O148    1.222   .     D
O149   H150    1.014   .     S
N151   H152    1.032   .     S
N151   C153    1.451   .     S
C153   H154    1.110   .     S
C153   H155    1.111   .     S
C153   H156    1.113   .     S
N157   H158    1.032   .     S
N157   C159    1.451   .     S
C159   H162    1.111   .     S
C159   H160    1.110   .     S
C159   H161    1.113   .     S
C163   C174    1.448   .     S
C163   O191    1.290   .     A
C163   O189    1.288   .     A
C164   O192    1.290   .     A
C164   C173    1.448   .     S
C164   O190    1.288   .     A
C165   O193    1.286   .     A
C165   C167    1.433   .     S
C165   O195    1.288   .     A
C166   O194    1.286   .     A
C166   O196    1.288   .     A
C166   C168    1.433   .     S
C167   C276    1.335   1_455 S
C167   H289    1.087   1_455 S
C168   C221    1.335   .     S
C168   H236    1.087   .     S
C169   C174    1.411   .     A
C169   C197    1.487   .     S
C170   C201    1.487   .     S
C170   C173    1.411   .     A
C170   C334    1.400   .     S
C171   C173    1.411   .     A
C171   N205    1.429   .     S
C171   C331    1.400   .     S
C172   C174    1.411   .     A
C172   N211    1.429   .     S
C175   H183    1.082   .     S
C175   N188    1.367   .     A
C175   C1149   1.417   1_554 S
C176   H184    1.082   .     S
C176   N187    1.367   .     A
C176   C664    1.417   .     S
C177   H185    1.082   .     S
C177   N187    1.367   .     A
C177   C661    1.417   .     S
C178   H186    1.082   .     S
C178   N188    1.367   .     A
C178   C1148   1.417   1_554 S
Cu179  N187    2.013   .     S
Cu179  Cu180   2.679   .     S
Cu179  O192    1.960   .     S
Cu179  O193    1.956   .     S
Cu179  O196    1.958   .     S
Cu179  O189    1.961   .     S
Cu180  N188    2.013   .     S
Cu180  O194    1.956   .     S
Cu180  O191    1.960   .     S
Cu180  O195    1.958   .     S
Cu180  O190    1.961   .     S
H181   C221    1.087   .     S
H182   C276    1.087   1_455 S
C197   O198    1.222   .     D
C197   O199    1.397   .     S
O199   H200    1.014   .     S
C201   O203    1.397   .     S
C201   O202    1.222   .     D
O203   H204    1.014   .     S
N205   H206    1.032   .     S
N205   C207    1.451   .     S
C207   H208    1.110   .     S
C207   H209    1.111   .     S
C207   H210    1.113   .     S
N211   H212    1.032   .     S
N211   C213    1.451   .     S
C213   H216    1.111   .     S
C213   H214    1.110   .     S
C213   H215    1.113   .     S
C217   C228    1.448   .     S
C217   O245    1.290   .     A
C217   O243    1.288   .     A
C218   O246    1.290   .     A
C218   C227    1.448   .     S
C218   O244    1.288   .     A
C219   O247    1.286   .     A
C219   C221    1.433   .     S
C219   O249    1.288   .     A
C220   O248    1.286   .     A
C220   O250    1.288   .     A
C220   C222    1.433   .     S
C222   C275    1.335   .     S
C222   H290    1.087   .     S
C223   C228    1.411   .     A
C223   C251    1.487   .     S
C224   C255    1.487   .     S
C224   C227    1.411   .     A
C224   C388    1.400   .     S
C225   C227    1.411   .     A
C225   N259    1.429   .     S
C225   C385    1.400   .     S
C226   C228    1.411   .     A
C226   N265    1.429   .     S
C229   H237    1.082   .     S
C229   N242    1.367   .     A
C229   C1203   1.417   1_554 S
C230   H238    1.082   .     S
C230   N241    1.367   .     A
C230   C718    1.417   .     S
C231   H239    1.082   .     S
C231   N241    1.367   .     A
C231   C715    1.417   .     S
C232   H240    1.082   .     S
C232   N242    1.367   .     A
C232   C1202   1.417   1_554 S
Cu233  N241    2.013   .     S
Cu233  Cu234   2.679   .     S
Cu233  O246    1.960   .     S
Cu233  O247    1.956   .     S
Cu233  O250    1.958   .     S
Cu233  O243    1.961   .     S
Cu234  N242    2.013   .     S
Cu234  O248    1.956   .     S
Cu234  O245    1.960   .     S
Cu234  O249    1.958   .     S
Cu234  O244    1.961   .     S
H235   C275    1.087   .     S
C251   O252    1.222   .     D
C251   O253    1.397   .     S
O253   H254    1.014   .     S
C255   O257    1.397   .     S
C255   O256    1.222   .     D
O257   H258    1.014   .     S
N259   H260    1.032   .     S
N259   C261    1.451   .     S
C261   H262    1.110   .     S
C261   H263    1.111   .     S
C261   H264    1.113   .     S
N265   H266    1.032   .     S
N265   C267    1.451   .     S
C267   H270    1.111   .     S
C267   H268    1.110   .     S
C267   H269    1.113   .     S
C271   C282    1.448   .     S
C271   O299    1.290   .     A
C271   O297    1.288   .     A
C272   O300    1.290   .     A
C272   C281    1.448   .     S
C272   O298    1.288   .     A
C273   O301    1.286   .     A
C273   C275    1.433   .     S
C273   O303    1.288   .     A
C274   O302    1.286   .     A
C274   O304    1.288   .     A
C274   C276    1.433   .     S
C276   C167    1.335   1_655 S
C276   H182    1.087   1_655 S
C277   C282    1.411   .     A
C277   C305    1.487   .     S
C278   C309    1.487   .     S
C278   C281    1.411   .     A
C278   C442    1.400   .     S
C279   C281    1.411   .     A
C279   N313    1.429   .     S
C279   C439    1.400   .     S
C280   C282    1.411   .     A
C280   N319    1.429   .     S
C283   H291    1.082   .     S
C283   N296    1.367   .     A
C283   C1257   1.417   1_554 S
C284   H292    1.082   .     S
C284   N295    1.367   .     A
C284   C772    1.417   .     S
C285   H293    1.082   .     S
C285   N295    1.367   .     A
C285   C769    1.417   .     S
C286   H294    1.082   .     S
C286   N296    1.367   .     A
C286   C1256   1.417   1_554 S
Cu287  N295    2.013   .     S
Cu287  Cu288   2.679   .     S
Cu287  O300    1.960   .     S
Cu287  O301    1.956   .     S
Cu287  O304    1.958   .     S
Cu287  O297    1.961   .     S
Cu288  N296    2.013   .     S
Cu288  O302    1.956   .     S
Cu288  O299    1.960   .     S
Cu288  O303    1.958   .     S
Cu288  O298    1.961   .     S
H289   C167    1.087   1_655 S
C305   O306    1.222   .     D
C305   O307    1.397   .     S
O307   H308    1.014   .     S
C309   O311    1.397   .     S
C309   O310    1.222   .     D
O311   H312    1.014   .     S
N313   H314    1.032   .     S
N313   C315    1.451   .     S
C315   H316    1.110   .     S
C315   H317    1.111   .     S
C315   H318    1.113   .     S
N319   H320    1.032   .     S
N319   C321    1.451   .     S
C321   H324    1.111   .     S
C321   H322    1.110   .     S
C321   H323    1.113   .     S
C325   C336    1.448   .     S
C325   O353    1.290   .     A
C325   O351    1.288   .     A
C326   O354    1.290   .     A
C326   C335    1.448   .     S
C326   O352    1.288   .     A
C327   O355    1.286   .     A
C327   C329    1.433   .     S
C327   O357    1.288   .     A
C328   O356    1.286   .     A
C328   O358    1.288   .     A
C328   C330    1.433   .     S
C329   C438    1.335   1_455 S
C329   H451    1.087   1_455 S
C330   C383    1.335   .     S
C330   H398    1.087   .     S
C331   C336    1.411   .     A
C331   C359    1.487   .     S
C332   C363    1.487   .     S
C332   C335    1.411   .     A
C332   C10     1.400   1_565 S
C333   C335    1.411   .     A
C333   N367    1.429   .     S
C333   C7      1.400   1_565 S
C334   C336    1.411   .     A
C334   N373    1.429   .     S
C337   H345    1.082   .     S
C337   N350    1.367   .     A
C337   C1311   1.417   1_554 S
C338   H346    1.082   .     S
C338   N349    1.367   .     A
C338   C826    1.417   .     S
C339   H347    1.082   .     S
C339   N349    1.367   .     A
C339   C823    1.417   .     S
C340   H348    1.082   .     S
C340   N350    1.367   .     A
C340   C1310   1.417   1_554 S
Cu341  N349    2.013   .     S
Cu341  Cu342   2.679   .     S
Cu341  O354    1.960   .     S
Cu341  O355    1.956   .     S
Cu341  O358    1.958   .     S
Cu341  O351    1.961   .     S
Cu342  N350    2.013   .     S
Cu342  O356    1.956   .     S
Cu342  O353    1.960   .     S
Cu342  O357    1.958   .     S
Cu342  O352    1.961   .     S
H343   C383    1.087   .     S
H344   C438    1.087   1_455 S
C359   O360    1.222   .     D
C359   O361    1.397   .     S
O361   H362    1.014   .     S
C363   O365    1.397   .     S
C363   O364    1.222   .     D
O365   H366    1.014   .     S
N367   H368    1.032   .     S
N367   C369    1.451   .     S
C369   H370    1.110   .     S
C369   H371    1.111   .     S
C369   H372    1.113   .     S
N373   H374    1.032   .     S
N373   C375    1.451   .     S
C375   H378    1.111   .     S
C375   H376    1.110   .     S
C375   H377    1.113   .     S
C379   C390    1.448   .     S
C379   O407    1.290   .     A
C379   O405    1.288   .     A
C380   O408    1.290   .     A
C380   C389    1.448   .     S
C380   O406    1.288   .     A
C381   O409    1.286   .     A
C381   C383    1.433   .     S
C381   O411    1.288   .     A
C382   O410    1.286   .     A
C382   O412    1.288   .     A
C382   C384    1.433   .     S
C384   C437    1.335   .     S
C384   H452    1.087   .     S
C385   C390    1.411   .     A
C385   C413    1.487   .     S
C386   C417    1.487   .     S
C386   C389    1.411   .     A
C386   C64     1.400   1_565 S
C387   C389    1.411   .     A
C387   N421    1.429   .     S
C387   C61     1.400   1_565 S
C388   C390    1.411   .     A
C388   N427    1.429   .     S
C391   H399    1.082   .     S
C391   N404    1.367   .     A
C391   C1365   1.417   1_554 S
C392   H400    1.082   .     S
C392   N403    1.367   .     A
C392   C880    1.417   .     S
C393   H401    1.082   .     S
C393   N403    1.367   .     A
C393   C877    1.417   .     S
C394   H402    1.082   .     S
C394   N404    1.367   .     A
C394   C1364   1.417   1_554 S
Cu395  N403    2.013   .     S
Cu395  Cu396   2.679   .     S
Cu395  O408    1.960   .     S
Cu395  O409    1.956   .     S
Cu395  O412    1.958   .     S
Cu395  O405    1.961   .     S
Cu396  N404    2.013   .     S
Cu396  O410    1.956   .     S
Cu396  O407    1.960   .     S
Cu396  O411    1.958   .     S
Cu396  O406    1.961   .     S
H397   C437    1.087   .     S
C413   O414    1.222   .     D
C413   O415    1.397   .     S
O415   H416    1.014   .     S
C417   O419    1.397   .     S
C417   O418    1.222   .     D
O419   H420    1.014   .     S
N421   H422    1.032   .     S
N421   C423    1.451   .     S
C423   H424    1.110   .     S
C423   H425    1.111   .     S
C423   H426    1.113   .     S
N427   H428    1.032   .     S
N427   C429    1.451   .     S
C429   H432    1.111   .     S
C429   H430    1.110   .     S
C429   H431    1.113   .     S
C433   C444    1.448   .     S
C433   O461    1.290   .     A
C433   O459    1.288   .     A
C434   O462    1.290   .     A
C434   C443    1.448   .     S
C434   O460    1.288   .     A
C435   O463    1.286   .     A
C435   C437    1.433   .     S
C435   O465    1.288   .     A
C436   O464    1.286   .     A
C436   O466    1.288   .     A
C436   C438    1.433   .     S
C438   C329    1.335   1_655 S
C438   H344    1.087   1_655 S
C439   C444    1.411   .     A
C439   C467    1.487   .     S
C440   C471    1.487   .     S
C440   C443    1.411   .     A
C440   C118    1.400   1_565 S
C441   C443    1.411   .     A
C441   N475    1.429   .     S
C441   C115    1.400   1_565 S
C442   C444    1.411   .     A
C442   N481    1.429   .     S
C445   H453    1.082   .     S
C445   N458    1.367   .     A
C445   C1419   1.417   1_554 S
C446   H454    1.082   .     S
C446   N457    1.367   .     A
C446   C934    1.417   .     S
C447   H455    1.082   .     S
C447   N457    1.367   .     A
C447   C931    1.417   .     S
C448   H456    1.082   .     S
C448   N458    1.367   .     A
C448   C1418   1.417   1_554 S
Cu449  N457    2.013   .     S
Cu449  Cu450   2.679   .     S
Cu449  O462    1.960   .     S
Cu449  O463    1.956   .     S
Cu449  O466    1.958   .     S
Cu449  O459    1.961   .     S
Cu450  N458    2.013   .     S
Cu450  O464    1.956   .     S
Cu450  O461    1.960   .     S
Cu450  O465    1.958   .     S
Cu450  O460    1.961   .     S
H451   C329    1.087   1_655 S
C467   O468    1.222   .     D
C467   O469    1.397   .     S
O469   H470    1.014   .     S
C471   O473    1.397   .     S
C471   O472    1.222   .     D
O473   H474    1.014   .     S
N475   H476    1.032   .     S
N475   C477    1.451   .     S
C477   H478    1.110   .     S
C477   H479    1.111   .     S
C477   H480    1.113   .     S
N481   H482    1.032   .     S
N481   C483    1.451   .     S
C483   H486    1.111   .     S
C483   H484    1.110   .     S
C483   H485    1.113   .     S
C487   C498    1.448   .     S
C487   O515    1.290   .     A
C487   O513    1.288   .     A
C488   O516    1.290   .     A
C488   C497    1.448   .     S
C488   O514    1.288   .     A
C489   O517    1.286   .     A
C489   C491    1.433   .     S
C489   O519    1.288   .     A
C490   O518    1.286   .     A
C490   O520    1.288   .     A
C490   C492    1.433   .     S
C491   C600    1.335   1_455 S
C491   H613    1.087   1_455 S
C492   C545    1.335   .     S
C492   H560    1.087   .     S
C493   C498    1.411   .     A
C493   C521    1.487   .     S
C493   C819    1.400   1_545 S
C494   C525    1.487   .     S
C494   C497    1.411   .     A
C494   C658    1.400   .     S
C495   C497    1.411   .     A
C495   N529    1.429   .     S
C495   C655    1.400   .     S
C496   C498    1.411   .     A
C496   N535    1.429   .     S
C496   C818    1.400   1_545 S
C499   H507    1.082   .     S
C499   N512    1.367   .     A
C500   H508    1.082   .     S
C500   N511    1.367   .     A
C500   C988    1.417   .     S
C501   H509    1.082   .     S
C501   N511    1.367   .     A
C501   C985    1.417   .     S
C502   H510    1.082   .     S
C502   N512    1.367   .     A
Cu503  N511    2.013   .     S
Cu503  Cu504   2.679   .     S
Cu503  O516    1.960   .     S
Cu503  O517    1.956   .     S
Cu503  O520    1.958   .     S
Cu503  O513    1.961   .     S
Cu504  N512    2.013   .     S
Cu504  O518    1.956   .     S
Cu504  O515    1.960   .     S
Cu504  O519    1.958   .     S
Cu504  O514    1.961   .     S
H505   C545    1.087   .     S
H506   C600    1.087   1_455 S
C521   O522    1.222   .     D
C521   O523    1.397   .     S
O523   H524    1.014   .     S
C525   O527    1.397   .     S
C525   O526    1.222   .     D
O527   H528    1.014   .     S
N529   H530    1.032   .     S
N529   C531    1.451   .     S
C531   H532    1.110   .     S
C531   H533    1.111   .     S
C531   H534    1.113   .     S
N535   H536    1.032   .     S
N535   C537    1.451   .     S
C537   H540    1.111   .     S
C537   H538    1.110   .     S
C537   H539    1.113   .     S
C541   C552    1.448   .     S
C541   O569    1.290   .     A
C541   O567    1.288   .     A
C542   O570    1.290   .     A
C542   C551    1.448   .     S
C542   O568    1.288   .     A
C543   O571    1.286   .     A
C543   C545    1.433   .     S
C543   O573    1.288   .     A
C544   O572    1.286   .     A
C544   O574    1.288   .     A
C544   C546    1.433   .     S
C546   C599    1.335   .     S
C546   H614    1.087   .     S
C547   C552    1.411   .     A
C547   C575    1.487   .     S
C547   C873    1.400   1_545 S
C548   C579    1.487   .     S
C548   C551    1.411   .     A
C548   C712    1.400   .     S
C549   C551    1.411   .     A
C549   N583    1.429   .     S
C549   C709    1.400   .     S
C550   C552    1.411   .     A
C550   N589    1.429   .     S
C550   C872    1.400   1_545 S
C553   H561    1.082   .     S
C553   N566    1.367   .     A
C554   H562    1.082   .     S
C554   N565    1.367   .     A
C554   C1042   1.417   .     S
C555   H563    1.082   .     S
C555   N565    1.367   .     A
C555   C1039   1.417   .     S
C556   H564    1.082   .     S
C556   N566    1.367   .     A
Cu557  N565    2.013   .     S
Cu557  Cu558   2.679   .     S
Cu557  O570    1.960   .     S
Cu557  O571    1.956   .     S
Cu557  O574    1.958   .     S
Cu557  O567    1.961   .     S
Cu558  N566    2.013   .     S
Cu558  O572    1.956   .     S
Cu558  O569    1.960   .     S
Cu558  O573    1.958   .     S
Cu558  O568    1.961   .     S
H559   C599    1.087   .     S
C575   O576    1.222   .     D
C575   O577    1.397   .     S
O577   H578    1.014   .     S
C579   O581    1.397   .     S
C579   O580    1.222   .     D
O581   H582    1.014   .     S
N583   H584    1.032   .     S
N583   C585    1.451   .     S
C585   H586    1.110   .     S
C585   H587    1.111   .     S
C585   H588    1.113   .     S
N589   H590    1.032   .     S
N589   C591    1.451   .     S
C591   H594    1.111   .     S
C591   H592    1.110   .     S
C591   H593    1.113   .     S
C595   C606    1.448   .     S
C595   O623    1.290   .     A
C595   O621    1.288   .     A
C596   O624    1.290   .     A
C596   C605    1.448   .     S
C596   O622    1.288   .     A
C597   O625    1.286   .     A
C597   C599    1.433   .     S
C597   O627    1.288   .     A
C598   O626    1.286   .     A
C598   O628    1.288   .     A
C598   C600    1.433   .     S
C600   C491    1.335   1_655 S
C600   H506    1.087   1_655 S
C601   C606    1.411   .     A
C601   C629    1.487   .     S
C601   C927    1.400   1_545 S
C602   C633    1.487   .     S
C602   C605    1.411   .     A
C602   C766    1.400   .     S
C603   C605    1.411   .     A
C603   N637    1.429   .     S
C603   C763    1.400   .     S
C604   C606    1.411   .     A
C604   N643    1.429   .     S
C604   C926    1.400   1_545 S
C607   H615    1.082   .     S
C607   N620    1.367   .     A
C608   H616    1.082   .     S
C608   N619    1.367   .     A
C608   C1096   1.417   .     S
C609   H617    1.082   .     S
C609   N619    1.367   .     A
C609   C1093   1.417   .     S
C610   H618    1.082   .     S
C610   N620    1.367   .     A
Cu611  N619    2.013   .     S
Cu611  Cu612   2.679   .     S
Cu611  O624    1.960   .     S
Cu611  O625    1.956   .     S
Cu611  O628    1.958   .     S
Cu611  O621    1.961   .     S
Cu612  N620    2.013   .     S
Cu612  O626    1.956   .     S
Cu612  O623    1.960   .     S
Cu612  O627    1.958   .     S
Cu612  O622    1.961   .     S
H613   C491    1.087   1_655 S
C629   O630    1.222   .     D
C629   O631    1.397   .     S
O631   H632    1.014   .     S
C633   O635    1.397   .     S
C633   O634    1.222   .     D
O635   H636    1.014   .     S
N637   H638    1.032   .     S
N637   C639    1.451   .     S
C639   H640    1.110   .     S
C639   H641    1.111   .     S
C639   H642    1.113   .     S
N643   H644    1.032   .     S
N643   C645    1.451   .     S
C645   H648    1.111   .     S
C645   H646    1.110   .     S
C645   H647    1.113   .     S
C649   C660    1.448   .     S
C649   O677    1.290   .     A
C649   O675    1.288   .     A
C650   O678    1.290   .     A
C650   C659    1.448   .     S
C650   O676    1.288   .     A
C651   O679    1.286   .     A
C651   C653    1.433   .     S
C651   O681    1.288   .     A
C652   O680    1.286   .     A
C652   O682    1.288   .     A
C652   C654    1.433   .     S
C653   C762    1.335   1_455 S
C653   H775    1.087   1_455 S
C654   C707    1.335   .     S
C654   H722    1.087   .     S
C655   C660    1.411   .     A
C655   C683    1.487   .     S
C656   C687    1.487   .     S
C656   C659    1.411   .     A
C656   C820    1.400   .     S
C657   C659    1.411   .     A
C657   N691    1.429   .     S
C657   C817    1.400   .     S
C658   C660    1.411   .     A
C658   N697    1.429   .     S
C661   H669    1.082   .     S
C661   N674    1.367   .     A
C662   H670    1.082   .     S
C662   N673    1.367   .     A
C662   C1150   1.417   .     S
C663   H671    1.082   .     S
C663   N673    1.367   .     A
C663   C1147   1.417   .     S
C664   H672    1.082   .     S
C664   N674    1.367   .     A
Cu665  N673    2.013   .     S
Cu665  Cu666   2.679   .     S
Cu665  O678    1.960   .     S
Cu665  O679    1.956   .     S
Cu665  O682    1.958   .     S
Cu665  O675    1.961   .     S
Cu666  N674    2.013   .     S
Cu666  O680    1.956   .     S
Cu666  O677    1.960   .     S
Cu666  O681    1.958   .     S
Cu666  O676    1.961   .     S
H667   C707    1.087   .     S
H668   C762    1.087   1_455 S
C683   O684    1.222   .     D
C683   O685    1.397   .     S
O685   H686    1.014   .     S
C687   O689    1.397   .     S
C687   O688    1.222   .     D
O689   H690    1.014   .     S
N691   H692    1.032   .     S
N691   C693    1.451   .     S
C693   H694    1.110   .     S
C693   H695    1.111   .     S
C693   H696    1.113   .     S
N697   H698    1.032   .     S
N697   C699    1.451   .     S
C699   H702    1.111   .     S
C699   H700    1.110   .     S
C699   H701    1.113   .     S
C703   C714    1.448   .     S
C703   O731    1.290   .     A
C703   O729    1.288   .     A
C704   O732    1.290   .     A
C704   C713    1.448   .     S
C704   O730    1.288   .     A
C705   O733    1.286   .     A
C705   C707    1.433   .     S
C705   O735    1.288   .     A
C706   O734    1.286   .     A
C706   O736    1.288   .     A
C706   C708    1.433   .     S
C708   C761    1.335   .     S
C708   H776    1.087   .     S
C709   C714    1.411   .     A
C709   C737    1.487   .     S
C710   C741    1.487   .     S
C710   C713    1.411   .     A
C710   C874    1.400   .     S
C711   C713    1.411   .     A
C711   N745    1.429   .     S
C711   C871    1.400   .     S
C712   C714    1.411   .     A
C712   N751    1.429   .     S
C715   H723    1.082   .     S
C715   N728    1.367   .     A
C716   H724    1.082   .     S
C716   N727    1.367   .     A
C716   C1204   1.417   .     S
C717   H725    1.082   .     S
C717   N727    1.367   .     A
C717   C1201   1.417   .     S
C718   H726    1.082   .     S
C718   N728    1.367   .     A
Cu719  N727    2.013   .     S
Cu719  Cu720   2.679   .     S
Cu719  O732    1.960   .     S
Cu719  O733    1.956   .     S
Cu719  O736    1.958   .     S
Cu719  O729    1.961   .     S
Cu720  N728    2.013   .     S
Cu720  O734    1.956   .     S
Cu720  O731    1.960   .     S
Cu720  O735    1.958   .     S
Cu720  O730    1.961   .     S
H721   C761    1.087   .     S
C737   O738    1.222   .     D
C737   O739    1.397   .     S
O739   H740    1.014   .     S
C741   O743    1.397   .     S
C741   O742    1.222   .     D
O743   H744    1.014   .     S
N745   H746    1.032   .     S
N745   C747    1.451   .     S
C747   H748    1.110   .     S
C747   H749    1.111   .     S
C747   H750    1.113   .     S
N751   H752    1.032   .     S
N751   C753    1.451   .     S
C753   H756    1.111   .     S
C753   H754    1.110   .     S
C753   H755    1.113   .     S
C757   C768    1.448   .     S
C757   O785    1.290   .     A
C757   O783    1.288   .     A
C758   O786    1.290   .     A
C758   C767    1.448   .     S
C758   O784    1.288   .     A
C759   O787    1.286   .     A
C759   C761    1.433   .     S
C759   O789    1.288   .     A
C760   O788    1.286   .     A
C760   O790    1.288   .     A
C760   C762    1.433   .     S
C762   C653    1.335   1_655 S
C762   H668    1.087   1_655 S
C763   C768    1.411   .     A
C763   C791    1.487   .     S
C764   C795    1.487   .     S
C764   C767    1.411   .     A
C764   C928    1.400   .     S
C765   C767    1.411   .     A
C765   N799    1.429   .     S
C765   C925    1.400   .     S
C766   C768    1.411   .     A
C766   N805    1.429   .     S
C769   H777    1.082   .     S
C769   N782    1.367   .     A
C770   H778    1.082   .     S
C770   N781    1.367   .     A
C770   C1258   1.417   .     S
C771   H779    1.082   .     S
C771   N781    1.367   .     A
C771   C1255   1.417   .     S
C772   H780    1.082   .     S
C772   N782    1.367   .     A
Cu773  N781    2.013   .     S
Cu773  Cu774   2.679   .     S
Cu773  O786    1.960   .     S
Cu773  O787    1.956   .     S
Cu773  O790    1.958   .     S
Cu773  O783    1.961   .     S
Cu774  N782    2.013   .     S
Cu774  O788    1.956   .     S
Cu774  O785    1.960   .     S
Cu774  O789    1.958   .     S
Cu774  O784    1.961   .     S
H775   C653    1.087   1_655 S
C791   O792    1.222   .     D
C791   O793    1.397   .     S
O793   H794    1.014   .     S
C795   O797    1.397   .     S
C795   O796    1.222   .     D
O797   H798    1.014   .     S
N799   H800    1.032   .     S
N799   C801    1.451   .     S
C801   H802    1.110   .     S
C801   H803    1.111   .     S
C801   H804    1.113   .     S
N805   H806    1.032   .     S
N805   C807    1.451   .     S
C807   H810    1.111   .     S
C807   H808    1.110   .     S
C807   H809    1.113   .     S
C811   C822    1.448   .     S
C811   O839    1.290   .     A
C811   O837    1.288   .     A
C812   O840    1.290   .     A
C812   C821    1.448   .     S
C812   O838    1.288   .     A
C813   O841    1.286   .     A
C813   C815    1.433   .     S
C813   O843    1.288   .     A
C814   O842    1.286   .     A
C814   O844    1.288   .     A
C814   C816    1.433   .     S
C815   C924    1.335   1_455 S
C815   H937    1.087   1_455 S
C816   C869    1.335   .     S
C816   H884    1.087   .     S
C817   C822    1.411   .     A
C817   C845    1.487   .     S
C818   C849    1.487   .     S
C818   C821    1.411   .     A
C818   C496    1.400   1_565 S
C819   C821    1.411   .     A
C819   N853    1.429   .     S
C819   C493    1.400   1_565 S
C820   C822    1.411   .     A
C820   N859    1.429   .     S
C823   H831    1.082   .     S
C823   N836    1.367   .     A
C824   H832    1.082   .     S
C824   N835    1.367   .     A
C824   C1312   1.417   .     S
C825   H833    1.082   .     S
C825   N835    1.367   .     A
C825   C1309   1.417   .     S
C826   H834    1.082   .     S
C826   N836    1.367   .     A
Cu827  N835    2.013   .     S
Cu827  Cu828   2.679   .     S
Cu827  O840    1.960   .     S
Cu827  O841    1.956   .     S
Cu827  O844    1.958   .     S
Cu827  O837    1.961   .     S
Cu828  N836    2.013   .     S
Cu828  O842    1.956   .     S
Cu828  O839    1.960   .     S
Cu828  O843    1.958   .     S
Cu828  O838    1.961   .     S
H829   C869    1.087   .     S
H830   C924    1.087   1_455 S
C845   O846    1.222   .     D
C845   O847    1.397   .     S
O847   H848    1.014   .     S
C849   O851    1.397   .     S
C849   O850    1.222   .     D
O851   H852    1.014   .     S
N853   H854    1.032   .     S
N853   C855    1.451   .     S
C855   H856    1.110   .     S
C855   H857    1.111   .     S
C855   H858    1.113   .     S
N859   H860    1.032   .     S
N859   C861    1.451   .     S
C861   H864    1.111   .     S
C861   H862    1.110   .     S
C861   H863    1.113   .     S
C865   C876    1.448   .     S
C865   O893    1.290   .     A
C865   O891    1.288   .     A
C866   O894    1.290   .     A
C866   C875    1.448   .     S
C866   O892    1.288   .     A
C867   O895    1.286   .     A
C867   C869    1.433   .     S
C867   O897    1.288   .     A
C868   O896    1.286   .     A
C868   O898    1.288   .     A
C868   C870    1.433   .     S
C870   C923    1.335   .     S
C870   H938    1.087   .     S
C871   C876    1.411   .     A
C871   C899    1.487   .     S
C872   C903    1.487   .     S
C872   C875    1.411   .     A
C872   C550    1.400   1_565 S
C873   C875    1.411   .     A
C873   N907    1.429   .     S
C873   C547    1.400   1_565 S
C874   C876    1.411   .     A
C874   N913    1.429   .     S
C877   H885    1.082   .     S
C877   N890    1.367   .     A
C878   H886    1.082   .     S
C878   N889    1.367   .     A
C878   C1366   1.417   .     S
C879   H887    1.082   .     S
C879   N889    1.367   .     A
C879   C1363   1.417   .     S
C880   H888    1.082   .     S
C880   N890    1.367   .     A
Cu881  N889    2.013   .     S
Cu881  Cu882   2.679   .     S
Cu881  O894    1.960   .     S
Cu881  O895    1.956   .     S
Cu881  O898    1.958   .     S
Cu881  O891    1.961   .     S
Cu882  N890    2.013   .     S
Cu882  O896    1.956   .     S
Cu882  O893    1.960   .     S
Cu882  O897    1.958   .     S
Cu882  O892    1.961   .     S
H883   C923    1.087   .     S
C899   O900    1.222   .     D
C899   O901    1.397   .     S
O901   H902    1.014   .     S
C903   O905    1.397   .     S
C903   O904    1.222   .     D
O905   H906    1.014   .     S
N907   H908    1.032   .     S
N907   C909    1.451   .     S
C909   H910    1.110   .     S
C909   H911    1.111   .     S
C909   H912    1.113   .     S
N913   H914    1.032   .     S
N913   C915    1.451   .     S
C915   H918    1.111   .     S
C915   H916    1.110   .     S
C915   H917    1.113   .     S
C919   C930    1.448   .     S
C919   O947    1.290   .     A
C919   O945    1.288   .     A
C920   O948    1.290   .     A
C920   C929    1.448   .     S
C920   O946    1.288   .     A
C921   O949    1.286   .     A
C921   C923    1.433   .     S
C921   O951    1.288   .     A
C922   O950    1.286   .     A
C922   O952    1.288   .     A
C922   C924    1.433   .     S
C924   C815    1.335   1_655 S
C924   H830    1.087   1_655 S
C925   C930    1.411   .     A
C925   C953    1.487   .     S
C926   C957    1.487   .     S
C926   C929    1.411   .     A
C926   C604    1.400   1_565 S
C927   C929    1.411   .     A
C927   N961    1.429   .     S
C927   C601    1.400   1_565 S
C928   C930    1.411   .     A
C928   N967    1.429   .     S
C931   H939    1.082   .     S
C931   N944    1.367   .     A
C932   H940    1.082   .     S
C932   N943    1.367   .     A
C932   C1420   1.417   .     S
C933   H941    1.082   .     S
C933   N943    1.367   .     A
C933   C1417   1.417   .     S
C934   H942    1.082   .     S
C934   N944    1.367   .     A
Cu935  N943    2.013   .     S
Cu935  Cu936   2.679   .     S
Cu935  O948    1.960   .     S
Cu935  O949    1.956   .     S
Cu935  O952    1.958   .     S
Cu935  O945    1.961   .     S
Cu936  N944    2.013   .     S
Cu936  O950    1.956   .     S
Cu936  O947    1.960   .     S
Cu936  O951    1.958   .     S
Cu936  O946    1.961   .     S
H937   C815    1.087   1_655 S
C953   O954    1.222   .     D
C953   O955    1.397   .     S
O955   H956    1.014   .     S
C957   O959    1.397   .     S
C957   O958    1.222   .     D
O959   H960    1.014   .     S
N961   H962    1.032   .     S
N961   C963    1.451   .     S
C963   H964    1.110   .     S
C963   H965    1.111   .     S
C963   H966    1.113   .     S
N967   H968    1.032   .     S
N967   C969    1.451   .     S
C969   H972    1.111   .     S
C969   H970    1.110   .     S
C969   H971    1.113   .     S
C973   C984    1.448   .     S
C973   O1001   1.290   .     A
C973   O999    1.288   .     A
C974   O1002   1.290   .     A
C974   C983    1.448   .     S
C974   O1000   1.288   .     A
C975   O1003   1.286   .     A
C975   C977    1.433   .     S
C975   O1005   1.288   .     A
C976   O1004   1.286   .     A
C976   O1006   1.288   .     A
C976   C978    1.433   .     S
C977   C1086   1.335   1_455 S
C977   H1099   1.087   1_455 S
C978   C1031   1.335   .     S
C978   H1046   1.087   .     S
C979   C984    1.411   .     A
C979   C1007   1.487   .     S
C979   C1305   1.400   1_545 S
C980   C1011   1.487   .     S
C980   C983    1.411   .     A
C980   C1144   1.400   .     S
C981   C983    1.411   .     A
C981   N1015   1.429   .     S
C981   C1141   1.400   .     S
C982   C984    1.411   .     A
C982   N1021   1.429   .     S
C982   C1304   1.400   1_545 S
C985   H993    1.082   .     S
C985   N998    1.367   .     A
C986   H994    1.082   .     S
C986   N997    1.367   .     A
C986   C16     1.417   1_556 S
C987   H995    1.082   .     S
C987   N997    1.367   .     A
C987   C13     1.417   1_556 S
C988   H996    1.082   .     S
C988   N998    1.367   .     A
Cu989  N997    2.013   .     S
Cu989  Cu990   2.679   .     S
Cu989  O1002   1.960   .     S
Cu989  O1003   1.956   .     S
Cu989  O1006   1.958   .     S
Cu989  O999    1.961   .     S
Cu990  N998    2.013   .     S
Cu990  O1004   1.956   .     S
Cu990  O1001   1.960   .     S
Cu990  O1005   1.958   .     S
Cu990  O1000   1.961   .     S
H991   C1031   1.087   .     S
H992   C1086   1.087   1_455 S
C1007  O1008   1.222   .     D
C1007  O1009   1.397   .     S
O1009  H1010   1.014   .     S
C1011  O1013   1.397   .     S
C1011  O1012   1.222   .     D
O1013  H1014   1.014   .     S
N1015  H1016   1.032   .     S
N1015  C1017   1.451   .     S
C1017  H1018   1.110   .     S
C1017  H1019   1.111   .     S
C1017  H1020   1.113   .     S
N1021  H1022   1.032   .     S
N1021  C1023   1.451   .     S
C1023  H1026   1.111   .     S
C1023  H1024   1.110   .     S
C1023  H1025   1.113   .     S
C1027  C1038   1.448   .     S
C1027  O1055   1.290   .     A
C1027  O1053   1.288   .     A
C1028  O1056   1.290   .     A
C1028  C1037   1.448   .     S
C1028  O1054   1.288   .     A
C1029  O1057   1.286   .     A
C1029  C1031   1.433   .     S
C1029  O1059   1.288   .     A
C1030  O1058   1.286   .     A
C1030  O1060   1.288   .     A
C1030  C1032   1.433   .     S
C1032  C1085   1.335   .     S
C1032  H1100   1.087   .     S
C1033  C1038   1.411   .     A
C1033  C1061   1.487   .     S
C1033  C1359   1.400   1_545 S
C1034  C1065   1.487   .     S
C1034  C1037   1.411   .     A
C1034  C1198   1.400   .     S
C1035  C1037   1.411   .     A
C1035  N1069   1.429   .     S
C1035  C1195   1.400   .     S
C1036  C1038   1.411   .     A
C1036  N1075   1.429   .     S
C1036  C1358   1.400   1_545 S
C1039  H1047   1.082   .     S
C1039  N1052   1.367   .     A
C1040  H1048   1.082   .     S
C1040  N1051   1.367   .     A
C1040  C70     1.417   1_556 S
C1041  H1049   1.082   .     S
C1041  N1051   1.367   .     A
C1041  C67     1.417   1_556 S
C1042  H1050   1.082   .     S
C1042  N1052   1.367   .     A
Cu1043 N1051   2.013   .     S
Cu1043 Cu1044  2.679   .     S
Cu1043 O1056   1.960   .     S
Cu1043 O1057   1.956   .     S
Cu1043 O1060   1.958   .     S
Cu1043 O1053   1.961   .     S
Cu1044 N1052   2.013   .     S
Cu1044 O1058   1.956   .     S
Cu1044 O1055   1.960   .     S
Cu1044 O1059   1.958   .     S
Cu1044 O1054   1.961   .     S
H1045  C1085   1.087   .     S
C1061  O1062   1.222   .     D
C1061  O1063   1.397   .     S
O1063  H1064   1.014   .     S
C1065  O1067   1.397   .     S
C1065  O1066   1.222   .     D
O1067  H1068   1.014   .     S
N1069  H1070   1.032   .     S
N1069  C1071   1.451   .     S
C1071  H1072   1.110   .     S
C1071  H1073   1.111   .     S
C1071  H1074   1.113   .     S
N1075  H1076   1.032   .     S
N1075  C1077   1.451   .     S
C1077  H1080   1.111   .     S
C1077  H1078   1.110   .     S
C1077  H1079   1.113   .     S
C1081  C1092   1.448   .     S
C1081  O1109   1.290   .     A
C1081  O1107   1.288   .     A
C1082  O1110   1.290   .     A
C1082  C1091   1.448   .     S
C1082  O1108   1.288   .     A
C1083  O1111   1.286   .     A
C1083  C1085   1.433   .     S
C1083  O1113   1.288   .     A
C1084  O1112   1.286   .     A
C1084  O1114   1.288   .     A
C1084  C1086   1.433   .     S
C1086  C977    1.335   1_655 S
C1086  H992    1.087   1_655 S
C1087  C1092   1.411   .     A
C1087  C1115   1.487   .     S
C1087  C1413   1.400   1_545 S
C1088  C1119   1.487   .     S
C1088  C1091   1.411   .     A
C1088  C1252   1.400   .     S
C1089  C1091   1.411   .     A
C1089  N1123   1.429   .     S
C1089  C1249   1.400   .     S
C1090  C1092   1.411   .     A
C1090  N1129   1.429   .     S
C1090  C1412   1.400   1_545 S
C1093  H1101   1.082   .     S
C1093  N1106   1.367   .     A
C1094  H1102   1.082   .     S
C1094  N1105   1.367   .     A
C1094  C124    1.417   1_556 S
C1095  H1103   1.082   .     S
C1095  N1105   1.367   .     A
C1095  C121    1.417   1_556 S
C1096  H1104   1.082   .     S
C1096  N1106   1.367   .     A
Cu1097 N1105   2.013   .     S
Cu1097 Cu1098  2.679   .     S
Cu1097 O1110   1.960   .     S
Cu1097 O1111   1.956   .     S
Cu1097 O1114   1.958   .     S
Cu1097 O1107   1.961   .     S
Cu1098 N1106   2.013   .     S
Cu1098 O1112   1.956   .     S
Cu1098 O1109   1.960   .     S
Cu1098 O1113   1.958   .     S
Cu1098 O1108   1.961   .     S
H1099  C977    1.087   1_655 S
C1115  O1116   1.222   .     D
C1115  O1117   1.397   .     S
O1117  H1118   1.014   .     S
C1119  O1121   1.397   .     S
C1119  O1120   1.222   .     D
O1121  H1122   1.014   .     S
N1123  H1124   1.032   .     S
N1123  C1125   1.451   .     S
C1125  H1126   1.110   .     S
C1125  H1127   1.111   .     S
C1125  H1128   1.113   .     S
N1129  H1130   1.032   .     S
N1129  C1131   1.451   .     S
C1131  H1134   1.111   .     S
C1131  H1132   1.110   .     S
C1131  H1133   1.113   .     S
C1135  C1146   1.448   .     S
C1135  O1163   1.290   .     A
C1135  O1161   1.288   .     A
C1136  O1164   1.290   .     A
C1136  C1145   1.448   .     S
C1136  O1162   1.288   .     A
C1137  O1165   1.286   .     A
C1137  C1139   1.433   .     S
C1137  O1167   1.288   .     A
C1138  O1166   1.286   .     A
C1138  O1168   1.288   .     A
C1138  C1140   1.433   .     S
C1139  C1248   1.335   1_455 S
C1139  H1261   1.087   1_455 S
C1140  C1193   1.335   .     S
C1140  H1208   1.087   .     S
C1141  C1146   1.411   .     A
C1141  C1169   1.487   .     S
C1142  C1173   1.487   .     S
C1142  C1145   1.411   .     A
C1142  C1306   1.400   .     S
C1143  C1145   1.411   .     A
C1143  N1177   1.429   .     S
C1143  C1303   1.400   .     S
C1144  C1146   1.411   .     A
C1144  N1183   1.429   .     S
C1147  H1155   1.082   .     S
C1147  N1160   1.367   .     A
C1148  H1156   1.082   .     S
C1148  N1159   1.367   .     A
C1148  C178    1.417   1_556 S
C1149  H1157   1.082   .     S
C1149  N1159   1.367   .     A
C1149  C175    1.417   1_556 S
C1150  H1158   1.082   .     S
C1150  N1160   1.367   .     A
Cu1151 N1159   2.013   .     S
Cu1151 Cu1152  2.679   .     S
Cu1151 O1164   1.960   .     S
Cu1151 O1165   1.956   .     S
Cu1151 O1168   1.958   .     S
Cu1151 O1161   1.961   .     S
Cu1152 N1160   2.013   .     S
Cu1152 O1166   1.956   .     S
Cu1152 O1163   1.960   .     S
Cu1152 O1167   1.958   .     S
Cu1152 O1162   1.961   .     S
H1153  C1193   1.087   .     S
H1154  C1248   1.087   1_455 S
C1169  O1170   1.222   .     D
C1169  O1171   1.397   .     S
O1171  H1172   1.014   .     S
C1173  O1175   1.397   .     S
C1173  O1174   1.222   .     D
O1175  H1176   1.014   .     S
N1177  H1178   1.032   .     S
N1177  C1179   1.451   .     S
C1179  H1180   1.110   .     S
C1179  H1181   1.111   .     S
C1179  H1182   1.113   .     S
N1183  H1184   1.032   .     S
N1183  C1185   1.451   .     S
C1185  H1188   1.111   .     S
C1185  H1186   1.110   .     S
C1185  H1187   1.113   .     S
C1189  C1200   1.448   .     S
C1189  O1217   1.290   .     A
C1189  O1215   1.288   .     A
C1190  O1218   1.290   .     A
C1190  C1199   1.448   .     S
C1190  O1216   1.288   .     A
C1191  O1219   1.286   .     A
C1191  C1193   1.433   .     S
C1191  O1221   1.288   .     A
C1192  O1220   1.286   .     A
C1192  O1222   1.288   .     A
C1192  C1194   1.433   .     S
C1194  C1247   1.335   .     S
C1194  H1262   1.087   .     S
C1195  C1200   1.411   .     A
C1195  C1223   1.487   .     S
C1196  C1227   1.487   .     S
C1196  C1199   1.411   .     A
C1196  C1360   1.400   .     S
C1197  C1199   1.411   .     A
C1197  N1231   1.429   .     S
C1197  C1357   1.400   .     S
C1198  C1200   1.411   .     A
C1198  N1237   1.429   .     S
C1201  H1209   1.082   .     S
C1201  N1214   1.367   .     A
C1202  H1210   1.082   .     S
C1202  N1213   1.367   .     A
C1202  C232    1.417   1_556 S
C1203  H1211   1.082   .     S
C1203  N1213   1.367   .     A
C1203  C229    1.417   1_556 S
C1204  H1212   1.082   .     S
C1204  N1214   1.367   .     A
Cu1205 N1213   2.013   .     S
Cu1205 Cu1206  2.679   .     S
Cu1205 O1218   1.960   .     S
Cu1205 O1219   1.956   .     S
Cu1205 O1222   1.958   .     S
Cu1205 O1215   1.961   .     S
Cu1206 N1214   2.013   .     S
Cu1206 O1220   1.956   .     S
Cu1206 O1217   1.960   .     S
Cu1206 O1221   1.958   .     S
Cu1206 O1216   1.961   .     S
H1207  C1247   1.087   .     S
C1223  O1224   1.222   .     D
C1223  O1225   1.397   .     S
O1225  H1226   1.014   .     S
C1227  O1229   1.397   .     S
C1227  O1228   1.222   .     D
O1229  H1230   1.014   .     S
N1231  H1232   1.032   .     S
N1231  C1233   1.451   .     S
C1233  H1234   1.110   .     S
C1233  H1235   1.111   .     S
C1233  H1236   1.113   .     S
N1237  H1238   1.032   .     S
N1237  C1239   1.451   .     S
C1239  H1242   1.111   .     S
C1239  H1240   1.110   .     S
C1239  H1241   1.113   .     S
C1243  C1254   1.448   .     S
C1243  O1271   1.290   .     A
C1243  O1269   1.288   .     A
C1244  O1272   1.290   .     A
C1244  C1253   1.448   .     S
C1244  O1270   1.288   .     A
C1245  O1273   1.286   .     A
C1245  C1247   1.433   .     S
C1245  O1275   1.288   .     A
C1246  O1274   1.286   .     A
C1246  O1276   1.288   .     A
C1246  C1248   1.433   .     S
C1248  C1139   1.335   1_655 S
C1248  H1154   1.087   1_655 S
C1249  C1254   1.411   .     A
C1249  C1277   1.487   .     S
C1250  C1281   1.487   .     S
C1250  C1253   1.411   .     A
C1250  C1414   1.400   .     S
C1251  C1253   1.411   .     A
C1251  N1285   1.429   .     S
C1251  C1411   1.400   .     S
C1252  C1254   1.411   .     A
C1252  N1291   1.429   .     S
C1255  H1263   1.082   .     S
C1255  N1268   1.367   .     A
C1256  H1264   1.082   .     S
C1256  N1267   1.367   .     A
C1256  C286    1.417   1_556 S
C1257  H1265   1.082   .     S
C1257  N1267   1.367   .     A
C1257  C283    1.417   1_556 S
C1258  H1266   1.082   .     S
C1258  N1268   1.367   .     A
Cu1259 N1267   2.013   .     S
Cu1259 Cu1260  2.679   .     S
Cu1259 O1272   1.960   .     S
Cu1259 O1273   1.956   .     S
Cu1259 O1276   1.958   .     S
Cu1259 O1269   1.961   .     S
Cu1260 N1268   2.013   .     S
Cu1260 O1274   1.956   .     S
Cu1260 O1271   1.960   .     S
Cu1260 O1275   1.958   .     S
Cu1260 O1270   1.961   .     S
H1261  C1139   1.087   1_655 S
C1277  O1278   1.222   .     D
C1277  O1279   1.397   .     S
O1279  H1280   1.014   .     S
C1281  O1283   1.397   .     S
C1281  O1282   1.222   .     D
O1283  H1284   1.014   .     S
N1285  H1286   1.032   .     S
N1285  C1287   1.451   .     S
C1287  H1288   1.110   .     S
C1287  H1289   1.111   .     S
C1287  H1290   1.113   .     S
N1291  H1292   1.032   .     S
N1291  C1293   1.451   .     S
C1293  H1296   1.111   .     S
C1293  H1294   1.110   .     S
C1293  H1295   1.113   .     S
C1297  C1308   1.448   .     S
C1297  O1325   1.290   .     A
C1297  O1323   1.288   .     A
C1298  O1326   1.290   .     A
C1298  C1307   1.448   .     S
C1298  O1324   1.288   .     A
C1299  O1327   1.286   .     A
C1299  C1301   1.433   .     S
C1299  O1329   1.288   .     A
C1300  O1328   1.286   .     A
C1300  O1330   1.288   .     A
C1300  C1302   1.433   .     S
C1301  C1410   1.335   1_455 S
C1301  H1423   1.087   1_455 S
C1302  C1355   1.335   .     S
C1302  H1370   1.087   .     S
C1303  C1308   1.411   .     A
C1303  C1331   1.487   .     S
C1304  C1335   1.487   .     S
C1304  C1307   1.411   .     A
C1304  C982    1.400   1_565 S
C1305  C1307   1.411   .     A
C1305  N1339   1.429   .     S
C1305  C979    1.400   1_565 S
C1306  C1308   1.411   .     A
C1306  N1345   1.429   .     S
C1309  H1317   1.082   .     S
C1309  N1322   1.367   .     A
C1310  H1318   1.082   .     S
C1310  N1321   1.367   .     A
C1310  C340    1.417   1_556 S
C1311  H1319   1.082   .     S
C1311  N1321   1.367   .     A
C1311  C337    1.417   1_556 S
C1312  H1320   1.082   .     S
C1312  N1322   1.367   .     A
Cu1313 N1321   2.013   .     S
Cu1313 Cu1314  2.679   .     S
Cu1313 O1326   1.960   .     S
Cu1313 O1327   1.956   .     S
Cu1313 O1330   1.958   .     S
Cu1313 O1323   1.961   .     S
Cu1314 N1322   2.013   .     S
Cu1314 O1328   1.956   .     S
Cu1314 O1325   1.960   .     S
Cu1314 O1329   1.958   .     S
Cu1314 O1324   1.961   .     S
H1315  C1355   1.087   .     S
H1316  C1410   1.087   1_455 S
C1331  O1332   1.222   .     D
C1331  O1333   1.397   .     S
O1333  H1334   1.014   .     S
C1335  O1337   1.397   .     S
C1335  O1336   1.222   .     D
O1337  H1338   1.014   .     S
N1339  H1340   1.032   .     S
N1339  C1341   1.451   .     S
C1341  H1342   1.110   .     S
C1341  H1343   1.111   .     S
C1341  H1344   1.113   .     S
N1345  H1346   1.032   .     S
N1345  C1347   1.451   .     S
C1347  H1350   1.111   .     S
C1347  H1348   1.110   .     S
C1347  H1349   1.113   .     S
C1351  C1362   1.448   .     S
C1351  O1379   1.290   .     A
C1351  O1377   1.288   .     A
C1352  O1380   1.290   .     A
C1352  C1361   1.448   .     S
C1352  O1378   1.288   .     A
C1353  O1381   1.286   .     A
C1353  C1355   1.433   .     S
C1353  O1383   1.288   .     A
C1354  O1382   1.286   .     A
C1354  O1384   1.288   .     A
C1354  C1356   1.433   .     S
C1356  C1409   1.335   .     S
C1356  H1424   1.087   .     S
C1357  C1362   1.411   .     A
C1357  C1385   1.487   .     S
C1358  C1389   1.487   .     S
C1358  C1361   1.411   .     A
C1358  C1036   1.400   1_565 S
C1359  C1361   1.411   .     A
C1359  N1393   1.429   .     S
C1359  C1033   1.400   1_565 S
C1360  C1362   1.411   .     A
C1360  N1399   1.429   .     S
C1363  H1371   1.082   .     S
C1363  N1376   1.367   .     A
C1364  H1372   1.082   .     S
C1364  N1375   1.367   .     A
C1364  C394    1.417   1_556 S
C1365  H1373   1.082   .     S
C1365  N1375   1.367   .     A
C1365  C391    1.417   1_556 S
C1366  H1374   1.082   .     S
C1366  N1376   1.367   .     A
Cu1367 N1375   2.013   .     S
Cu1367 Cu1368  2.679   .     S
Cu1367 O1380   1.960   .     S
Cu1367 O1381   1.956   .     S
Cu1367 O1384   1.958   .     S
Cu1367 O1377   1.961   .     S
Cu1368 N1376   2.013   .     S
Cu1368 O1382   1.956   .     S
Cu1368 O1379   1.960   .     S
Cu1368 O1383   1.958   .     S
Cu1368 O1378   1.961   .     S
H1369  C1409   1.087   .     S
C1385  O1386   1.222   .     D
C1385  O1387   1.397   .     S
O1387  H1388   1.014   .     S
C1389  O1391   1.397   .     S
C1389  O1390   1.222   .     D
O1391  H1392   1.014   .     S
N1393  H1394   1.032   .     S
N1393  C1395   1.451   .     S
C1395  H1396   1.110   .     S
C1395  H1397   1.111   .     S
C1395  H1398   1.113   .     S
N1399  H1400   1.032   .     S
N1399  C1401   1.451   .     S
C1401  H1404   1.111   .     S
C1401  H1402   1.110   .     S
C1401  H1403   1.113   .     S
C1405  C1416   1.448   .     S
C1405  O1433   1.290   .     A
C1405  O1431   1.288   .     A
C1406  O1434   1.290   .     A
C1406  C1415   1.448   .     S
C1406  O1432   1.288   .     A
C1407  O1435   1.286   .     A
C1407  C1409   1.433   .     S
C1407  O1437   1.288   .     A
C1408  O1436   1.286   .     A
C1408  O1438   1.288   .     A
C1408  C1410   1.433   .     S
C1410  C1301   1.335   1_655 S
C1410  H1316   1.087   1_655 S
C1411  C1416   1.411   .     A
C1411  C1439   1.487   .     S
C1412  C1443   1.487   .     S
C1412  C1415   1.411   .     A
C1412  C1090   1.400   1_565 S
C1413  C1415   1.411   .     A
C1413  N1447   1.429   .     S
C1413  C1087   1.400   1_565 S
C1414  C1416   1.411   .     A
C1414  N1453   1.429   .     S
C1417  H1425   1.082   .     S
C1417  N1430   1.367   .     A
C1418  H1426   1.082   .     S
C1418  N1429   1.367   .     A
C1418  C448    1.417   1_556 S
C1419  H1427   1.082   .     S
C1419  N1429   1.367   .     A
C1419  C445    1.417   1_556 S
C1420  H1428   1.082   .     S
C1420  N1430   1.367   .     A
Cu1421 N1429   2.013   .     S
Cu1421 Cu1422  2.679   .     S
Cu1421 O1434   1.960   .     S
Cu1421 O1435   1.956   .     S
Cu1421 O1438   1.958   .     S
Cu1421 O1431   1.961   .     S
Cu1422 N1430   2.013   .     S
Cu1422 O1436   1.956   .     S
Cu1422 O1433   1.960   .     S
Cu1422 O1437   1.958   .     S
Cu1422 O1432   1.961   .     S
H1423  C1301   1.087   1_655 S
C1439  O1440   1.222   .     D
C1439  O1441   1.397   .     S
O1441  H1442   1.014   .     S
C1443  O1445   1.397   .     S
C1443  O1444   1.222   .     D
O1445  H1446   1.014   .     S
N1447  H1448   1.032   .     S
N1447  C1449   1.451   .     S
C1449  H1450   1.110   .     S
C1449  H1451   1.111   .     S
C1449  H1452   1.113   .     S
N1453  H1454   1.032   .     S
N1453  C1455   1.451   .     S
C1455  H1458   1.111   .     S
C1455  H1456   1.110   .     S
C1455  H1457   1.113   .     S
