data_str_m2_o2_o10_pcu_sym.200
_audit_creation_date              2020-01-03
_audit_creation_method            'Materials Studio'
_symmetry_space_group_name_H-M    'P1'
_symmetry_Int_Tables_number       1
_symmetry_cell_setting            triclinic
loop_
_symmetry_equiv_pos_as_xyz
  x,y,z
_cell_length_a                    26.1947
_cell_length_b                    30.3154
_cell_length_c                    27.6373
_cell_angle_alpha                 89.8857
_cell_angle_beta                  97.9678
_cell_angle_gamma                 90.0373
loop_
_atom_site_label
_atom_site_type_symbol
_atom_site_fract_x
_atom_site_fract_y
_atom_site_fract_z
_atom_site_U_iso_or_equiv
_atom_site_adp_type
_atom_site_occupancy
C1     C     0.16780   0.16491   0.25021   0.00000  Uiso   1.00
C2     C     0.16541   0.33508   0.24977   0.00000  Uiso   1.00
C3     C     0.13664   0.28175   0.04996   0.00000  Uiso   1.00
C4     C     0.13516   0.21939   0.44199   0.00000  Uiso   1.00
C5     C     0.13782   0.28048   0.10126   0.00000  Uiso   1.00
C6     C     0.13647   0.22050   0.39102   0.00000  Uiso   1.00
C7     C     0.19531   0.22008   0.10800   0.00000  Uiso   1.00
C8     C     0.19658   0.27904   0.39965   0.00000  Uiso   1.00
C9     C     0.19535   0.21987   0.05709   0.00000  Uiso   1.00
C10    C     0.19666   0.27931   0.45057   0.00000  Uiso   1.00
C11    C     0.16578   0.25065   0.02713   0.00000  Uiso   1.00
C12    C     0.16572   0.24954   0.47262   0.00000  Uiso   1.00
C13    C     0.06785   0.24997   0.23752   0.00000  Uiso   1.00
C14    C     0.26548   0.24998   0.26248   0.00000  Uiso   1.00
C15    C     0.01261   0.24996   0.23061   0.00000  Uiso   1.00
C16    C     0.32073   0.24992   0.26940   0.00000  Uiso   1.00
C17    C     0.18223   0.04804   0.29652   0.00000  Uiso   1.00
C18    C     0.15001   0.45177   0.20307   0.00000  Uiso   1.00
C19    C     0.17649   0.09386   0.29530   0.00000  Uiso   1.00
C20    C     0.15614   0.40599   0.20445   0.00000  Uiso   1.00
C21    C     0.17170   0.11677   0.25095   0.00000  Uiso   1.00
C22    C     0.16105   0.38319   0.24889   0.00000  Uiso   1.00
C23    C     0.17659   0.09371   0.20820   0.00000  Uiso   1.00
C24    C     0.15566   0.40627   0.29150   0.00000  Uiso   1.00
C25    C     0.17919   0.04803   0.20907   0.00000  Uiso   1.00
C26    C     0.15251   0.45193   0.29044   0.00000  Uiso   1.00
C27    C     0.17308   0.02410   0.25156   0.00000  Uiso   1.00
C28    C     0.15873   0.47581   0.24795   0.00000  Uiso   1.00
Cu29   Cu    0.16667   0.24999   0.29821   0.00000  Uiso   1.00
Cu30   Cu    0.16667   0.25000   0.20178   0.00000  Uiso   1.00
H31    H     0.32593   0.24999   0.19341   0.00000  Uiso   1.00
H32    H     0.00741   0.24987   0.30660   0.00000  Uiso   1.00
H33    H     0.17993   0.11192   0.32941   0.00000  Uiso   1.00
H34    H     0.15287   0.38786   0.17039   0.00000  Uiso   1.00
H35    H     0.17836   0.11083   0.17403   0.00000  Uiso   1.00
H36    H     0.15389   0.38919   0.32570   0.00000  Uiso   1.00
H37    H     0.18578   0.03194   0.17599   0.00000  Uiso   1.00
H38    H     0.14553   0.46810   0.32337   0.00000  Uiso   1.00
H39    H     0.11555   0.30400   0.11897   0.00000  Uiso   1.00
H40    H     0.11321   0.19767   0.36735   0.00000  Uiso   1.00
H41    H     0.21834   0.19617   0.13046   0.00000  Uiso   1.00
H42    H     0.22059   0.30222   0.38332   0.00000  Uiso   1.00
H43    H     0.21839   0.19569   0.04109   0.00000  Uiso   1.00
H44    H     0.22078   0.30274   0.47273   0.00000  Uiso   1.00
N45    N     0.16667   0.25001   0.12934   0.00000  Uiso   1.00
N46    N     0.16667   0.24999   0.37065   0.00000  Uiso   1.00
O47    O     0.16667   0.18572   0.29071   0.00000  Uiso   1.00
O48    O     0.16666   0.31427   0.20928   0.00000  Uiso   1.00
O49    O     0.16667   0.18573   0.20928   0.00000  Uiso   1.00
O50    O     0.16666   0.31427   0.29072   0.00000  Uiso   1.00
O51    O     0.09161   0.24999   0.28132   0.00000  Uiso   1.00
O52    O     0.24172   0.25000   0.21868   0.00000  Uiso   1.00
O53    O     0.09161   0.25000   0.19988   0.00000  Uiso   1.00
O54    O     0.24172   0.25000   0.30011   0.00000  Uiso   1.00
S55    S     0.21679   0.02684   0.35165   0.00000  Uiso   1.00
O56    O     0.24557   0.48553   0.34225   0.00000  Uiso   1.00
O57    O     0.25507   0.06082   0.37338   0.00000  Uiso   1.00
O58    O     0.17567   0.01660   0.39197   0.00000  Uiso   1.00
H59    H     0.19733   0.00412   0.42100   0.00000  Uiso   1.00
S60    S     0.11512   0.47264   0.14796   0.00000  Uiso   1.00
O61    O     0.15158   0.48130   0.11152   0.00000  Uiso   1.00
O62    O     0.07647   0.43866   0.12694   0.00000  Uiso   1.00
O63    O     0.08314   0.01907   0.15817   0.00000  Uiso   1.00
H64    H     0.06917   0.03020   0.12527   0.00000  Uiso   1.00
S65    S     0.09881   0.32237   0.01568   0.00000  Uiso   1.00
O66    O     0.06546   0.30108   0.47349   0.00000  Uiso   1.00
O67    O     0.06519   0.34598   0.04716   0.00000  Uiso   1.00
O68    O     0.13825   0.35903   0.49408   0.00000  Uiso   1.00
H69    H     0.11518   0.37862   0.47221   0.00000  Uiso   1.00
S70    S     0.09537   0.18020   0.46613   0.00000  Uiso   1.00
O71    O     0.06325   0.20267   0.49983   0.00000  Uiso   1.00
O72    O     0.06045   0.15790   0.42572   0.00000  Uiso   1.00
O73    O     0.13297   0.14209   0.49773   0.00000  Uiso   1.00
H74    H     0.10901   0.12349   0.01365   0.00000  Uiso   1.00
C75    C     0.50113   0.16491   0.25021   0.00000  Uiso   1.00
C76    C     0.49874   0.33508   0.24977   0.00000  Uiso   1.00
C77    C     0.46997   0.28175   0.04996   0.00000  Uiso   1.00
C78    C     0.46849   0.21939   0.44199   0.00000  Uiso   1.00
C79    C     0.47115   0.28048   0.10126   0.00000  Uiso   1.00
C80    C     0.46981   0.22050   0.39102   0.00000  Uiso   1.00
C81    C     0.52865   0.22008   0.10800   0.00000  Uiso   1.00
C82    C     0.52991   0.27904   0.39965   0.00000  Uiso   1.00
C83    C     0.52868   0.21987   0.05709   0.00000  Uiso   1.00
C84    C     0.52999   0.27931   0.45057   0.00000  Uiso   1.00
C85    C     0.49911   0.25065   0.02713   0.00000  Uiso   1.00
C86    C     0.49905   0.24954   0.47262   0.00000  Uiso   1.00
C87    C     0.40119   0.24997   0.23752   0.00000  Uiso   1.00
C88    C     0.59882   0.24998   0.26248   0.00000  Uiso   1.00
C89    C     0.34594   0.24996   0.23061   0.00000  Uiso   1.00
C90    C     0.65406   0.24992   0.26940   0.00000  Uiso   1.00
C91    C     0.51556   0.04804   0.29652   0.00000  Uiso   1.00
C92    C     0.48335   0.45177   0.20307   0.00000  Uiso   1.00
C93    C     0.50982   0.09386   0.29530   0.00000  Uiso   1.00
C94    C     0.48948   0.40599   0.20445   0.00000  Uiso   1.00
C95    C     0.50504   0.11677   0.25095   0.00000  Uiso   1.00
C96    C     0.49439   0.38319   0.24889   0.00000  Uiso   1.00
C97    C     0.50992   0.09371   0.20820   0.00000  Uiso   1.00
C98    C     0.48899   0.40627   0.29150   0.00000  Uiso   1.00
C99    C     0.51252   0.04803   0.20907   0.00000  Uiso   1.00
C100   C     0.48584   0.45193   0.29044   0.00000  Uiso   1.00
C101   C     0.50642   0.02410   0.25156   0.00000  Uiso   1.00
C102   C     0.49207   0.47581   0.24795   0.00000  Uiso   1.00
Cu103  Cu    0.50000   0.24999   0.29821   0.00000  Uiso   1.00
Cu104  Cu    0.50000   0.25000   0.20178   0.00000  Uiso   1.00
H105   H     0.65927   0.24999   0.19341   0.00000  Uiso   1.00
H106   H     0.34074   0.24987   0.30660   0.00000  Uiso   1.00
H107   H     0.51327   0.11192   0.32941   0.00000  Uiso   1.00
H108   H     0.48620   0.38786   0.17039   0.00000  Uiso   1.00
H109   H     0.51169   0.11083   0.17403   0.00000  Uiso   1.00
H110   H     0.48722   0.38919   0.32570   0.00000  Uiso   1.00
H111   H     0.51912   0.03194   0.17599   0.00000  Uiso   1.00
H112   H     0.47886   0.46810   0.32337   0.00000  Uiso   1.00
H113   H     0.44889   0.30400   0.11897   0.00000  Uiso   1.00
H114   H     0.44655   0.19767   0.36735   0.00000  Uiso   1.00
H115   H     0.55167   0.19617   0.13046   0.00000  Uiso   1.00
H116   H     0.55392   0.30222   0.38332   0.00000  Uiso   1.00
H117   H     0.55172   0.19569   0.04109   0.00000  Uiso   1.00
H118   H     0.55411   0.30274   0.47273   0.00000  Uiso   1.00
N119   N     0.50000   0.25001   0.12934   0.00000  Uiso   1.00
N120   N     0.50000   0.24999   0.37065   0.00000  Uiso   1.00
O121   O     0.50000   0.18572   0.29071   0.00000  Uiso   1.00
O122   O     0.50000   0.31427   0.20928   0.00000  Uiso   1.00
O123   O     0.50000   0.18573   0.20928   0.00000  Uiso   1.00
O124   O     0.50000   0.31427   0.29072   0.00000  Uiso   1.00
O125   O     0.42495   0.24999   0.28132   0.00000  Uiso   1.00
O126   O     0.57505   0.25000   0.21868   0.00000  Uiso   1.00
O127   O     0.42495   0.25000   0.19988   0.00000  Uiso   1.00
O128   O     0.57505   0.25000   0.30011   0.00000  Uiso   1.00
S129   S     0.55013   0.02684   0.35165   0.00000  Uiso   1.00
O130   O     0.57890   0.48553   0.34225   0.00000  Uiso   1.00
O131   O     0.58840   0.06082   0.37338   0.00000  Uiso   1.00
O132   O     0.50900   0.01660   0.39197   0.00000  Uiso   1.00
H133   H     0.53066   0.00412   0.42100   0.00000  Uiso   1.00
S134   S     0.44845   0.47264   0.14796   0.00000  Uiso   1.00
O135   O     0.48492   0.48130   0.11152   0.00000  Uiso   1.00
O136   O     0.40981   0.43866   0.12694   0.00000  Uiso   1.00
O137   O     0.41647   0.01907   0.15817   0.00000  Uiso   1.00
H138   H     0.40250   0.03020   0.12527   0.00000  Uiso   1.00
S139   S     0.43214   0.32237   0.01568   0.00000  Uiso   1.00
O140   O     0.39879   0.30108   0.47349   0.00000  Uiso   1.00
O141   O     0.39852   0.34598   0.04716   0.00000  Uiso   1.00
O142   O     0.47159   0.35903   0.49408   0.00000  Uiso   1.00
H143   H     0.44851   0.37862   0.47221   0.00000  Uiso   1.00
S144   S     0.42870   0.18020   0.46613   0.00000  Uiso   1.00
O145   O     0.39658   0.20267   0.49983   0.00000  Uiso   1.00
O146   O     0.39378   0.15790   0.42572   0.00000  Uiso   1.00
O147   O     0.46631   0.14209   0.49773   0.00000  Uiso   1.00
H148   H     0.44234   0.12349   0.01365   0.00000  Uiso   1.00
C149   C     0.83446   0.16491   0.25021   0.00000  Uiso   1.00
C150   C     0.83207   0.33508   0.24977   0.00000  Uiso   1.00
C151   C     0.80330   0.28175   0.04996   0.00000  Uiso   1.00
C152   C     0.80183   0.21939   0.44199   0.00000  Uiso   1.00
C153   C     0.80449   0.28048   0.10126   0.00000  Uiso   1.00
C154   C     0.80314   0.22050   0.39102   0.00000  Uiso   1.00
C155   C     0.86198   0.22008   0.10800   0.00000  Uiso   1.00
C156   C     0.86324   0.27904   0.39965   0.00000  Uiso   1.00
C157   C     0.86202   0.21987   0.05709   0.00000  Uiso   1.00
C158   C     0.86332   0.27931   0.45057   0.00000  Uiso   1.00
C159   C     0.83244   0.25065   0.02713   0.00000  Uiso   1.00
C160   C     0.83238   0.24954   0.47262   0.00000  Uiso   1.00
C161   C     0.73452   0.24997   0.23752   0.00000  Uiso   1.00
C162   C     0.93215   0.24998   0.26248   0.00000  Uiso   1.00
C163   C     0.67927   0.24996   0.23061   0.00000  Uiso   1.00
C164   C     0.98740   0.24992   0.26940   0.00000  Uiso   1.00
C165   C     0.84890   0.04804   0.29652   0.00000  Uiso   1.00
C166   C     0.81668   0.45177   0.20307   0.00000  Uiso   1.00
C167   C     0.84316   0.09386   0.29530   0.00000  Uiso   1.00
C168   C     0.82281   0.40599   0.20445   0.00000  Uiso   1.00
C169   C     0.83837   0.11677   0.25095   0.00000  Uiso   1.00
C170   C     0.82772   0.38319   0.24889   0.00000  Uiso   1.00
C171   C     0.84326   0.09371   0.20820   0.00000  Uiso   1.00
C172   C     0.82233   0.40627   0.29150   0.00000  Uiso   1.00
C173   C     0.84586   0.04803   0.20907   0.00000  Uiso   1.00
C174   C     0.81918   0.45193   0.29044   0.00000  Uiso   1.00
C175   C     0.83975   0.02410   0.25156   0.00000  Uiso   1.00
C176   C     0.82540   0.47581   0.24795   0.00000  Uiso   1.00
Cu177  Cu    0.83333   0.24999   0.29821   0.00000  Uiso   1.00
Cu178  Cu    0.83333   0.25000   0.20178   0.00000  Uiso   1.00
H179   H     0.99260   0.24999   0.19341   0.00000  Uiso   1.00
H180   H     0.67407   0.24987   0.30660   0.00000  Uiso   1.00
H181   H     0.84660   0.11192   0.32941   0.00000  Uiso   1.00
H182   H     0.81953   0.38786   0.17039   0.00000  Uiso   1.00
H183   H     0.84503   0.11083   0.17403   0.00000  Uiso   1.00
H184   H     0.82055   0.38919   0.32570   0.00000  Uiso   1.00
H185   H     0.85245   0.03194   0.17599   0.00000  Uiso   1.00
H186   H     0.81220   0.46810   0.32337   0.00000  Uiso   1.00
H187   H     0.78222   0.30400   0.11897   0.00000  Uiso   1.00
H188   H     0.77988   0.19767   0.36735   0.00000  Uiso   1.00
H189   H     0.88501   0.19617   0.13046   0.00000  Uiso   1.00
H190   H     0.88725   0.30222   0.38332   0.00000  Uiso   1.00
H191   H     0.88506   0.19569   0.04109   0.00000  Uiso   1.00
H192   H     0.88745   0.30274   0.47273   0.00000  Uiso   1.00
N193   N     0.83333   0.25001   0.12934   0.00000  Uiso   1.00
N194   N     0.83333   0.24999   0.37065   0.00000  Uiso   1.00
O195   O     0.83334   0.18572   0.29071   0.00000  Uiso   1.00
O196   O     0.83333   0.31427   0.20928   0.00000  Uiso   1.00
O197   O     0.83334   0.18573   0.20928   0.00000  Uiso   1.00
O198   O     0.83333   0.31427   0.29072   0.00000  Uiso   1.00
O199   O     0.75828   0.24999   0.28132   0.00000  Uiso   1.00
O200   O     0.90839   0.25000   0.21868   0.00000  Uiso   1.00
O201   O     0.75828   0.25000   0.19988   0.00000  Uiso   1.00
O202   O     0.90839   0.25000   0.30011   0.00000  Uiso   1.00
S203   S     0.88346   0.02684   0.35165   0.00000  Uiso   1.00
O204   O     0.91223   0.48553   0.34225   0.00000  Uiso   1.00
O205   O     0.92174   0.06082   0.37338   0.00000  Uiso   1.00
O206   O     0.84233   0.01660   0.39197   0.00000  Uiso   1.00
H207   H     0.86399   0.00412   0.42100   0.00000  Uiso   1.00
S208   S     0.78178   0.47264   0.14796   0.00000  Uiso   1.00
O209   O     0.81825   0.48130   0.11152   0.00000  Uiso   1.00
O210   O     0.74314   0.43866   0.12694   0.00000  Uiso   1.00
O211   O     0.74981   0.01907   0.15817   0.00000  Uiso   1.00
H212   H     0.73584   0.03020   0.12527   0.00000  Uiso   1.00
S213   S     0.76548   0.32237   0.01568   0.00000  Uiso   1.00
O214   O     0.73212   0.30108   0.47349   0.00000  Uiso   1.00
O215   O     0.73185   0.34598   0.04716   0.00000  Uiso   1.00
O216   O     0.80492   0.35903   0.49408   0.00000  Uiso   1.00
H217   H     0.78185   0.37862   0.47221   0.00000  Uiso   1.00
S218   S     0.76203   0.18020   0.46613   0.00000  Uiso   1.00
O219   O     0.72991   0.20267   0.49983   0.00000  Uiso   1.00
O220   O     0.72712   0.15790   0.42572   0.00000  Uiso   1.00
O221   O     0.79964   0.14209   0.49773   0.00000  Uiso   1.00
H222   H     0.77567   0.12349   0.01365   0.00000  Uiso   1.00
C223   C     0.16780   0.66491   0.25021   0.00000  Uiso   1.00
C224   C     0.16541   0.83508   0.24977   0.00000  Uiso   1.00
C225   C     0.13664   0.78175   0.04996   0.00000  Uiso   1.00
C226   C     0.13516   0.71939   0.44199   0.00000  Uiso   1.00
C227   C     0.13782   0.78048   0.10126   0.00000  Uiso   1.00
C228   C     0.13647   0.72050   0.39102   0.00000  Uiso   1.00
C229   C     0.19531   0.72008   0.10800   0.00000  Uiso   1.00
C230   C     0.19658   0.77904   0.39965   0.00000  Uiso   1.00
C231   C     0.19535   0.71987   0.05709   0.00000  Uiso   1.00
C232   C     0.19666   0.77931   0.45057   0.00000  Uiso   1.00
C233   C     0.16578   0.75065   0.02713   0.00000  Uiso   1.00
C234   C     0.16572   0.74954   0.47262   0.00000  Uiso   1.00
C235   C     0.06785   0.74997   0.23752   0.00000  Uiso   1.00
C236   C     0.26548   0.74998   0.26248   0.00000  Uiso   1.00
C237   C     0.01261   0.74996   0.23061   0.00000  Uiso   1.00
C238   C     0.32073   0.74992   0.26940   0.00000  Uiso   1.00
C239   C     0.18223   0.54804   0.29652   0.00000  Uiso   1.00
C240   C     0.15001   0.95177   0.20307   0.00000  Uiso   1.00
C241   C     0.17649   0.59386   0.29530   0.00000  Uiso   1.00
C242   C     0.15614   0.90599   0.20445   0.00000  Uiso   1.00
C243   C     0.17170   0.61677   0.25095   0.00000  Uiso   1.00
C244   C     0.16105   0.88319   0.24889   0.00000  Uiso   1.00
C245   C     0.17659   0.59371   0.20820   0.00000  Uiso   1.00
C246   C     0.15566   0.90627   0.29150   0.00000  Uiso   1.00
C247   C     0.17919   0.54803   0.20907   0.00000  Uiso   1.00
C248   C     0.15251   0.95193   0.29044   0.00000  Uiso   1.00
C249   C     0.17308   0.52410   0.25156   0.00000  Uiso   1.00
C250   C     0.15873   0.97581   0.24795   0.00000  Uiso   1.00
Cu251  Cu    0.16667   0.74999   0.29821   0.00000  Uiso   1.00
Cu252  Cu    0.16667   0.75000   0.20178   0.00000  Uiso   1.00
H253   H     0.32593   0.74999   0.19341   0.00000  Uiso   1.00
H254   H     0.00741   0.74987   0.30660   0.00000  Uiso   1.00
H255   H     0.17993   0.61192   0.32941   0.00000  Uiso   1.00
H256   H     0.15287   0.88786   0.17039   0.00000  Uiso   1.00
H257   H     0.17836   0.61083   0.17403   0.00000  Uiso   1.00
H258   H     0.15389   0.88919   0.32570   0.00000  Uiso   1.00
H259   H     0.18578   0.53194   0.17599   0.00000  Uiso   1.00
H260   H     0.14553   0.96810   0.32337   0.00000  Uiso   1.00
H261   H     0.11555   0.80400   0.11897   0.00000  Uiso   1.00
H262   H     0.11321   0.69767   0.36735   0.00000  Uiso   1.00
H263   H     0.21834   0.69617   0.13046   0.00000  Uiso   1.00
H264   H     0.22059   0.80222   0.38332   0.00000  Uiso   1.00
H265   H     0.21839   0.69569   0.04109   0.00000  Uiso   1.00
H266   H     0.22078   0.80274   0.47273   0.00000  Uiso   1.00
N267   N     0.16667   0.75001   0.12934   0.00000  Uiso   1.00
N268   N     0.16667   0.74999   0.37065   0.00000  Uiso   1.00
O269   O     0.16667   0.68572   0.29071   0.00000  Uiso   1.00
O270   O     0.16666   0.81427   0.20928   0.00000  Uiso   1.00
O271   O     0.16667   0.68573   0.20928   0.00000  Uiso   1.00
O272   O     0.16666   0.81427   0.29072   0.00000  Uiso   1.00
O273   O     0.09161   0.74999   0.28132   0.00000  Uiso   1.00
O274   O     0.24172   0.75000   0.21868   0.00000  Uiso   1.00
O275   O     0.09161   0.75000   0.19988   0.00000  Uiso   1.00
O276   O     0.24172   0.75000   0.30011   0.00000  Uiso   1.00
S277   S     0.21679   0.52684   0.35165   0.00000  Uiso   1.00
O278   O     0.24557   0.98553   0.34225   0.00000  Uiso   1.00
O279   O     0.25507   0.56082   0.37338   0.00000  Uiso   1.00
O280   O     0.17567   0.51660   0.39197   0.00000  Uiso   1.00
H281   H     0.19733   0.50412   0.42100   0.00000  Uiso   1.00
S282   S     0.11512   0.97264   0.14796   0.00000  Uiso   1.00
O283   O     0.15158   0.98130   0.11152   0.00000  Uiso   1.00
O284   O     0.07647   0.93866   0.12694   0.00000  Uiso   1.00
O285   O     0.08314   0.51907   0.15817   0.00000  Uiso   1.00
H286   H     0.06917   0.53020   0.12527   0.00000  Uiso   1.00
S287   S     0.09881   0.82237   0.01568   0.00000  Uiso   1.00
O288   O     0.06546   0.80108   0.47349   0.00000  Uiso   1.00
O289   O     0.06519   0.84598   0.04716   0.00000  Uiso   1.00
O290   O     0.13825   0.85903   0.49408   0.00000  Uiso   1.00
H291   H     0.11518   0.87862   0.47221   0.00000  Uiso   1.00
S292   S     0.09537   0.68020   0.46613   0.00000  Uiso   1.00
O293   O     0.06325   0.70267   0.49983   0.00000  Uiso   1.00
O294   O     0.06045   0.65790   0.42572   0.00000  Uiso   1.00
O295   O     0.13297   0.64209   0.49773   0.00000  Uiso   1.00
H296   H     0.10901   0.62349   0.01365   0.00000  Uiso   1.00
C297   C     0.50113   0.66491   0.25021   0.00000  Uiso   1.00
C298   C     0.49874   0.83508   0.24977   0.00000  Uiso   1.00
C299   C     0.46997   0.78175   0.04996   0.00000  Uiso   1.00
C300   C     0.46849   0.71939   0.44199   0.00000  Uiso   1.00
C301   C     0.47115   0.78048   0.10126   0.00000  Uiso   1.00
C302   C     0.46981   0.72050   0.39102   0.00000  Uiso   1.00
C303   C     0.52865   0.72008   0.10800   0.00000  Uiso   1.00
C304   C     0.52991   0.77904   0.39965   0.00000  Uiso   1.00
C305   C     0.52868   0.71987   0.05709   0.00000  Uiso   1.00
C306   C     0.52999   0.77931   0.45057   0.00000  Uiso   1.00
C307   C     0.49911   0.75065   0.02713   0.00000  Uiso   1.00
C308   C     0.49905   0.74954   0.47262   0.00000  Uiso   1.00
C309   C     0.40119   0.74997   0.23752   0.00000  Uiso   1.00
C310   C     0.59882   0.74998   0.26248   0.00000  Uiso   1.00
C311   C     0.34594   0.74996   0.23061   0.00000  Uiso   1.00
C312   C     0.65406   0.74992   0.26940   0.00000  Uiso   1.00
C313   C     0.51556   0.54804   0.29652   0.00000  Uiso   1.00
C314   C     0.48335   0.95177   0.20307   0.00000  Uiso   1.00
C315   C     0.50982   0.59386   0.29530   0.00000  Uiso   1.00
C316   C     0.48948   0.90599   0.20445   0.00000  Uiso   1.00
C317   C     0.50504   0.61677   0.25095   0.00000  Uiso   1.00
C318   C     0.49439   0.88319   0.24889   0.00000  Uiso   1.00
C319   C     0.50992   0.59371   0.20820   0.00000  Uiso   1.00
C320   C     0.48899   0.90627   0.29150   0.00000  Uiso   1.00
C321   C     0.51252   0.54803   0.20907   0.00000  Uiso   1.00
C322   C     0.48584   0.95193   0.29044   0.00000  Uiso   1.00
C323   C     0.50642   0.52410   0.25156   0.00000  Uiso   1.00
C324   C     0.49207   0.97581   0.24795   0.00000  Uiso   1.00
Cu325  Cu    0.50000   0.74999   0.29821   0.00000  Uiso   1.00
Cu326  Cu    0.50000   0.75000   0.20178   0.00000  Uiso   1.00
H327   H     0.65927   0.74999   0.19341   0.00000  Uiso   1.00
H328   H     0.34074   0.74987   0.30660   0.00000  Uiso   1.00
H329   H     0.51327   0.61192   0.32941   0.00000  Uiso   1.00
H330   H     0.48620   0.88786   0.17039   0.00000  Uiso   1.00
H331   H     0.51169   0.61083   0.17403   0.00000  Uiso   1.00
H332   H     0.48722   0.88919   0.32570   0.00000  Uiso   1.00
H333   H     0.51912   0.53194   0.17599   0.00000  Uiso   1.00
H334   H     0.47886   0.96810   0.32337   0.00000  Uiso   1.00
H335   H     0.44889   0.80400   0.11897   0.00000  Uiso   1.00
H336   H     0.44655   0.69767   0.36735   0.00000  Uiso   1.00
H337   H     0.55167   0.69617   0.13046   0.00000  Uiso   1.00
H338   H     0.55392   0.80222   0.38332   0.00000  Uiso   1.00
H339   H     0.55172   0.69569   0.04109   0.00000  Uiso   1.00
H340   H     0.55411   0.80274   0.47273   0.00000  Uiso   1.00
N341   N     0.50000   0.75001   0.12934   0.00000  Uiso   1.00
N342   N     0.50000   0.74999   0.37065   0.00000  Uiso   1.00
O343   O     0.50000   0.68572   0.29071   0.00000  Uiso   1.00
O344   O     0.50000   0.81427   0.20928   0.00000  Uiso   1.00
O345   O     0.50000   0.68573   0.20928   0.00000  Uiso   1.00
O346   O     0.50000   0.81427   0.29072   0.00000  Uiso   1.00
O347   O     0.42495   0.74999   0.28132   0.00000  Uiso   1.00
O348   O     0.57505   0.75000   0.21868   0.00000  Uiso   1.00
O349   O     0.42495   0.75000   0.19988   0.00000  Uiso   1.00
O350   O     0.57505   0.75000   0.30011   0.00000  Uiso   1.00
S351   S     0.55013   0.52684   0.35165   0.00000  Uiso   1.00
O352   O     0.57890   0.98553   0.34225   0.00000  Uiso   1.00
O353   O     0.58840   0.56082   0.37338   0.00000  Uiso   1.00
O354   O     0.50900   0.51660   0.39197   0.00000  Uiso   1.00
H355   H     0.53066   0.50412   0.42100   0.00000  Uiso   1.00
S356   S     0.44845   0.97264   0.14796   0.00000  Uiso   1.00
O357   O     0.48492   0.98130   0.11152   0.00000  Uiso   1.00
O358   O     0.40981   0.93866   0.12694   0.00000  Uiso   1.00
O359   O     0.41647   0.51907   0.15817   0.00000  Uiso   1.00
H360   H     0.40250   0.53020   0.12527   0.00000  Uiso   1.00
S361   S     0.43214   0.82237   0.01568   0.00000  Uiso   1.00
O362   O     0.39879   0.80108   0.47349   0.00000  Uiso   1.00
O363   O     0.39852   0.84598   0.04716   0.00000  Uiso   1.00
O364   O     0.47159   0.85903   0.49408   0.00000  Uiso   1.00
H365   H     0.44851   0.87862   0.47221   0.00000  Uiso   1.00
S366   S     0.42870   0.68020   0.46613   0.00000  Uiso   1.00
O367   O     0.39658   0.70267   0.49983   0.00000  Uiso   1.00
O368   O     0.39378   0.65790   0.42572   0.00000  Uiso   1.00
O369   O     0.46631   0.64209   0.49773   0.00000  Uiso   1.00
H370   H     0.44234   0.62349   0.01365   0.00000  Uiso   1.00
C371   C     0.83446   0.66491   0.25021   0.00000  Uiso   1.00
C372   C     0.83207   0.83508   0.24977   0.00000  Uiso   1.00
C373   C     0.80330   0.78175   0.04996   0.00000  Uiso   1.00
C374   C     0.80183   0.71939   0.44199   0.00000  Uiso   1.00
C375   C     0.80449   0.78048   0.10126   0.00000  Uiso   1.00
C376   C     0.80314   0.72050   0.39102   0.00000  Uiso   1.00
C377   C     0.86198   0.72008   0.10800   0.00000  Uiso   1.00
C378   C     0.86324   0.77904   0.39965   0.00000  Uiso   1.00
C379   C     0.86202   0.71987   0.05709   0.00000  Uiso   1.00
C380   C     0.86332   0.77931   0.45057   0.00000  Uiso   1.00
C381   C     0.83244   0.75065   0.02713   0.00000  Uiso   1.00
C382   C     0.83238   0.74954   0.47262   0.00000  Uiso   1.00
C383   C     0.73452   0.74997   0.23752   0.00000  Uiso   1.00
C384   C     0.93215   0.74998   0.26248   0.00000  Uiso   1.00
C385   C     0.67927   0.74996   0.23061   0.00000  Uiso   1.00
C386   C     0.98740   0.74992   0.26940   0.00000  Uiso   1.00
C387   C     0.84890   0.54804   0.29652   0.00000  Uiso   1.00
C388   C     0.81668   0.95177   0.20307   0.00000  Uiso   1.00
C389   C     0.84316   0.59386   0.29530   0.00000  Uiso   1.00
C390   C     0.82281   0.90599   0.20445   0.00000  Uiso   1.00
C391   C     0.83837   0.61677   0.25095   0.00000  Uiso   1.00
C392   C     0.82772   0.88319   0.24889   0.00000  Uiso   1.00
C393   C     0.84326   0.59371   0.20820   0.00000  Uiso   1.00
C394   C     0.82233   0.90627   0.29150   0.00000  Uiso   1.00
C395   C     0.84586   0.54803   0.20907   0.00000  Uiso   1.00
C396   C     0.81918   0.95193   0.29044   0.00000  Uiso   1.00
C397   C     0.83975   0.52410   0.25156   0.00000  Uiso   1.00
C398   C     0.82540   0.97581   0.24795   0.00000  Uiso   1.00
Cu399  Cu    0.83333   0.74999   0.29821   0.00000  Uiso   1.00
Cu400  Cu    0.83333   0.75000   0.20178   0.00000  Uiso   1.00
H401   H     0.99260   0.74999   0.19341   0.00000  Uiso   1.00
H402   H     0.67407   0.74987   0.30660   0.00000  Uiso   1.00
H403   H     0.84660   0.61192   0.32941   0.00000  Uiso   1.00
H404   H     0.81953   0.88786   0.17039   0.00000  Uiso   1.00
H405   H     0.84503   0.61083   0.17403   0.00000  Uiso   1.00
H406   H     0.82055   0.88919   0.32570   0.00000  Uiso   1.00
H407   H     0.85245   0.53194   0.17599   0.00000  Uiso   1.00
H408   H     0.81220   0.96810   0.32337   0.00000  Uiso   1.00
H409   H     0.78222   0.80400   0.11897   0.00000  Uiso   1.00
H410   H     0.77988   0.69767   0.36735   0.00000  Uiso   1.00
H411   H     0.88501   0.69617   0.13046   0.00000  Uiso   1.00
H412   H     0.88725   0.80222   0.38332   0.00000  Uiso   1.00
H413   H     0.88506   0.69569   0.04109   0.00000  Uiso   1.00
H414   H     0.88745   0.80274   0.47273   0.00000  Uiso   1.00
N415   N     0.83333   0.75001   0.12934   0.00000  Uiso   1.00
N416   N     0.83333   0.74999   0.37065   0.00000  Uiso   1.00
O417   O     0.83334   0.68572   0.29071   0.00000  Uiso   1.00
O418   O     0.83333   0.81427   0.20928   0.00000  Uiso   1.00
O419   O     0.83334   0.68573   0.20928   0.00000  Uiso   1.00
O420   O     0.83333   0.81427   0.29072   0.00000  Uiso   1.00
O421   O     0.75828   0.74999   0.28132   0.00000  Uiso   1.00
O422   O     0.90839   0.75000   0.21868   0.00000  Uiso   1.00
O423   O     0.75828   0.75000   0.19988   0.00000  Uiso   1.00
O424   O     0.90839   0.75000   0.30011   0.00000  Uiso   1.00
S425   S     0.88346   0.52684   0.35165   0.00000  Uiso   1.00
O426   O     0.91223   0.98553   0.34225   0.00000  Uiso   1.00
O427   O     0.92174   0.56082   0.37338   0.00000  Uiso   1.00
O428   O     0.84233   0.51660   0.39197   0.00000  Uiso   1.00
H429   H     0.86399   0.50412   0.42100   0.00000  Uiso   1.00
S430   S     0.78178   0.97264   0.14796   0.00000  Uiso   1.00
O431   O     0.81825   0.98130   0.11152   0.00000  Uiso   1.00
O432   O     0.74314   0.93866   0.12694   0.00000  Uiso   1.00
O433   O     0.74981   0.51907   0.15817   0.00000  Uiso   1.00
H434   H     0.73584   0.53020   0.12527   0.00000  Uiso   1.00
S435   S     0.76548   0.82237   0.01568   0.00000  Uiso   1.00
O436   O     0.73212   0.80108   0.47349   0.00000  Uiso   1.00
O437   O     0.73185   0.84598   0.04716   0.00000  Uiso   1.00
O438   O     0.80492   0.85903   0.49408   0.00000  Uiso   1.00
H439   H     0.78185   0.87862   0.47221   0.00000  Uiso   1.00
S440   S     0.76203   0.68020   0.46613   0.00000  Uiso   1.00
O441   O     0.72991   0.70267   0.49983   0.00000  Uiso   1.00
O442   O     0.72712   0.65790   0.42572   0.00000  Uiso   1.00
O443   O     0.79964   0.64209   0.49773   0.00000  Uiso   1.00
H444   H     0.77567   0.62349   0.01365   0.00000  Uiso   1.00
C445   C     0.16780   0.16491   0.75021   0.00000  Uiso   1.00
C446   C     0.16541   0.33508   0.74977   0.00000  Uiso   1.00
C447   C     0.13664   0.28175   0.54996   0.00000  Uiso   1.00
C448   C     0.13516   0.21939   0.94199   0.00000  Uiso   1.00
C449   C     0.13782   0.28048   0.60126   0.00000  Uiso   1.00
C450   C     0.13647   0.22050   0.89102   0.00000  Uiso   1.00
C451   C     0.19531   0.22008   0.60800   0.00000  Uiso   1.00
C452   C     0.19658   0.27904   0.89965   0.00000  Uiso   1.00
C453   C     0.19535   0.21987   0.55709   0.00000  Uiso   1.00
C454   C     0.19666   0.27931   0.95057   0.00000  Uiso   1.00
C455   C     0.16578   0.25065   0.52713   0.00000  Uiso   1.00
C456   C     0.16572   0.24954   0.97262   0.00000  Uiso   1.00
C457   C     0.06785   0.24997   0.73752   0.00000  Uiso   1.00
C458   C     0.26548   0.24998   0.76248   0.00000  Uiso   1.00
C459   C     0.01261   0.24996   0.73061   0.00000  Uiso   1.00
C460   C     0.32073   0.24992   0.76940   0.00000  Uiso   1.00
C461   C     0.18223   0.04804   0.79652   0.00000  Uiso   1.00
C462   C     0.15001   0.45177   0.70307   0.00000  Uiso   1.00
C463   C     0.17649   0.09386   0.79530   0.00000  Uiso   1.00
C464   C     0.15614   0.40599   0.70445   0.00000  Uiso   1.00
C465   C     0.17170   0.11677   0.75095   0.00000  Uiso   1.00
C466   C     0.16105   0.38319   0.74889   0.00000  Uiso   1.00
C467   C     0.17659   0.09371   0.70820   0.00000  Uiso   1.00
C468   C     0.15566   0.40627   0.79150   0.00000  Uiso   1.00
C469   C     0.17919   0.04803   0.70907   0.00000  Uiso   1.00
C470   C     0.15251   0.45193   0.79044   0.00000  Uiso   1.00
C471   C     0.17308   0.02410   0.75156   0.00000  Uiso   1.00
C472   C     0.15873   0.47581   0.74795   0.00000  Uiso   1.00
Cu473  Cu    0.16667   0.24999   0.79821   0.00000  Uiso   1.00
Cu474  Cu    0.16667   0.25000   0.70178   0.00000  Uiso   1.00
H475   H     0.32593   0.24999   0.69341   0.00000  Uiso   1.00
H476   H     0.00741   0.24987   0.80660   0.00000  Uiso   1.00
H477   H     0.17993   0.11192   0.82941   0.00000  Uiso   1.00
H478   H     0.15287   0.38786   0.67039   0.00000  Uiso   1.00
H479   H     0.17836   0.11083   0.67403   0.00000  Uiso   1.00
H480   H     0.15389   0.38919   0.82570   0.00000  Uiso   1.00
H481   H     0.18578   0.03194   0.67599   0.00000  Uiso   1.00
H482   H     0.14553   0.46810   0.82337   0.00000  Uiso   1.00
H483   H     0.11555   0.30400   0.61897   0.00000  Uiso   1.00
H484   H     0.11321   0.19767   0.86735   0.00000  Uiso   1.00
H485   H     0.21834   0.19617   0.63046   0.00000  Uiso   1.00
H486   H     0.22059   0.30222   0.88332   0.00000  Uiso   1.00
H487   H     0.21839   0.19569   0.54109   0.00000  Uiso   1.00
H488   H     0.22078   0.30274   0.97273   0.00000  Uiso   1.00
N489   N     0.16667   0.25001   0.62934   0.00000  Uiso   1.00
N490   N     0.16667   0.24999   0.87065   0.00000  Uiso   1.00
O491   O     0.16667   0.18572   0.79071   0.00000  Uiso   1.00
O492   O     0.16666   0.31427   0.70928   0.00000  Uiso   1.00
O493   O     0.16667   0.18573   0.70928   0.00000  Uiso   1.00
O494   O     0.16666   0.31427   0.79072   0.00000  Uiso   1.00
O495   O     0.09161   0.24999   0.78132   0.00000  Uiso   1.00
O496   O     0.24172   0.25000   0.71868   0.00000  Uiso   1.00
O497   O     0.09161   0.25000   0.69988   0.00000  Uiso   1.00
O498   O     0.24172   0.25000   0.80011   0.00000  Uiso   1.00
S499   S     0.21679   0.02684   0.85165   0.00000  Uiso   1.00
O500   O     0.24557   0.48553   0.84225   0.00000  Uiso   1.00
O501   O     0.25507   0.06082   0.87338   0.00000  Uiso   1.00
O502   O     0.17567   0.01660   0.89197   0.00000  Uiso   1.00
H503   H     0.19733   0.00412   0.92100   0.00000  Uiso   1.00
S504   S     0.11512   0.47264   0.64796   0.00000  Uiso   1.00
O505   O     0.15158   0.48130   0.61152   0.00000  Uiso   1.00
O506   O     0.07647   0.43866   0.62694   0.00000  Uiso   1.00
O507   O     0.08314   0.01907   0.65817   0.00000  Uiso   1.00
H508   H     0.06917   0.03020   0.62527   0.00000  Uiso   1.00
S509   S     0.09881   0.32237   0.51568   0.00000  Uiso   1.00
O510   O     0.06546   0.30108   0.97349   0.00000  Uiso   1.00
O511   O     0.06519   0.34598   0.54716   0.00000  Uiso   1.00
O512   O     0.13825   0.35903   0.99408   0.00000  Uiso   1.00
H513   H     0.11518   0.37862   0.97221   0.00000  Uiso   1.00
S514   S     0.09537   0.18020   0.96613   0.00000  Uiso   1.00
O515   O     0.06325   0.20267   0.99983   0.00000  Uiso   1.00
O516   O     0.06045   0.15790   0.92572   0.00000  Uiso   1.00
O517   O     0.13297   0.14209   0.99773   0.00000  Uiso   1.00
H518   H     0.10901   0.12349   0.51365   0.00000  Uiso   1.00
C519   C     0.50113   0.16491   0.75021   0.00000  Uiso   1.00
C520   C     0.49874   0.33508   0.74977   0.00000  Uiso   1.00
C521   C     0.46997   0.28175   0.54996   0.00000  Uiso   1.00
C522   C     0.46849   0.21939   0.94199   0.00000  Uiso   1.00
C523   C     0.47115   0.28048   0.60126   0.00000  Uiso   1.00
C524   C     0.46981   0.22050   0.89102   0.00000  Uiso   1.00
C525   C     0.52865   0.22008   0.60800   0.00000  Uiso   1.00
C526   C     0.52991   0.27904   0.89965   0.00000  Uiso   1.00
C527   C     0.52868   0.21987   0.55709   0.00000  Uiso   1.00
C528   C     0.52999   0.27931   0.95057   0.00000  Uiso   1.00
C529   C     0.49911   0.25065   0.52713   0.00000  Uiso   1.00
C530   C     0.49905   0.24954   0.97262   0.00000  Uiso   1.00
C531   C     0.40119   0.24997   0.73752   0.00000  Uiso   1.00
C532   C     0.59882   0.24998   0.76248   0.00000  Uiso   1.00
C533   C     0.34594   0.24996   0.73061   0.00000  Uiso   1.00
C534   C     0.65406   0.24992   0.76940   0.00000  Uiso   1.00
C535   C     0.51556   0.04804   0.79652   0.00000  Uiso   1.00
C536   C     0.48335   0.45177   0.70307   0.00000  Uiso   1.00
C537   C     0.50982   0.09386   0.79530   0.00000  Uiso   1.00
C538   C     0.48948   0.40599   0.70445   0.00000  Uiso   1.00
C539   C     0.50504   0.11677   0.75095   0.00000  Uiso   1.00
C540   C     0.49439   0.38319   0.74889   0.00000  Uiso   1.00
C541   C     0.50992   0.09371   0.70820   0.00000  Uiso   1.00
C542   C     0.48899   0.40627   0.79150   0.00000  Uiso   1.00
C543   C     0.51252   0.04803   0.70907   0.00000  Uiso   1.00
C544   C     0.48584   0.45193   0.79044   0.00000  Uiso   1.00
C545   C     0.50642   0.02410   0.75156   0.00000  Uiso   1.00
C546   C     0.49207   0.47581   0.74795   0.00000  Uiso   1.00
Cu547  Cu    0.50000   0.24999   0.79821   0.00000  Uiso   1.00
Cu548  Cu    0.50000   0.25000   0.70178   0.00000  Uiso   1.00
H549   H     0.65927   0.24999   0.69341   0.00000  Uiso   1.00
H550   H     0.34074   0.24987   0.80660   0.00000  Uiso   1.00
H551   H     0.51327   0.11192   0.82941   0.00000  Uiso   1.00
H552   H     0.48620   0.38786   0.67039   0.00000  Uiso   1.00
H553   H     0.51169   0.11083   0.67403   0.00000  Uiso   1.00
H554   H     0.48722   0.38919   0.82570   0.00000  Uiso   1.00
H555   H     0.51912   0.03194   0.67599   0.00000  Uiso   1.00
H556   H     0.47886   0.46810   0.82337   0.00000  Uiso   1.00
H557   H     0.44889   0.30400   0.61897   0.00000  Uiso   1.00
H558   H     0.44655   0.19767   0.86735   0.00000  Uiso   1.00
H559   H     0.55167   0.19617   0.63046   0.00000  Uiso   1.00
H560   H     0.55392   0.30222   0.88332   0.00000  Uiso   1.00
H561   H     0.55172   0.19569   0.54109   0.00000  Uiso   1.00
H562   H     0.55411   0.30274   0.97273   0.00000  Uiso   1.00
N563   N     0.50000   0.25001   0.62934   0.00000  Uiso   1.00
N564   N     0.50000   0.24999   0.87065   0.00000  Uiso   1.00
O565   O     0.50000   0.18572   0.79071   0.00000  Uiso   1.00
O566   O     0.50000   0.31427   0.70928   0.00000  Uiso   1.00
O567   O     0.50000   0.18573   0.70928   0.00000  Uiso   1.00
O568   O     0.50000   0.31427   0.79072   0.00000  Uiso   1.00
O569   O     0.42495   0.24999   0.78132   0.00000  Uiso   1.00
O570   O     0.57505   0.25000   0.71868   0.00000  Uiso   1.00
O571   O     0.42495   0.25000   0.69988   0.00000  Uiso   1.00
O572   O     0.57505   0.25000   0.80011   0.00000  Uiso   1.00
S573   S     0.55013   0.02684   0.85165   0.00000  Uiso   1.00
O574   O     0.57890   0.48553   0.84225   0.00000  Uiso   1.00
O575   O     0.58840   0.06082   0.87338   0.00000  Uiso   1.00
O576   O     0.50900   0.01660   0.89197   0.00000  Uiso   1.00
H577   H     0.53066   0.00412   0.92100   0.00000  Uiso   1.00
S578   S     0.44845   0.47264   0.64796   0.00000  Uiso   1.00
O579   O     0.48492   0.48130   0.61152   0.00000  Uiso   1.00
O580   O     0.40981   0.43866   0.62694   0.00000  Uiso   1.00
O581   O     0.41647   0.01907   0.65817   0.00000  Uiso   1.00
H582   H     0.40250   0.03020   0.62527   0.00000  Uiso   1.00
S583   S     0.43214   0.32237   0.51568   0.00000  Uiso   1.00
O584   O     0.39879   0.30108   0.97349   0.00000  Uiso   1.00
O585   O     0.39852   0.34598   0.54716   0.00000  Uiso   1.00
O586   O     0.47159   0.35903   0.99408   0.00000  Uiso   1.00
H587   H     0.44851   0.37862   0.97221   0.00000  Uiso   1.00
S588   S     0.42870   0.18020   0.96613   0.00000  Uiso   1.00
O589   O     0.39658   0.20267   0.99983   0.00000  Uiso   1.00
O590   O     0.39378   0.15790   0.92572   0.00000  Uiso   1.00
O591   O     0.46631   0.14209   0.99773   0.00000  Uiso   1.00
H592   H     0.44234   0.12349   0.51365   0.00000  Uiso   1.00
C593   C     0.83446   0.16491   0.75021   0.00000  Uiso   1.00
C594   C     0.83207   0.33508   0.74977   0.00000  Uiso   1.00
C595   C     0.80330   0.28175   0.54996   0.00000  Uiso   1.00
C596   C     0.80183   0.21939   0.94199   0.00000  Uiso   1.00
C597   C     0.80449   0.28048   0.60126   0.00000  Uiso   1.00
C598   C     0.80314   0.22050   0.89102   0.00000  Uiso   1.00
C599   C     0.86198   0.22008   0.60800   0.00000  Uiso   1.00
C600   C     0.86324   0.27904   0.89965   0.00000  Uiso   1.00
C601   C     0.86202   0.21987   0.55709   0.00000  Uiso   1.00
C602   C     0.86332   0.27931   0.95057   0.00000  Uiso   1.00
C603   C     0.83244   0.25065   0.52713   0.00000  Uiso   1.00
C604   C     0.83238   0.24954   0.97262   0.00000  Uiso   1.00
C605   C     0.73452   0.24997   0.73752   0.00000  Uiso   1.00
C606   C     0.93215   0.24998   0.76248   0.00000  Uiso   1.00
C607   C     0.67927   0.24996   0.73061   0.00000  Uiso   1.00
C608   C     0.98740   0.24992   0.76940   0.00000  Uiso   1.00
C609   C     0.84890   0.04804   0.79652   0.00000  Uiso   1.00
C610   C     0.81668   0.45177   0.70307   0.00000  Uiso   1.00
C611   C     0.84316   0.09386   0.79530   0.00000  Uiso   1.00
C612   C     0.82281   0.40599   0.70445   0.00000  Uiso   1.00
C613   C     0.83837   0.11677   0.75095   0.00000  Uiso   1.00
C614   C     0.82772   0.38319   0.74889   0.00000  Uiso   1.00
C615   C     0.84326   0.09371   0.70820   0.00000  Uiso   1.00
C616   C     0.82233   0.40627   0.79150   0.00000  Uiso   1.00
C617   C     0.84586   0.04803   0.70907   0.00000  Uiso   1.00
C618   C     0.81918   0.45193   0.79044   0.00000  Uiso   1.00
C619   C     0.83975   0.02410   0.75156   0.00000  Uiso   1.00
C620   C     0.82540   0.47581   0.74795   0.00000  Uiso   1.00
Cu621  Cu    0.83333   0.24999   0.79821   0.00000  Uiso   1.00
Cu622  Cu    0.83333   0.25000   0.70178   0.00000  Uiso   1.00
H623   H     0.99260   0.24999   0.69341   0.00000  Uiso   1.00
H624   H     0.67407   0.24987   0.80660   0.00000  Uiso   1.00
H625   H     0.84660   0.11192   0.82941   0.00000  Uiso   1.00
H626   H     0.81953   0.38786   0.67039   0.00000  Uiso   1.00
H627   H     0.84503   0.11083   0.67403   0.00000  Uiso   1.00
H628   H     0.82055   0.38919   0.82570   0.00000  Uiso   1.00
H629   H     0.85245   0.03194   0.67599   0.00000  Uiso   1.00
H630   H     0.81220   0.46810   0.82337   0.00000  Uiso   1.00
H631   H     0.78222   0.30400   0.61897   0.00000  Uiso   1.00
H632   H     0.77988   0.19767   0.86735   0.00000  Uiso   1.00
H633   H     0.88501   0.19617   0.63046   0.00000  Uiso   1.00
H634   H     0.88725   0.30222   0.88332   0.00000  Uiso   1.00
H635   H     0.88506   0.19569   0.54109   0.00000  Uiso   1.00
H636   H     0.88745   0.30274   0.97273   0.00000  Uiso   1.00
N637   N     0.83333   0.25001   0.62934   0.00000  Uiso   1.00
N638   N     0.83333   0.24999   0.87065   0.00000  Uiso   1.00
O639   O     0.83334   0.18572   0.79071   0.00000  Uiso   1.00
O640   O     0.83333   0.31427   0.70928   0.00000  Uiso   1.00
O641   O     0.83334   0.18573   0.70928   0.00000  Uiso   1.00
O642   O     0.83333   0.31427   0.79072   0.00000  Uiso   1.00
O643   O     0.75828   0.24999   0.78132   0.00000  Uiso   1.00
O644   O     0.90839   0.25000   0.71868   0.00000  Uiso   1.00
O645   O     0.75828   0.25000   0.69988   0.00000  Uiso   1.00
O646   O     0.90839   0.25000   0.80011   0.00000  Uiso   1.00
S647   S     0.88346   0.02684   0.85165   0.00000  Uiso   1.00
O648   O     0.91223   0.48553   0.84225   0.00000  Uiso   1.00
O649   O     0.92174   0.06082   0.87338   0.00000  Uiso   1.00
O650   O     0.84233   0.01660   0.89197   0.00000  Uiso   1.00
H651   H     0.86399   0.00412   0.92100   0.00000  Uiso   1.00
S652   S     0.78178   0.47264   0.64796   0.00000  Uiso   1.00
O653   O     0.81825   0.48130   0.61152   0.00000  Uiso   1.00
O654   O     0.74314   0.43866   0.62694   0.00000  Uiso   1.00
O655   O     0.74981   0.01907   0.65817   0.00000  Uiso   1.00
H656   H     0.73584   0.03020   0.62527   0.00000  Uiso   1.00
S657   S     0.76548   0.32237   0.51568   0.00000  Uiso   1.00
O658   O     0.73212   0.30108   0.97349   0.00000  Uiso   1.00
O659   O     0.73185   0.34598   0.54716   0.00000  Uiso   1.00
O660   O     0.80492   0.35903   0.99408   0.00000  Uiso   1.00
H661   H     0.78185   0.37862   0.97221   0.00000  Uiso   1.00
S662   S     0.76203   0.18020   0.96613   0.00000  Uiso   1.00
O663   O     0.72991   0.20267   0.99983   0.00000  Uiso   1.00
O664   O     0.72712   0.15790   0.92572   0.00000  Uiso   1.00
O665   O     0.79964   0.14209   0.99773   0.00000  Uiso   1.00
H666   H     0.77567   0.12349   0.51365   0.00000  Uiso   1.00
C667   C     0.16780   0.66491   0.75021   0.00000  Uiso   1.00
C668   C     0.16541   0.83508   0.74977   0.00000  Uiso   1.00
C669   C     0.13664   0.78175   0.54996   0.00000  Uiso   1.00
C670   C     0.13516   0.71939   0.94199   0.00000  Uiso   1.00
C671   C     0.13782   0.78048   0.60126   0.00000  Uiso   1.00
C672   C     0.13647   0.72050   0.89102   0.00000  Uiso   1.00
C673   C     0.19531   0.72008   0.60800   0.00000  Uiso   1.00
C674   C     0.19658   0.77904   0.89965   0.00000  Uiso   1.00
C675   C     0.19535   0.71987   0.55709   0.00000  Uiso   1.00
C676   C     0.19666   0.77931   0.95057   0.00000  Uiso   1.00
C677   C     0.16578   0.75065   0.52713   0.00000  Uiso   1.00
C678   C     0.16572   0.74954   0.97262   0.00000  Uiso   1.00
C679   C     0.06785   0.74997   0.73752   0.00000  Uiso   1.00
C680   C     0.26548   0.74998   0.76248   0.00000  Uiso   1.00
C681   C     0.01261   0.74996   0.73061   0.00000  Uiso   1.00
C682   C     0.32073   0.74992   0.76940   0.00000  Uiso   1.00
C683   C     0.18223   0.54804   0.79652   0.00000  Uiso   1.00
C684   C     0.15001   0.95177   0.70307   0.00000  Uiso   1.00
C685   C     0.17649   0.59386   0.79530   0.00000  Uiso   1.00
C686   C     0.15614   0.90599   0.70445   0.00000  Uiso   1.00
C687   C     0.17170   0.61677   0.75095   0.00000  Uiso   1.00
C688   C     0.16105   0.88319   0.74889   0.00000  Uiso   1.00
C689   C     0.17659   0.59371   0.70820   0.00000  Uiso   1.00
C690   C     0.15566   0.90627   0.79150   0.00000  Uiso   1.00
C691   C     0.17919   0.54803   0.70907   0.00000  Uiso   1.00
C692   C     0.15251   0.95193   0.79044   0.00000  Uiso   1.00
C693   C     0.17308   0.52410   0.75156   0.00000  Uiso   1.00
C694   C     0.15873   0.97581   0.74795   0.00000  Uiso   1.00
Cu695  Cu    0.16667   0.74999   0.79821   0.00000  Uiso   1.00
Cu696  Cu    0.16667   0.75000   0.70178   0.00000  Uiso   1.00
H697   H     0.32593   0.74999   0.69341   0.00000  Uiso   1.00
H698   H     0.00741   0.74987   0.80660   0.00000  Uiso   1.00
H699   H     0.17993   0.61192   0.82941   0.00000  Uiso   1.00
H700   H     0.15287   0.88786   0.67039   0.00000  Uiso   1.00
H701   H     0.17836   0.61083   0.67403   0.00000  Uiso   1.00
H702   H     0.15389   0.88919   0.82570   0.00000  Uiso   1.00
H703   H     0.18578   0.53194   0.67599   0.00000  Uiso   1.00
H704   H     0.14553   0.96810   0.82337   0.00000  Uiso   1.00
H705   H     0.11555   0.80400   0.61897   0.00000  Uiso   1.00
H706   H     0.11321   0.69767   0.86735   0.00000  Uiso   1.00
H707   H     0.21834   0.69617   0.63046   0.00000  Uiso   1.00
H708   H     0.22059   0.80222   0.88332   0.00000  Uiso   1.00
H709   H     0.21839   0.69569   0.54109   0.00000  Uiso   1.00
H710   H     0.22078   0.80274   0.97273   0.00000  Uiso   1.00
N711   N     0.16667   0.75001   0.62934   0.00000  Uiso   1.00
N712   N     0.16667   0.74999   0.87065   0.00000  Uiso   1.00
O713   O     0.16667   0.68572   0.79071   0.00000  Uiso   1.00
O714   O     0.16666   0.81427   0.70928   0.00000  Uiso   1.00
O715   O     0.16667   0.68573   0.70928   0.00000  Uiso   1.00
O716   O     0.16666   0.81427   0.79072   0.00000  Uiso   1.00
O717   O     0.09161   0.74999   0.78132   0.00000  Uiso   1.00
O718   O     0.24172   0.75000   0.71868   0.00000  Uiso   1.00
O719   O     0.09161   0.75000   0.69988   0.00000  Uiso   1.00
O720   O     0.24172   0.75000   0.80011   0.00000  Uiso   1.00
S721   S     0.21679   0.52684   0.85165   0.00000  Uiso   1.00
O722   O     0.24557   0.98553   0.84225   0.00000  Uiso   1.00
O723   O     0.25507   0.56082   0.87338   0.00000  Uiso   1.00
O724   O     0.17567   0.51660   0.89197   0.00000  Uiso   1.00
H725   H     0.19733   0.50412   0.92100   0.00000  Uiso   1.00
S726   S     0.11512   0.97264   0.64796   0.00000  Uiso   1.00
O727   O     0.15158   0.98130   0.61152   0.00000  Uiso   1.00
O728   O     0.07647   0.93866   0.62694   0.00000  Uiso   1.00
O729   O     0.08314   0.51907   0.65817   0.00000  Uiso   1.00
H730   H     0.06917   0.53020   0.62527   0.00000  Uiso   1.00
S731   S     0.09881   0.82237   0.51568   0.00000  Uiso   1.00
O732   O     0.06546   0.80108   0.97349   0.00000  Uiso   1.00
O733   O     0.06519   0.84598   0.54716   0.00000  Uiso   1.00
O734   O     0.13825   0.85903   0.99408   0.00000  Uiso   1.00
H735   H     0.11518   0.87862   0.97221   0.00000  Uiso   1.00
S736   S     0.09537   0.68020   0.96613   0.00000  Uiso   1.00
O737   O     0.06325   0.70267   0.99983   0.00000  Uiso   1.00
O738   O     0.06045   0.65790   0.92572   0.00000  Uiso   1.00
O739   O     0.13297   0.64209   0.99773   0.00000  Uiso   1.00
H740   H     0.10901   0.62349   0.51365   0.00000  Uiso   1.00
C741   C     0.50113   0.66491   0.75021   0.00000  Uiso   1.00
C742   C     0.49874   0.83508   0.74977   0.00000  Uiso   1.00
C743   C     0.46997   0.78175   0.54996   0.00000  Uiso   1.00
C744   C     0.46849   0.71939   0.94199   0.00000  Uiso   1.00
C745   C     0.47115   0.78048   0.60126   0.00000  Uiso   1.00
C746   C     0.46981   0.72050   0.89102   0.00000  Uiso   1.00
C747   C     0.52865   0.72008   0.60800   0.00000  Uiso   1.00
C748   C     0.52991   0.77904   0.89965   0.00000  Uiso   1.00
C749   C     0.52868   0.71987   0.55709   0.00000  Uiso   1.00
C750   C     0.52999   0.77931   0.95057   0.00000  Uiso   1.00
C751   C     0.49911   0.75065   0.52713   0.00000  Uiso   1.00
C752   C     0.49905   0.74954   0.97262   0.00000  Uiso   1.00
C753   C     0.40119   0.74997   0.73752   0.00000  Uiso   1.00
C754   C     0.59882   0.74998   0.76248   0.00000  Uiso   1.00
C755   C     0.34594   0.74996   0.73061   0.00000  Uiso   1.00
C756   C     0.65406   0.74992   0.76940   0.00000  Uiso   1.00
C757   C     0.51556   0.54804   0.79652   0.00000  Uiso   1.00
C758   C     0.48335   0.95177   0.70307   0.00000  Uiso   1.00
C759   C     0.50982   0.59386   0.79530   0.00000  Uiso   1.00
C760   C     0.48948   0.90599   0.70445   0.00000  Uiso   1.00
C761   C     0.50504   0.61677   0.75095   0.00000  Uiso   1.00
C762   C     0.49439   0.88319   0.74889   0.00000  Uiso   1.00
C763   C     0.50992   0.59371   0.70820   0.00000  Uiso   1.00
C764   C     0.48899   0.90627   0.79150   0.00000  Uiso   1.00
C765   C     0.51252   0.54803   0.70907   0.00000  Uiso   1.00
C766   C     0.48584   0.95193   0.79044   0.00000  Uiso   1.00
C767   C     0.50642   0.52410   0.75156   0.00000  Uiso   1.00
C768   C     0.49207   0.97581   0.74795   0.00000  Uiso   1.00
Cu769  Cu    0.50000   0.74999   0.79821   0.00000  Uiso   1.00
Cu770  Cu    0.50000   0.75000   0.70178   0.00000  Uiso   1.00
H771   H     0.65927   0.74999   0.69341   0.00000  Uiso   1.00
H772   H     0.34074   0.74987   0.80660   0.00000  Uiso   1.00
H773   H     0.51327   0.61192   0.82941   0.00000  Uiso   1.00
H774   H     0.48620   0.88786   0.67039   0.00000  Uiso   1.00
H775   H     0.51169   0.61083   0.67403   0.00000  Uiso   1.00
H776   H     0.48722   0.88919   0.82570   0.00000  Uiso   1.00
H777   H     0.51912   0.53194   0.67599   0.00000  Uiso   1.00
H778   H     0.47886   0.96810   0.82337   0.00000  Uiso   1.00
H779   H     0.44889   0.80400   0.61897   0.00000  Uiso   1.00
H780   H     0.44655   0.69767   0.86735   0.00000  Uiso   1.00
H781   H     0.55167   0.69617   0.63046   0.00000  Uiso   1.00
H782   H     0.55392   0.80222   0.88332   0.00000  Uiso   1.00
H783   H     0.55172   0.69569   0.54109   0.00000  Uiso   1.00
H784   H     0.55411   0.80274   0.97273   0.00000  Uiso   1.00
N785   N     0.50000   0.75001   0.62934   0.00000  Uiso   1.00
N786   N     0.50000   0.74999   0.87065   0.00000  Uiso   1.00
O787   O     0.50000   0.68572   0.79071   0.00000  Uiso   1.00
O788   O     0.50000   0.81427   0.70928   0.00000  Uiso   1.00
O789   O     0.50000   0.68573   0.70928   0.00000  Uiso   1.00
O790   O     0.50000   0.81427   0.79072   0.00000  Uiso   1.00
O791   O     0.42495   0.74999   0.78132   0.00000  Uiso   1.00
O792   O     0.57505   0.75000   0.71868   0.00000  Uiso   1.00
O793   O     0.42495   0.75000   0.69988   0.00000  Uiso   1.00
O794   O     0.57505   0.75000   0.80011   0.00000  Uiso   1.00
S795   S     0.55013   0.52684   0.85165   0.00000  Uiso   1.00
O796   O     0.57890   0.98553   0.84225   0.00000  Uiso   1.00
O797   O     0.58840   0.56082   0.87338   0.00000  Uiso   1.00
O798   O     0.50900   0.51660   0.89197   0.00000  Uiso   1.00
H799   H     0.53066   0.50412   0.92100   0.00000  Uiso   1.00
S800   S     0.44845   0.97264   0.64796   0.00000  Uiso   1.00
O801   O     0.48492   0.98130   0.61152   0.00000  Uiso   1.00
O802   O     0.40981   0.93866   0.62694   0.00000  Uiso   1.00
O803   O     0.41647   0.51907   0.65817   0.00000  Uiso   1.00
H804   H     0.40250   0.53020   0.62527   0.00000  Uiso   1.00
S805   S     0.43214   0.82237   0.51568   0.00000  Uiso   1.00
O806   O     0.39879   0.80108   0.97349   0.00000  Uiso   1.00
O807   O     0.39852   0.84598   0.54716   0.00000  Uiso   1.00
O808   O     0.47159   0.85903   0.99408   0.00000  Uiso   1.00
H809   H     0.44851   0.87862   0.97221   0.00000  Uiso   1.00
S810   S     0.42870   0.68020   0.96613   0.00000  Uiso   1.00
O811   O     0.39658   0.70267   0.99983   0.00000  Uiso   1.00
O812   O     0.39378   0.65790   0.92572   0.00000  Uiso   1.00
O813   O     0.46631   0.64209   0.99773   0.00000  Uiso   1.00
H814   H     0.44234   0.62349   0.51365   0.00000  Uiso   1.00
C815   C     0.83446   0.66491   0.75021   0.00000  Uiso   1.00
C816   C     0.83207   0.83508   0.74977   0.00000  Uiso   1.00
C817   C     0.80330   0.78175   0.54996   0.00000  Uiso   1.00
C818   C     0.80183   0.71939   0.94199   0.00000  Uiso   1.00
C819   C     0.80449   0.78048   0.60126   0.00000  Uiso   1.00
C820   C     0.80314   0.72050   0.89102   0.00000  Uiso   1.00
C821   C     0.86198   0.72008   0.60800   0.00000  Uiso   1.00
C822   C     0.86324   0.77904   0.89965   0.00000  Uiso   1.00
C823   C     0.86202   0.71987   0.55709   0.00000  Uiso   1.00
C824   C     0.86332   0.77931   0.95057   0.00000  Uiso   1.00
C825   C     0.83244   0.75065   0.52713   0.00000  Uiso   1.00
C826   C     0.83238   0.74954   0.97262   0.00000  Uiso   1.00
C827   C     0.73452   0.74997   0.73752   0.00000  Uiso   1.00
C828   C     0.93215   0.74998   0.76248   0.00000  Uiso   1.00
C829   C     0.67927   0.74996   0.73061   0.00000  Uiso   1.00
C830   C     0.98740   0.74992   0.76940   0.00000  Uiso   1.00
C831   C     0.84890   0.54804   0.79652   0.00000  Uiso   1.00
C832   C     0.81668   0.95177   0.70307   0.00000  Uiso   1.00
C833   C     0.84316   0.59386   0.79530   0.00000  Uiso   1.00
C834   C     0.82281   0.90599   0.70445   0.00000  Uiso   1.00
C835   C     0.83837   0.61677   0.75095   0.00000  Uiso   1.00
C836   C     0.82772   0.88319   0.74889   0.00000  Uiso   1.00
C837   C     0.84326   0.59371   0.70820   0.00000  Uiso   1.00
C838   C     0.82233   0.90627   0.79150   0.00000  Uiso   1.00
C839   C     0.84586   0.54803   0.70907   0.00000  Uiso   1.00
C840   C     0.81918   0.95193   0.79044   0.00000  Uiso   1.00
C841   C     0.83975   0.52410   0.75156   0.00000  Uiso   1.00
C842   C     0.82540   0.97581   0.74795   0.00000  Uiso   1.00
Cu843  Cu    0.83333   0.74999   0.79821   0.00000  Uiso   1.00
Cu844  Cu    0.83333   0.75000   0.70178   0.00000  Uiso   1.00
H845   H     0.99260   0.74999   0.69341   0.00000  Uiso   1.00
H846   H     0.67407   0.74987   0.80660   0.00000  Uiso   1.00
H847   H     0.84660   0.61192   0.82941   0.00000  Uiso   1.00
H848   H     0.81953   0.88786   0.67039   0.00000  Uiso   1.00
H849   H     0.84503   0.61083   0.67403   0.00000  Uiso   1.00
H850   H     0.82055   0.88919   0.82570   0.00000  Uiso   1.00
H851   H     0.85245   0.53194   0.67599   0.00000  Uiso   1.00
H852   H     0.81220   0.96810   0.82337   0.00000  Uiso   1.00
H853   H     0.78222   0.80400   0.61897   0.00000  Uiso   1.00
H854   H     0.77988   0.69767   0.86735   0.00000  Uiso   1.00
H855   H     0.88501   0.69617   0.63046   0.00000  Uiso   1.00
H856   H     0.88725   0.80222   0.88332   0.00000  Uiso   1.00
H857   H     0.88506   0.69569   0.54109   0.00000  Uiso   1.00
H858   H     0.88745   0.80274   0.97273   0.00000  Uiso   1.00
N859   N     0.83333   0.75001   0.62934   0.00000  Uiso   1.00
N860   N     0.83333   0.74999   0.87065   0.00000  Uiso   1.00
O861   O     0.83334   0.68572   0.79071   0.00000  Uiso   1.00
O862   O     0.83333   0.81427   0.70928   0.00000  Uiso   1.00
O863   O     0.83334   0.68573   0.70928   0.00000  Uiso   1.00
O864   O     0.83333   0.81427   0.79072   0.00000  Uiso   1.00
O865   O     0.75828   0.74999   0.78132   0.00000  Uiso   1.00
O866   O     0.90839   0.75000   0.71868   0.00000  Uiso   1.00
O867   O     0.75828   0.75000   0.69988   0.00000  Uiso   1.00
O868   O     0.90839   0.75000   0.80011   0.00000  Uiso   1.00
S869   S     0.88346   0.52684   0.85165   0.00000  Uiso   1.00
O870   O     0.91223   0.98553   0.84225   0.00000  Uiso   1.00
O871   O     0.92174   0.56082   0.87338   0.00000  Uiso   1.00
O872   O     0.84233   0.51660   0.89197   0.00000  Uiso   1.00
H873   H     0.86399   0.50412   0.92100   0.00000  Uiso   1.00
S874   S     0.78178   0.97264   0.64796   0.00000  Uiso   1.00
O875   O     0.81825   0.98130   0.61152   0.00000  Uiso   1.00
O876   O     0.74314   0.93866   0.62694   0.00000  Uiso   1.00
O877   O     0.74981   0.51907   0.65817   0.00000  Uiso   1.00
H878   H     0.73584   0.53020   0.62527   0.00000  Uiso   1.00
S879   S     0.76548   0.82237   0.51568   0.00000  Uiso   1.00
O880   O     0.73212   0.80108   0.97349   0.00000  Uiso   1.00
O881   O     0.73185   0.84598   0.54716   0.00000  Uiso   1.00
O882   O     0.80492   0.85903   0.99408   0.00000  Uiso   1.00
H883   H     0.78185   0.87862   0.97221   0.00000  Uiso   1.00
S884   S     0.76203   0.68020   0.96613   0.00000  Uiso   1.00
O885   O     0.72991   0.70267   0.99983   0.00000  Uiso   1.00
O886   O     0.72712   0.65790   0.92572   0.00000  Uiso   1.00
O887   O     0.79964   0.64209   0.99773   0.00000  Uiso   1.00
H888   H     0.77567   0.62349   0.51365   0.00000  Uiso   1.00
loop_
_geom_bond_atom_site_label_1
_geom_bond_atom_site_label_2
_geom_bond_distance
_geom_bond_site_symmetry_2
_ccdc_geom_bond_type
C1     C21     1.463   .     S
C1     O49     1.291   .     A
C1     O47     1.290   .     A
C2     C22     1.463   .     S
C2     O50     1.291   .     A
C2     O48     1.290   .     A
C3     S65     1.770   .     S
C3     C5      1.414   .     A
C3     C11     1.417   .     A
C4     C12     1.417   .     A
C4     S70     1.770   .     S
C4     C6      1.414   .     A
C5     H39     1.081   .     S
C5     N45     1.365   .     A
C6     H40     1.081   .     S
C6     N46     1.365   .     A
C7     N45     1.364   .     A
C7     C9      1.407   .     A
C7     H41     1.082   .     S
C8     H42     1.082   .     S
C8     N46     1.364   .     A
C8     C10     1.407   .     A
C9     C11     1.406   .     A
C9     H43     1.083   .     S
C10    C12     1.406   .     A
C10    H44     1.083   .     S
C11    C456    1.507   1_554 S
C12    C455    1.507   .     S
C13    C15     1.433   .     S
C13    O53     1.284   .     A
C13    O51     1.282   .     A
C14    O52     1.282   .     A
C14    C16     1.433   .     S
C14    O54     1.284   .     A
C15    C164    1.335   1_455 S
C15    H179    1.087   1_455 S
C16    C89     1.335   .     S
C16    H106    1.087   .     S
C17    S55     1.780   .     S
C17    C19     1.397   .     A
C17    C27     1.431   .     A
C18    C28     1.430   .     A
C18    C20     1.397   .     A
C18    S60     1.779   .     S
C19    C21     1.398   .     A
C19    H33     1.084   .     S
C20    H34     1.084   .     S
C20    C22     1.398   .     A
C21    C23     1.395   .     A
C22    C24     1.395   .     A
C23    H35     1.083   .     S
C23    C25     1.387   .     A
C24    H36     1.083   .     S
C24    C26     1.387   .     A
C25    C27     1.407   .     A
C25    H37     1.072   .     S
C26    C28     1.407   .     A
C26    H38     1.072   .     S
C27    C250    1.511   1_545 S
C28    C249    1.511   .     S
Cu29   Cu30    2.665   .     S
Cu29   N46     2.002   .     S
Cu29   O47     1.960   .     S
Cu29   O50     1.959   .     S
Cu29   O51     1.957   .     S
Cu29   O54     1.959   .     S
Cu30   N45     2.002   .     S
Cu30   O53     1.959   .     S
Cu30   O48     1.960   .     S
Cu30   O49     1.959   .     S
Cu30   O52     1.957   .     S
H31    C89     1.087   .     S
H32    C164    1.087   1_455 S
S55    O57     1.504   .     D
S55    O58     1.682   .     S
S55    O278    1.504   1_545 S
O56    S277    1.504   .     S
O58    H59     0.991   .     S
S60    O62     1.504   .     D
S60    O61     1.504   .     D
S60    O285    1.683   .     S
O63    H64     0.990   .     S
O63    S282    1.683   1_545 S
S65    O67     1.503   .     D
S65    O510    1.503   1_554 S
S65    O512    1.681   1_554 S
O66    S509    1.503   .     S
O68    H69     0.991   .     S
O68    S509    1.681   .     S
S70    O73     1.681   .     S
S70    O71     1.503   .     D
S70    O72     1.503   .     D
O73    H518    0.991   .     S
H74    O517    0.991   1_554 S
C75    C95     1.463   .     S
C75    O123    1.291   .     A
C75    O121    1.290   .     A
C76    C96     1.463   .     S
C76    O124    1.291   .     A
C76    O122    1.290   .     A
C77    S139    1.770   .     S
C77    C79     1.414   .     A
C77    C85     1.417   .     A
C78    C86     1.417   .     A
C78    S144    1.770   .     S
C78    C80     1.414   .     A
C79    H113    1.081   .     S
C79    N119    1.365   .     A
C80    H114    1.081   .     S
C80    N120    1.365   .     A
C81    N119    1.364   .     A
C81    C83     1.407   .     A
C81    H115    1.082   .     S
C82    H116    1.082   .     S
C82    N120    1.364   .     A
C82    C84     1.407   .     A
C83    C85     1.406   .     A
C83    H117    1.083   .     S
C84    C86     1.406   .     A
C84    H118    1.083   .     S
C85    C530    1.507   1_554 S
C86    C529    1.507   .     S
C87    C89     1.433   .     S
C87    O127    1.284   .     A
C87    O125    1.282   .     A
C88    O126    1.282   .     A
C88    C90     1.433   .     S
C88    O128    1.284   .     A
C90    C163    1.335   .     S
C90    H180    1.087   .     S
C91    S129    1.780   .     S
C91    C93     1.397   .     A
C91    C101    1.431   .     A
C92    C102    1.430   .     A
C92    C94     1.397   .     A
C92    S134    1.779   .     S
C93    C95     1.398   .     A
C93    H107    1.084   .     S
C94    H108    1.084   .     S
C94    C96     1.398   .     A
C95    C97     1.395   .     A
C96    C98     1.395   .     A
C97    H109    1.083   .     S
C97    C99     1.387   .     A
C98    H110    1.083   .     S
C98    C100    1.387   .     A
C99    C101    1.407   .     A
C99    H111    1.072   .     S
C100   C102    1.407   .     A
C100   H112    1.072   .     S
C101   C324    1.511   1_545 S
C102   C323    1.511   .     S
Cu103  Cu104   2.665   .     S
Cu103  N120    2.002   .     S
Cu103  O121    1.960   .     S
Cu103  O124    1.959   .     S
Cu103  O125    1.957   .     S
Cu103  O128    1.959   .     S
Cu104  N119    2.002   .     S
Cu104  O127    1.959   .     S
Cu104  O122    1.960   .     S
Cu104  O123    1.959   .     S
Cu104  O126    1.957   .     S
H105   C163    1.087   .     S
S129   O131    1.504   .     D
S129   O132    1.682   .     S
S129   O352    1.504   1_545 S
O130   S351    1.504   .     S
O132   H133    0.991   .     S
S134   O136    1.504   .     D
S134   O135    1.504   .     D
S134   O359    1.683   .     S
O137   H138    0.990   .     S
O137   S356    1.683   1_545 S
S139   O141    1.503   .     D
S139   O584    1.503   1_554 S
S139   O586    1.681   1_554 S
O140   S583    1.503   .     S
O142   H143    0.991   .     S
O142   S583    1.681   .     S
S144   O147    1.681   .     S
S144   O145    1.503   .     D
S144   O146    1.503   .     D
O147   H592    0.991   .     S
H148   O591    0.991   1_554 S
C149   C169    1.463   .     S
C149   O197    1.291   .     A
C149   O195    1.290   .     A
C150   C170    1.463   .     S
C150   O198    1.291   .     A
C150   O196    1.290   .     A
C151   S213    1.770   .     S
C151   C153    1.414   .     A
C151   C159    1.417   .     A
C152   C160    1.417   .     A
C152   S218    1.770   .     S
C152   C154    1.414   .     A
C153   H187    1.081   .     S
C153   N193    1.365   .     A
C154   H188    1.081   .     S
C154   N194    1.365   .     A
C155   N193    1.364   .     A
C155   C157    1.407   .     A
C155   H189    1.082   .     S
C156   H190    1.082   .     S
C156   N194    1.364   .     A
C156   C158    1.407   .     A
C157   C159    1.406   .     A
C157   H191    1.083   .     S
C158   C160    1.406   .     A
C158   H192    1.083   .     S
C159   C604    1.507   1_554 S
C160   C603    1.507   .     S
C161   C163    1.433   .     S
C161   O201    1.284   .     A
C161   O199    1.282   .     A
C162   O200    1.282   .     A
C162   C164    1.433   .     S
C162   O202    1.284   .     A
C164   C15     1.335   1_655 S
C164   H32     1.087   1_655 S
C165   S203    1.780   .     S
C165   C167    1.397   .     A
C165   C175    1.431   .     A
C166   C176    1.430   .     A
C166   C168    1.397   .     A
C166   S208    1.779   .     S
C167   C169    1.398   .     A
C167   H181    1.084   .     S
C168   H182    1.084   .     S
C168   C170    1.398   .     A
C169   C171    1.395   .     A
C170   C172    1.395   .     A
C171   H183    1.083   .     S
C171   C173    1.387   .     A
C172   H184    1.083   .     S
C172   C174    1.387   .     A
C173   C175    1.407   .     A
C173   H185    1.072   .     S
C174   C176    1.407   .     A
C174   H186    1.072   .     S
C175   C398    1.511   1_545 S
C176   C397    1.511   .     S
Cu177  Cu178   2.665   .     S
Cu177  N194    2.002   .     S
Cu177  O195    1.960   .     S
Cu177  O198    1.959   .     S
Cu177  O199    1.957   .     S
Cu177  O202    1.959   .     S
Cu178  N193    2.002   .     S
Cu178  O201    1.959   .     S
Cu178  O196    1.960   .     S
Cu178  O197    1.959   .     S
Cu178  O200    1.957   .     S
H179   C15     1.087   1_655 S
S203   O205    1.504   .     D
S203   O206    1.682   .     S
S203   O426    1.504   1_545 S
O204   S425    1.504   .     S
O206   H207    0.991   .     S
S208   O210    1.504   .     D
S208   O209    1.504   .     D
S208   O433    1.683   .     S
O211   H212    0.990   .     S
O211   S430    1.683   1_545 S
S213   O215    1.503   .     D
S213   O658    1.503   1_554 S
S213   O660    1.681   1_554 S
O214   S657    1.503   .     S
O216   H217    0.991   .     S
O216   S657    1.681   .     S
S218   O221    1.681   .     S
S218   O219    1.503   .     D
S218   O220    1.503   .     D
O221   H666    0.991   .     S
H222   O665    0.991   1_554 S
C223   C243    1.463   .     S
C223   O271    1.291   .     A
C223   O269    1.290   .     A
C224   C244    1.463   .     S
C224   O272    1.291   .     A
C224   O270    1.290   .     A
C225   S287    1.770   .     S
C225   C227    1.414   .     A
C225   C233    1.417   .     A
C226   C234    1.417   .     A
C226   S292    1.770   .     S
C226   C228    1.414   .     A
C227   H261    1.081   .     S
C227   N267    1.365   .     A
C228   H262    1.081   .     S
C228   N268    1.365   .     A
C229   N267    1.364   .     A
C229   C231    1.407   .     A
C229   H263    1.082   .     S
C230   H264    1.082   .     S
C230   N268    1.364   .     A
C230   C232    1.407   .     A
C231   C233    1.406   .     A
C231   H265    1.083   .     S
C232   C234    1.406   .     A
C232   H266    1.083   .     S
C233   C678    1.507   1_554 S
C234   C677    1.507   .     S
C235   C237    1.433   .     S
C235   O275    1.284   .     A
C235   O273    1.282   .     A
C236   O274    1.282   .     A
C236   C238    1.433   .     S
C236   O276    1.284   .     A
C237   C386    1.335   1_455 S
C237   H401    1.087   1_455 S
C238   C311    1.335   .     S
C238   H328    1.087   .     S
C239   S277    1.780   .     S
C239   C241    1.397   .     A
C239   C249    1.431   .     A
C240   C250    1.430   .     A
C240   C242    1.397   .     A
C240   S282    1.779   .     S
C241   C243    1.398   .     A
C241   H255    1.084   .     S
C242   H256    1.084   .     S
C242   C244    1.398   .     A
C243   C245    1.395   .     A
C244   C246    1.395   .     A
C245   H257    1.083   .     S
C245   C247    1.387   .     A
C246   H258    1.083   .     S
C246   C248    1.387   .     A
C247   C249    1.407   .     A
C247   H259    1.072   .     S
C248   C250    1.407   .     A
C248   H260    1.072   .     S
C250   C27     1.511   1_565 S
Cu251  Cu252   2.665   .     S
Cu251  N268    2.002   .     S
Cu251  O269    1.960   .     S
Cu251  O272    1.959   .     S
Cu251  O273    1.957   .     S
Cu251  O276    1.959   .     S
Cu252  N267    2.002   .     S
Cu252  O275    1.959   .     S
Cu252  O270    1.960   .     S
Cu252  O271    1.959   .     S
Cu252  O274    1.957   .     S
H253   C311    1.087   .     S
H254   C386    1.087   1_455 S
S277   O279    1.504   .     D
S277   O280    1.682   .     S
O278   S55     1.504   1_565 S
O280   H281    0.991   .     S
S282   O284    1.504   .     D
S282   O283    1.504   .     D
S282   O63     1.683   1_565 S
O285   H286    0.990   .     S
S287   O289    1.503   .     D
S287   O732    1.503   1_554 S
S287   O734    1.681   1_554 S
O288   S731    1.503   .     S
O290   H291    0.991   .     S
O290   S731    1.681   .     S
S292   O295    1.681   .     S
S292   O293    1.503   .     D
S292   O294    1.503   .     D
O295   H740    0.991   .     S
H296   O739    0.991   1_554 S
C297   C317    1.463   .     S
C297   O345    1.291   .     A
C297   O343    1.290   .     A
C298   C318    1.463   .     S
C298   O346    1.291   .     A
C298   O344    1.290   .     A
C299   S361    1.770   .     S
C299   C301    1.414   .     A
C299   C307    1.417   .     A
C300   C308    1.417   .     A
C300   S366    1.770   .     S
C300   C302    1.414   .     A
C301   H335    1.081   .     S
C301   N341    1.365   .     A
C302   H336    1.081   .     S
C302   N342    1.365   .     A
C303   N341    1.364   .     A
C303   C305    1.407   .     A
C303   H337    1.082   .     S
C304   H338    1.082   .     S
C304   N342    1.364   .     A
C304   C306    1.407   .     A
C305   C307    1.406   .     A
C305   H339    1.083   .     S
C306   C308    1.406   .     A
C306   H340    1.083   .     S
C307   C752    1.507   1_554 S
C308   C751    1.507   .     S
C309   C311    1.433   .     S
C309   O349    1.284   .     A
C309   O347    1.282   .     A
C310   O348    1.282   .     A
C310   C312    1.433   .     S
C310   O350    1.284   .     A
C312   C385    1.335   .     S
C312   H402    1.087   .     S
C313   S351    1.780   .     S
C313   C315    1.397   .     A
C313   C323    1.431   .     A
C314   C324    1.430   .     A
C314   C316    1.397   .     A
C314   S356    1.779   .     S
C315   C317    1.398   .     A
C315   H329    1.084   .     S
C316   H330    1.084   .     S
C316   C318    1.398   .     A
C317   C319    1.395   .     A
C318   C320    1.395   .     A
C319   H331    1.083   .     S
C319   C321    1.387   .     A
C320   H332    1.083   .     S
C320   C322    1.387   .     A
C321   C323    1.407   .     A
C321   H333    1.072   .     S
C322   C324    1.407   .     A
C322   H334    1.072   .     S
C324   C101    1.511   1_565 S
Cu325  Cu326   2.665   .     S
Cu325  N342    2.002   .     S
Cu325  O343    1.960   .     S
Cu325  O346    1.959   .     S
Cu325  O347    1.957   .     S
Cu325  O350    1.959   .     S
Cu326  N341    2.002   .     S
Cu326  O349    1.959   .     S
Cu326  O344    1.960   .     S
Cu326  O345    1.959   .     S
Cu326  O348    1.957   .     S
H327   C385    1.087   .     S
S351   O353    1.504   .     D
S351   O354    1.682   .     S
O352   S129    1.504   1_565 S
O354   H355    0.991   .     S
S356   O358    1.504   .     D
S356   O357    1.504   .     D
S356   O137    1.683   1_565 S
O359   H360    0.990   .     S
S361   O363    1.503   .     D
S361   O806    1.503   1_554 S
S361   O808    1.681   1_554 S
O362   S805    1.503   .     S
O364   H365    0.991   .     S
O364   S805    1.681   .     S
S366   O369    1.681   .     S
S366   O367    1.503   .     D
S366   O368    1.503   .     D
O369   H814    0.991   .     S
H370   O813    0.991   1_554 S
C371   C391    1.463   .     S
C371   O419    1.291   .     A
C371   O417    1.290   .     A
C372   C392    1.463   .     S
C372   O420    1.291   .     A
C372   O418    1.290   .     A
C373   S435    1.770   .     S
C373   C375    1.414   .     A
C373   C381    1.417   .     A
C374   C382    1.417   .     A
C374   S440    1.770   .     S
C374   C376    1.414   .     A
C375   H409    1.081   .     S
C375   N415    1.365   .     A
C376   H410    1.081   .     S
C376   N416    1.365   .     A
C377   N415    1.364   .     A
C377   C379    1.407   .     A
C377   H411    1.082   .     S
C378   H412    1.082   .     S
C378   N416    1.364   .     A
C378   C380    1.407   .     A
C379   C381    1.406   .     A
C379   H413    1.083   .     S
C380   C382    1.406   .     A
C380   H414    1.083   .     S
C381   C826    1.507   1_554 S
C382   C825    1.507   .     S
C383   C385    1.433   .     S
C383   O423    1.284   .     A
C383   O421    1.282   .     A
C384   O422    1.282   .     A
C384   C386    1.433   .     S
C384   O424    1.284   .     A
C386   C237    1.335   1_655 S
C386   H254    1.087   1_655 S
C387   S425    1.780   .     S
C387   C389    1.397   .     A
C387   C397    1.431   .     A
C388   C398    1.430   .     A
C388   C390    1.397   .     A
C388   S430    1.779   .     S
C389   C391    1.398   .     A
C389   H403    1.084   .     S
C390   H404    1.084   .     S
C390   C392    1.398   .     A
C391   C393    1.395   .     A
C392   C394    1.395   .     A
C393   H405    1.083   .     S
C393   C395    1.387   .     A
C394   H406    1.083   .     S
C394   C396    1.387   .     A
C395   C397    1.407   .     A
C395   H407    1.072   .     S
C396   C398    1.407   .     A
C396   H408    1.072   .     S
C398   C175    1.511   1_565 S
Cu399  Cu400   2.665   .     S
Cu399  N416    2.002   .     S
Cu399  O417    1.960   .     S
Cu399  O420    1.959   .     S
Cu399  O421    1.957   .     S
Cu399  O424    1.959   .     S
Cu400  N415    2.002   .     S
Cu400  O423    1.959   .     S
Cu400  O418    1.960   .     S
Cu400  O419    1.959   .     S
Cu400  O422    1.957   .     S
H401   C237    1.087   1_655 S
S425   O427    1.504   .     D
S425   O428    1.682   .     S
O426   S203    1.504   1_565 S
O428   H429    0.991   .     S
S430   O432    1.504   .     D
S430   O431    1.504   .     D
S430   O211    1.683   1_565 S
O433   H434    0.990   .     S
S435   O437    1.503   .     D
S435   O880    1.503   1_554 S
S435   O882    1.681   1_554 S
O436   S879    1.503   .     S
O438   H439    0.991   .     S
O438   S879    1.681   .     S
S440   O443    1.681   .     S
S440   O441    1.503   .     D
S440   O442    1.503   .     D
O443   H888    0.991   .     S
H444   O887    0.991   1_554 S
C445   C465    1.463   .     S
C445   O493    1.291   .     A
C445   O491    1.290   .     A
C446   C466    1.463   .     S
C446   O494    1.291   .     A
C446   O492    1.290   .     A
C447   S509    1.770   .     S
C447   C449    1.414   .     A
C447   C455    1.417   .     A
C448   C456    1.417   .     A
C448   S514    1.770   .     S
C448   C450    1.414   .     A
C449   H483    1.081   .     S
C449   N489    1.365   .     A
C450   H484    1.081   .     S
C450   N490    1.365   .     A
C451   N489    1.364   .     A
C451   C453    1.407   .     A
C451   H485    1.082   .     S
C452   H486    1.082   .     S
C452   N490    1.364   .     A
C452   C454    1.407   .     A
C453   C455    1.406   .     A
C453   H487    1.083   .     S
C454   C456    1.406   .     A
C454   H488    1.083   .     S
C456   C11     1.507   1_556 S
C457   C459    1.433   .     S
C457   O497    1.284   .     A
C457   O495    1.282   .     A
C458   O496    1.282   .     A
C458   C460    1.433   .     S
C458   O498    1.284   .     A
C459   C608    1.335   1_455 S
C459   H623    1.087   1_455 S
C460   C533    1.335   .     S
C460   H550    1.087   .     S
C461   S499    1.780   .     S
C461   C463    1.397   .     A
C461   C471    1.431   .     A
C462   C472    1.430   .     A
C462   C464    1.397   .     A
C462   S504    1.779   .     S
C463   C465    1.398   .     A
C463   H477    1.084   .     S
C464   H478    1.084   .     S
C464   C466    1.398   .     A
C465   C467    1.395   .     A
C466   C468    1.395   .     A
C467   H479    1.083   .     S
C467   C469    1.387   .     A
C468   H480    1.083   .     S
C468   C470    1.387   .     A
C469   C471    1.407   .     A
C469   H481    1.072   .     S
C470   C472    1.407   .     A
C470   H482    1.072   .     S
C471   C694    1.511   1_545 S
C472   C693    1.511   .     S
Cu473  Cu474   2.665   .     S
Cu473  N490    2.002   .     S
Cu473  O491    1.960   .     S
Cu473  O494    1.959   .     S
Cu473  O495    1.957   .     S
Cu473  O498    1.959   .     S
Cu474  N489    2.002   .     S
Cu474  O497    1.959   .     S
Cu474  O492    1.960   .     S
Cu474  O493    1.959   .     S
Cu474  O496    1.957   .     S
H475   C533    1.087   .     S
H476   C608    1.087   1_455 S
S499   O501    1.504   .     D
S499   O502    1.682   .     S
S499   O722    1.504   1_545 S
O500   S721    1.504   .     S
O502   H503    0.991   .     S
S504   O506    1.504   .     D
S504   O505    1.504   .     D
S504   O729    1.683   .     S
O507   H508    0.990   .     S
O507   S726    1.683   1_545 S
S509   O511    1.503   .     D
O510   S65     1.503   1_556 S
O512   H513    0.991   .     S
O512   S65     1.681   1_556 S
S514   O517    1.681   .     S
S514   O515    1.503   .     D
S514   O516    1.503   .     D
O517   H74     0.991   1_556 S
C519   C539    1.463   .     S
C519   O567    1.291   .     A
C519   O565    1.290   .     A
C520   C540    1.463   .     S
C520   O568    1.291   .     A
C520   O566    1.290   .     A
C521   S583    1.770   .     S
C521   C523    1.414   .     A
C521   C529    1.417   .     A
C522   C530    1.417   .     A
C522   S588    1.770   .     S
C522   C524    1.414   .     A
C523   H557    1.081   .     S
C523   N563    1.365   .     A
C524   H558    1.081   .     S
C524   N564    1.365   .     A
C525   N563    1.364   .     A
C525   C527    1.407   .     A
C525   H559    1.082   .     S
C526   H560    1.082   .     S
C526   N564    1.364   .     A
C526   C528    1.407   .     A
C527   C529    1.406   .     A
C527   H561    1.083   .     S
C528   C530    1.406   .     A
C528   H562    1.083   .     S
C530   C85     1.507   1_556 S
C531   C533    1.433   .     S
C531   O571    1.284   .     A
C531   O569    1.282   .     A
C532   O570    1.282   .     A
C532   C534    1.433   .     S
C532   O572    1.284   .     A
C534   C607    1.335   .     S
C534   H624    1.087   .     S
C535   S573    1.780   .     S
C535   C537    1.397   .     A
C535   C545    1.431   .     A
C536   C546    1.430   .     A
C536   C538    1.397   .     A
C536   S578    1.779   .     S
C537   C539    1.398   .     A
C537   H551    1.084   .     S
C538   H552    1.084   .     S
C538   C540    1.398   .     A
C539   C541    1.395   .     A
C540   C542    1.395   .     A
C541   H553    1.083   .     S
C541   C543    1.387   .     A
C542   H554    1.083   .     S
C542   C544    1.387   .     A
C543   C545    1.407   .     A
C543   H555    1.072   .     S
C544   C546    1.407   .     A
C544   H556    1.072   .     S
C545   C768    1.511   1_545 S
C546   C767    1.511   .     S
Cu547  Cu548   2.665   .     S
Cu547  N564    2.002   .     S
Cu547  O565    1.960   .     S
Cu547  O568    1.959   .     S
Cu547  O569    1.957   .     S
Cu547  O572    1.959   .     S
Cu548  N563    2.002   .     S
Cu548  O571    1.959   .     S
Cu548  O566    1.960   .     S
Cu548  O567    1.959   .     S
Cu548  O570    1.957   .     S
H549   C607    1.087   .     S
S573   O575    1.504   .     D
S573   O576    1.682   .     S
S573   O796    1.504   1_545 S
O574   S795    1.504   .     S
O576   H577    0.991   .     S
S578   O580    1.504   .     D
S578   O579    1.504   .     D
S578   O803    1.683   .     S
O581   H582    0.990   .     S
O581   S800    1.683   1_545 S
S583   O585    1.503   .     D
O584   S139    1.503   1_556 S
O586   H587    0.991   .     S
O586   S139    1.681   1_556 S
S588   O591    1.681   .     S
S588   O589    1.503   .     D
S588   O590    1.503   .     D
O591   H148    0.991   1_556 S
C593   C613    1.463   .     S
C593   O641    1.291   .     A
C593   O639    1.290   .     A
C594   C614    1.463   .     S
C594   O642    1.291   .     A
C594   O640    1.290   .     A
C595   S657    1.770   .     S
C595   C597    1.414   .     A
C595   C603    1.417   .     A
C596   C604    1.417   .     A
C596   S662    1.770   .     S
C596   C598    1.414   .     A
C597   H631    1.081   .     S
C597   N637    1.365   .     A
C598   H632    1.081   .     S
C598   N638    1.365   .     A
C599   N637    1.364   .     A
C599   C601    1.407   .     A
C599   H633    1.082   .     S
C600   H634    1.082   .     S
C600   N638    1.364   .     A
C600   C602    1.407   .     A
C601   C603    1.406   .     A
C601   H635    1.083   .     S
C602   C604    1.406   .     A
C602   H636    1.083   .     S
C604   C159    1.507   1_556 S
C605   C607    1.433   .     S
C605   O645    1.284   .     A
C605   O643    1.282   .     A
C606   O644    1.282   .     A
C606   C608    1.433   .     S
C606   O646    1.284   .     A
C608   C459    1.335   1_655 S
C608   H476    1.087   1_655 S
C609   S647    1.780   .     S
C609   C611    1.397   .     A
C609   C619    1.431   .     A
C610   C620    1.430   .     A
C610   C612    1.397   .     A
C610   S652    1.779   .     S
C611   C613    1.398   .     A
C611   H625    1.084   .     S
C612   H626    1.084   .     S
C612   C614    1.398   .     A
C613   C615    1.395   .     A
C614   C616    1.395   .     A
C615   H627    1.083   .     S
C615   C617    1.387   .     A
C616   H628    1.083   .     S
C616   C618    1.387   .     A
C617   C619    1.407   .     A
C617   H629    1.072   .     S
C618   C620    1.407   .     A
C618   H630    1.072   .     S
C619   C842    1.511   1_545 S
C620   C841    1.511   .     S
Cu621  Cu622   2.665   .     S
Cu621  N638    2.002   .     S
Cu621  O639    1.960   .     S
Cu621  O642    1.959   .     S
Cu621  O643    1.957   .     S
Cu621  O646    1.959   .     S
Cu622  N637    2.002   .     S
Cu622  O645    1.959   .     S
Cu622  O640    1.960   .     S
Cu622  O641    1.959   .     S
Cu622  O644    1.957   .     S
H623   C459    1.087   1_655 S
S647   O649    1.504   .     D
S647   O650    1.682   .     S
S647   O870    1.504   1_545 S
O648   S869    1.504   .     S
O650   H651    0.991   .     S
S652   O654    1.504   .     D
S652   O653    1.504   .     D
S652   O877    1.683   .     S
O655   H656    0.990   .     S
O655   S874    1.683   1_545 S
S657   O659    1.503   .     D
O658   S213    1.503   1_556 S
O660   H661    0.991   .     S
O660   S213    1.681   1_556 S
S662   O665    1.681   .     S
S662   O663    1.503   .     D
S662   O664    1.503   .     D
O665   H222    0.991   1_556 S
C667   C687    1.463   .     S
C667   O715    1.291   .     A
C667   O713    1.290   .     A
C668   C688    1.463   .     S
C668   O716    1.291   .     A
C668   O714    1.290   .     A
C669   S731    1.770   .     S
C669   C671    1.414   .     A
C669   C677    1.417   .     A
C670   C678    1.417   .     A
C670   S736    1.770   .     S
C670   C672    1.414   .     A
C671   H705    1.081   .     S
C671   N711    1.365   .     A
C672   H706    1.081   .     S
C672   N712    1.365   .     A
C673   N711    1.364   .     A
C673   C675    1.407   .     A
C673   H707    1.082   .     S
C674   H708    1.082   .     S
C674   N712    1.364   .     A
C674   C676    1.407   .     A
C675   C677    1.406   .     A
C675   H709    1.083   .     S
C676   C678    1.406   .     A
C676   H710    1.083   .     S
C678   C233    1.507   1_556 S
C679   C681    1.433   .     S
C679   O719    1.284   .     A
C679   O717    1.282   .     A
C680   O718    1.282   .     A
C680   C682    1.433   .     S
C680   O720    1.284   .     A
C681   C830    1.335   1_455 S
C681   H845    1.087   1_455 S
C682   C755    1.335   .     S
C682   H772    1.087   .     S
C683   S721    1.780   .     S
C683   C685    1.397   .     A
C683   C693    1.431   .     A
C684   C694    1.430   .     A
C684   C686    1.397   .     A
C684   S726    1.779   .     S
C685   C687    1.398   .     A
C685   H699    1.084   .     S
C686   H700    1.084   .     S
C686   C688    1.398   .     A
C687   C689    1.395   .     A
C688   C690    1.395   .     A
C689   H701    1.083   .     S
C689   C691    1.387   .     A
C690   H702    1.083   .     S
C690   C692    1.387   .     A
C691   C693    1.407   .     A
C691   H703    1.072   .     S
C692   C694    1.407   .     A
C692   H704    1.072   .     S
C694   C471    1.511   1_565 S
Cu695  Cu696   2.665   .     S
Cu695  N712    2.002   .     S
Cu695  O713    1.960   .     S
Cu695  O716    1.959   .     S
Cu695  O717    1.957   .     S
Cu695  O720    1.959   .     S
Cu696  N711    2.002   .     S
Cu696  O719    1.959   .     S
Cu696  O714    1.960   .     S
Cu696  O715    1.959   .     S
Cu696  O718    1.957   .     S
H697   C755    1.087   .     S
H698   C830    1.087   1_455 S
S721   O723    1.504   .     D
S721   O724    1.682   .     S
O722   S499    1.504   1_565 S
O724   H725    0.991   .     S
S726   O728    1.504   .     D
S726   O727    1.504   .     D
S726   O507    1.683   1_565 S
O729   H730    0.990   .     S
S731   O733    1.503   .     D
O732   S287    1.503   1_556 S
O734   H735    0.991   .     S
O734   S287    1.681   1_556 S
S736   O739    1.681   .     S
S736   O737    1.503   .     D
S736   O738    1.503   .     D
O739   H296    0.991   1_556 S
C741   C761    1.463   .     S
C741   O789    1.291   .     A
C741   O787    1.290   .     A
C742   C762    1.463   .     S
C742   O790    1.291   .     A
C742   O788    1.290   .     A
C743   S805    1.770   .     S
C743   C745    1.414   .     A
C743   C751    1.417   .     A
C744   C752    1.417   .     A
C744   S810    1.770   .     S
C744   C746    1.414   .     A
C745   H779    1.081   .     S
C745   N785    1.365   .     A
C746   H780    1.081   .     S
C746   N786    1.365   .     A
C747   N785    1.364   .     A
C747   C749    1.407   .     A
C747   H781    1.082   .     S
C748   H782    1.082   .     S
C748   N786    1.364   .     A
C748   C750    1.407   .     A
C749   C751    1.406   .     A
C749   H783    1.083   .     S
C750   C752    1.406   .     A
C750   H784    1.083   .     S
C752   C307    1.507   1_556 S
C753   C755    1.433   .     S
C753   O793    1.284   .     A
C753   O791    1.282   .     A
C754   O792    1.282   .     A
C754   C756    1.433   .     S
C754   O794    1.284   .     A
C756   C829    1.335   .     S
C756   H846    1.087   .     S
C757   S795    1.780   .     S
C757   C759    1.397   .     A
C757   C767    1.431   .     A
C758   C768    1.430   .     A
C758   C760    1.397   .     A
C758   S800    1.779   .     S
C759   C761    1.398   .     A
C759   H773    1.084   .     S
C760   H774    1.084   .     S
C760   C762    1.398   .     A
C761   C763    1.395   .     A
C762   C764    1.395   .     A
C763   H775    1.083   .     S
C763   C765    1.387   .     A
C764   H776    1.083   .     S
C764   C766    1.387   .     A
C765   C767    1.407   .     A
C765   H777    1.072   .     S
C766   C768    1.407   .     A
C766   H778    1.072   .     S
C768   C545    1.511   1_565 S
Cu769  Cu770   2.665   .     S
Cu769  N786    2.002   .     S
Cu769  O787    1.960   .     S
Cu769  O790    1.959   .     S
Cu769  O791    1.957   .     S
Cu769  O794    1.959   .     S
Cu770  N785    2.002   .     S
Cu770  O793    1.959   .     S
Cu770  O788    1.960   .     S
Cu770  O789    1.959   .     S
Cu770  O792    1.957   .     S
H771   C829    1.087   .     S
S795   O797    1.504   .     D
S795   O798    1.682   .     S
O796   S573    1.504   1_565 S
O798   H799    0.991   .     S
S800   O802    1.504   .     D
S800   O801    1.504   .     D
S800   O581    1.683   1_565 S
O803   H804    0.990   .     S
S805   O807    1.503   .     D
O806   S361    1.503   1_556 S
O808   H809    0.991   .     S
O808   S361    1.681   1_556 S
S810   O813    1.681   .     S
S810   O811    1.503   .     D
S810   O812    1.503   .     D
O813   H370    0.991   1_556 S
C815   C835    1.463   .     S
C815   O863    1.291   .     A
C815   O861    1.290   .     A
C816   C836    1.463   .     S
C816   O864    1.291   .     A
C816   O862    1.290   .     A
C817   S879    1.770   .     S
C817   C819    1.414   .     A
C817   C825    1.417   .     A
C818   C826    1.417   .     A
C818   S884    1.770   .     S
C818   C820    1.414   .     A
C819   H853    1.081   .     S
C819   N859    1.365   .     A
C820   H854    1.081   .     S
C820   N860    1.365   .     A
C821   N859    1.364   .     A
C821   C823    1.407   .     A
C821   H855    1.082   .     S
C822   H856    1.082   .     S
C822   N860    1.364   .     A
C822   C824    1.407   .     A
C823   C825    1.406   .     A
C823   H857    1.083   .     S
C824   C826    1.406   .     A
C824   H858    1.083   .     S
C826   C381    1.507   1_556 S
C827   C829    1.433   .     S
C827   O867    1.284   .     A
C827   O865    1.282   .     A
C828   O866    1.282   .     A
C828   C830    1.433   .     S
C828   O868    1.284   .     A
C830   C681    1.335   1_655 S
C830   H698    1.087   1_655 S
C831   S869    1.780   .     S
C831   C833    1.397   .     A
C831   C841    1.431   .     A
C832   C842    1.430   .     A
C832   C834    1.397   .     A
C832   S874    1.779   .     S
C833   C835    1.398   .     A
C833   H847    1.084   .     S
C834   H848    1.084   .     S
C834   C836    1.398   .     A
C835   C837    1.395   .     A
C836   C838    1.395   .     A
C837   H849    1.083   .     S
C837   C839    1.387   .     A
C838   H850    1.083   .     S
C838   C840    1.387   .     A
C839   C841    1.407   .     A
C839   H851    1.072   .     S
C840   C842    1.407   .     A
C840   H852    1.072   .     S
C842   C619    1.511   1_565 S
Cu843  Cu844   2.665   .     S
Cu843  N860    2.002   .     S
Cu843  O861    1.960   .     S
Cu843  O864    1.959   .     S
Cu843  O865    1.957   .     S
Cu843  O868    1.959   .     S
Cu844  N859    2.002   .     S
Cu844  O867    1.959   .     S
Cu844  O862    1.960   .     S
Cu844  O863    1.959   .     S
Cu844  O866    1.957   .     S
H845   C681    1.087   1_655 S
S869   O871    1.504   .     D
S869   O872    1.682   .     S
O870   S647    1.504   1_565 S
O872   H873    0.991   .     S
S874   O876    1.504   .     D
S874   O875    1.504   .     D
S874   O655    1.683   1_565 S
O877   H878    0.990   .     S
S879   O881    1.503   .     D
O880   S435    1.503   1_556 S
O882   H883    0.991   .     S
O882   S435    1.681   1_556 S
S884   O887    1.681   .     S
S884   O885    1.503   .     D
S884   O886    1.503   .     D
O887   H444    0.991   1_556 S
