data_str_m2_o10_o17_pcu_sym.64
_audit_creation_date              2020-01-03
_audit_creation_method            'Materials Studio'
_symmetry_space_group_name_H-M    'P1'
_symmetry_Int_Tables_number       1
_symmetry_cell_setting            triclinic
loop_
_symmetry_equiv_pos_as_xyz
  x,y,z
_cell_length_a                    30.0320
_cell_length_b                    26.2754
_cell_length_c                    22.5581
_cell_angle_alpha                 103.1290
_cell_angle_beta                  94.7113
_cell_angle_gamma                 93.9958
loop_
_atom_site_label
_atom_site_type_symbol
_atom_site_fract_x
_atom_site_fract_y
_atom_site_fract_z
_atom_site_U_iso_or_equiv
_atom_site_adp_type
_atom_site_occupancy
C1     C     0.24529   0.06649   0.15133   0.00000  Uiso   1.00
C2     C     0.09034   0.11820   0.15764   0.00000  Uiso   1.00
C3     C     0.38336   0.16569   0.16437   0.00000  Uiso   1.00
C4     C     0.11655   0.16620   0.16747   0.00000  Uiso   1.00
C5     C     0.40250   0.11768   0.15195   0.00000  Uiso   1.00
C6     C     0.09692   0.21376   0.17450   0.00000  Uiso   1.00
C7     C     0.44930   0.11744   0.15303   0.00000  Uiso   1.00
C8     C     0.05034   0.21394   0.17552   0.00000  Uiso   1.00
C9     C     0.47639   0.16566   0.16486   0.00000  Uiso   1.00
C10    C     0.02345   0.16576   0.16571   0.00000  Uiso   1.00
C11    C     0.45653   0.21380   0.17523   0.00000  Uiso   1.00
C12    C     0.25130   0.26658   0.18238   0.00000  Uiso   1.00
C13    C     0.04345   0.11768   0.15595   0.00000  Uiso   1.00
C14    C     0.46971   0.07016   0.14262   0.00000  Uiso   1.00
C15    C     0.03000   0.26120   0.18579   0.00000  Uiso   1.00
C16    C     0.20733   0.32097   0.04191   0.00000  Uiso   1.00
C17    C     0.18049   0.27567   0.32968   0.00000  Uiso   1.00
C18    C     0.31328   0.01894   0.26515   0.00000  Uiso   1.00
C19    C     0.32972   0.06537   0.31790   0.00000  Uiso   1.00
C20    C     0.01604   0.07030   0.14435   0.00000  Uiso   1.00
C21    C     0.48387   0.26115   0.18592   0.00000  Uiso   1.00
C22    C     0.23758   0.00993   0.14491   0.00000  Uiso   1.00
C23    C     0.25378   0.32282   0.19128   0.00000  Uiso   1.00
C24    C     0.16471   0.16643   0.16702   0.00000  Uiso   1.00
C25    C     0.33525   0.16606   0.16599   0.00000  Uiso   1.00
C26    C     0.40982   0.21351   0.17484   0.00000  Uiso   1.00
Cl27   Cl    0.38356   0.27262   0.18557   0.00000  Uiso   1.00
Cl28   Cl    0.11701   0.05914   0.14578   0.00000  Uiso   1.00
Cl29   Cl    0.36716   0.05832   0.13404   0.00000  Uiso   1.00
Cl30   Cl    0.13095   0.27241   0.17834   0.00000  Uiso   1.00
Cl31   Cl    0.19601   0.10729   0.30242   0.00000  Uiso   1.00
Cl32   Cl    0.30346   0.22679   0.03096   0.00000  Uiso   1.00
Cu33   Cu    0.25500   0.17246   0.22813   0.00000  Uiso   1.00
Cu34   Cu    0.24499   0.16087   0.10521   0.00000  Uiso   1.00
H35    H     0.45022   0.03253   0.13325   0.00000  Uiso   1.00
H36    H     0.33303   0.02199   0.22650   0.00000  Uiso   1.00
H37    H     0.31947   0.31561   0.27995   0.00000  Uiso   1.00
H38    H     0.36572   0.06348   0.33221   0.00000  Uiso   1.00
H39    H     0.32588   0.10265   0.30352   0.00000  Uiso   1.00
H40    H     0.30996   0.06467   0.02386   0.00000  Uiso   1.00
H41    H     0.04944   0.29881   0.19452   0.00000  Uiso   1.00
H42    H     0.02995   0.03277   0.13604   0.00000  Uiso   1.00
H43    H     0.47008   0.29875   0.19461   0.00000  Uiso   1.00
H44    H     0.24250   0.32347   0.02969   0.00000  Uiso   1.00
H45    H     0.19084   0.02347   0.03830   0.00000  Uiso   1.00
H46    H     0.14430   0.27581   0.00329   0.00000  Uiso   1.00
H47    H     0.18502   0.27982   0.28286   0.00000  Uiso   1.00
H48    H     0.19212   0.23784   0.00205   0.00000  Uiso   1.00
N49    N     0.23744   0.15214   0.01284   0.00000  Uiso   1.00
N50    N     0.26255   0.18119   0.32049   0.00000  Uiso   1.00
O51    O     0.25325   0.09538   0.20659   0.00000  Uiso   1.00
O52    O     0.26708   0.02064   0.24959   0.00000  Uiso   1.00
O53    O     0.24674   0.23796   0.12674   0.00000  Uiso   1.00
O54    O     0.24480   0.08559   0.10279   0.00000  Uiso   1.00
O55    O     0.25520   0.24774   0.23055   0.00000  Uiso   1.00
O56    O     0.18935   0.17155   0.21857   0.00000  Uiso   1.00
O57    O     0.31064   0.16179   0.11476   0.00000  Uiso   1.00
O58    O     0.18090   0.16176   0.11477   0.00000  Uiso   1.00
O59    O     0.31910   0.17157   0.21857   0.00000  Uiso   1.00
O60    O     0.20546   0.31197   0.10080   0.00000  Uiso   1.00
C61    C     0.74529   0.06649   0.15133   0.00000  Uiso   1.00
C62    C     0.59034   0.11820   0.15764   0.00000  Uiso   1.00
C63    C     0.88336   0.16569   0.16437   0.00000  Uiso   1.00
C64    C     0.61655   0.16620   0.16747   0.00000  Uiso   1.00
C65    C     0.90250   0.11768   0.15195   0.00000  Uiso   1.00
C66    C     0.59692   0.21376   0.17450   0.00000  Uiso   1.00
C67    C     0.94930   0.11744   0.15303   0.00000  Uiso   1.00
C68    C     0.55034   0.21394   0.17552   0.00000  Uiso   1.00
C69    C     0.97639   0.16566   0.16486   0.00000  Uiso   1.00
C70    C     0.52345   0.16576   0.16571   0.00000  Uiso   1.00
C71    C     0.95653   0.21380   0.17523   0.00000  Uiso   1.00
C72    C     0.75130   0.26658   0.18238   0.00000  Uiso   1.00
C73    C     0.54345   0.11768   0.15595   0.00000  Uiso   1.00
C74    C     0.96971   0.07016   0.14262   0.00000  Uiso   1.00
C75    C     0.53000   0.26120   0.18579   0.00000  Uiso   1.00
C76    C     0.70733   0.32097   0.04191   0.00000  Uiso   1.00
C77    C     0.68049   0.27567   0.32968   0.00000  Uiso   1.00
C78    C     0.81328   0.01894   0.26515   0.00000  Uiso   1.00
C79    C     0.82972   0.06537   0.31790   0.00000  Uiso   1.00
C80    C     0.51604   0.07030   0.14435   0.00000  Uiso   1.00
C81    C     0.98387   0.26115   0.18592   0.00000  Uiso   1.00
C82    C     0.73758   0.00993   0.14491   0.00000  Uiso   1.00
C83    C     0.75378   0.32282   0.19128   0.00000  Uiso   1.00
C84    C     0.66471   0.16643   0.16702   0.00000  Uiso   1.00
C85    C     0.83525   0.16606   0.16599   0.00000  Uiso   1.00
C86    C     0.90982   0.21351   0.17484   0.00000  Uiso   1.00
Cl87   Cl    0.88356   0.27262   0.18557   0.00000  Uiso   1.00
Cl88   Cl    0.61701   0.05914   0.14578   0.00000  Uiso   1.00
Cl89   Cl    0.86716   0.05832   0.13404   0.00000  Uiso   1.00
Cl90   Cl    0.63095   0.27241   0.17834   0.00000  Uiso   1.00
Cl91   Cl    0.69601   0.10729   0.30242   0.00000  Uiso   1.00
Cl92   Cl    0.80346   0.22679   0.03096   0.00000  Uiso   1.00
Cu93   Cu    0.75500   0.17246   0.22813   0.00000  Uiso   1.00
Cu94   Cu    0.74499   0.16087   0.10521   0.00000  Uiso   1.00
H95    H     0.95022   0.03253   0.13325   0.00000  Uiso   1.00
H96    H     0.83303   0.02199   0.22650   0.00000  Uiso   1.00
H97    H     0.81947   0.31561   0.27995   0.00000  Uiso   1.00
H98    H     0.86572   0.06348   0.33221   0.00000  Uiso   1.00
H99    H     0.82588   0.10265   0.30352   0.00000  Uiso   1.00
H100   H     0.80996   0.06467   0.02386   0.00000  Uiso   1.00
H101   H     0.54944   0.29881   0.19452   0.00000  Uiso   1.00
H102   H     0.52995   0.03277   0.13604   0.00000  Uiso   1.00
H103   H     0.97008   0.29875   0.19461   0.00000  Uiso   1.00
H104   H     0.74250   0.32347   0.02969   0.00000  Uiso   1.00
H105   H     0.69084   0.02347   0.03830   0.00000  Uiso   1.00
H106   H     0.64430   0.27581   0.00329   0.00000  Uiso   1.00
H107   H     0.68502   0.27982   0.28286   0.00000  Uiso   1.00
H108   H     0.69212   0.23784   0.00205   0.00000  Uiso   1.00
N109   N     0.73744   0.15214   0.01284   0.00000  Uiso   1.00
N110   N     0.76255   0.18119   0.32049   0.00000  Uiso   1.00
O111   O     0.75325   0.09538   0.20659   0.00000  Uiso   1.00
O112   O     0.76708   0.02064   0.24959   0.00000  Uiso   1.00
O113   O     0.74674   0.23796   0.12674   0.00000  Uiso   1.00
O114   O     0.74480   0.08559   0.10279   0.00000  Uiso   1.00
O115   O     0.75520   0.24774   0.23055   0.00000  Uiso   1.00
O116   O     0.68935   0.17155   0.21857   0.00000  Uiso   1.00
O117   O     0.81064   0.16179   0.11476   0.00000  Uiso   1.00
O118   O     0.68090   0.16176   0.11477   0.00000  Uiso   1.00
O119   O     0.81910   0.17157   0.21857   0.00000  Uiso   1.00
O120   O     0.70546   0.31197   0.10080   0.00000  Uiso   1.00
C121   C     0.24529   0.39982   0.15133   0.00000  Uiso   1.00
C122   C     0.09034   0.45153   0.15764   0.00000  Uiso   1.00
C123   C     0.38336   0.49902   0.16437   0.00000  Uiso   1.00
C124   C     0.11655   0.49954   0.16747   0.00000  Uiso   1.00
C125   C     0.40250   0.45102   0.15195   0.00000  Uiso   1.00
C126   C     0.09692   0.54709   0.17450   0.00000  Uiso   1.00
C127   C     0.44930   0.45077   0.15303   0.00000  Uiso   1.00
C128   C     0.05034   0.54727   0.17552   0.00000  Uiso   1.00
C129   C     0.47639   0.49899   0.16486   0.00000  Uiso   1.00
C130   C     0.02345   0.49909   0.16571   0.00000  Uiso   1.00
C131   C     0.45653   0.54713   0.17523   0.00000  Uiso   1.00
C132   C     0.25130   0.59992   0.18238   0.00000  Uiso   1.00
C133   C     0.04345   0.45102   0.15595   0.00000  Uiso   1.00
C134   C     0.46971   0.40350   0.14262   0.00000  Uiso   1.00
C135   C     0.03000   0.59453   0.18579   0.00000  Uiso   1.00
C136   C     0.20733   0.65430   0.04191   0.00000  Uiso   1.00
C137   C     0.18049   0.60900   0.32968   0.00000  Uiso   1.00
C138   C     0.31328   0.35228   0.26515   0.00000  Uiso   1.00
C139   C     0.32972   0.39871   0.31790   0.00000  Uiso   1.00
C140   C     0.01604   0.40363   0.14435   0.00000  Uiso   1.00
C141   C     0.48387   0.59448   0.18592   0.00000  Uiso   1.00
C142   C     0.23758   0.34326   0.14491   0.00000  Uiso   1.00
C143   C     0.25378   0.65615   0.19128   0.00000  Uiso   1.00
C144   C     0.16471   0.49976   0.16702   0.00000  Uiso   1.00
C145   C     0.33525   0.49939   0.16599   0.00000  Uiso   1.00
C146   C     0.40982   0.54684   0.17484   0.00000  Uiso   1.00
Cl147  Cl    0.38356   0.60596   0.18557   0.00000  Uiso   1.00
Cl148  Cl    0.11701   0.39247   0.14578   0.00000  Uiso   1.00
Cl149  Cl    0.36716   0.39166   0.13404   0.00000  Uiso   1.00
Cl150  Cl    0.13095   0.60574   0.17834   0.00000  Uiso   1.00
Cl151  Cl    0.19601   0.44062   0.30242   0.00000  Uiso   1.00
Cl152  Cl    0.30346   0.56013   0.03096   0.00000  Uiso   1.00
Cu153  Cu    0.25500   0.50579   0.22813   0.00000  Uiso   1.00
Cu154  Cu    0.24499   0.49421   0.10521   0.00000  Uiso   1.00
H155   H     0.45022   0.36586   0.13325   0.00000  Uiso   1.00
H156   H     0.33303   0.35533   0.22650   0.00000  Uiso   1.00
H157   H     0.31947   0.64895   0.27995   0.00000  Uiso   1.00
H158   H     0.36572   0.39682   0.33221   0.00000  Uiso   1.00
H159   H     0.32588   0.43599   0.30352   0.00000  Uiso   1.00
H160   H     0.30996   0.39801   0.02386   0.00000  Uiso   1.00
H161   H     0.04944   0.63215   0.19452   0.00000  Uiso   1.00
H162   H     0.02995   0.36610   0.13604   0.00000  Uiso   1.00
H163   H     0.47008   0.63209   0.19461   0.00000  Uiso   1.00
H164   H     0.24250   0.65680   0.02969   0.00000  Uiso   1.00
H165   H     0.19084   0.35680   0.03830   0.00000  Uiso   1.00
H166   H     0.14430   0.60914   0.00329   0.00000  Uiso   1.00
H167   H     0.18502   0.61315   0.28286   0.00000  Uiso   1.00
H168   H     0.19212   0.57118   0.00205   0.00000  Uiso   1.00
N169   N     0.23744   0.48547   0.01284   0.00000  Uiso   1.00
N170   N     0.26255   0.51453   0.32049   0.00000  Uiso   1.00
O171   O     0.25325   0.42871   0.20659   0.00000  Uiso   1.00
O172   O     0.26708   0.35397   0.24959   0.00000  Uiso   1.00
O173   O     0.24674   0.57129   0.12674   0.00000  Uiso   1.00
O174   O     0.24480   0.41892   0.10279   0.00000  Uiso   1.00
O175   O     0.25520   0.58108   0.23055   0.00000  Uiso   1.00
O176   O     0.18935   0.50488   0.21857   0.00000  Uiso   1.00
O177   O     0.31064   0.49512   0.11476   0.00000  Uiso   1.00
O178   O     0.18090   0.49510   0.11477   0.00000  Uiso   1.00
O179   O     0.31910   0.50490   0.21857   0.00000  Uiso   1.00
O180   O     0.20546   0.64531   0.10080   0.00000  Uiso   1.00
C181   C     0.74529   0.39982   0.15133   0.00000  Uiso   1.00
C182   C     0.59034   0.45153   0.15764   0.00000  Uiso   1.00
C183   C     0.88336   0.49902   0.16437   0.00000  Uiso   1.00
C184   C     0.61655   0.49954   0.16747   0.00000  Uiso   1.00
C185   C     0.90250   0.45102   0.15195   0.00000  Uiso   1.00
C186   C     0.59692   0.54709   0.17450   0.00000  Uiso   1.00
C187   C     0.94930   0.45077   0.15303   0.00000  Uiso   1.00
C188   C     0.55034   0.54727   0.17552   0.00000  Uiso   1.00
C189   C     0.97639   0.49899   0.16486   0.00000  Uiso   1.00
C190   C     0.52345   0.49909   0.16571   0.00000  Uiso   1.00
C191   C     0.95653   0.54713   0.17523   0.00000  Uiso   1.00
C192   C     0.75130   0.59992   0.18238   0.00000  Uiso   1.00
C193   C     0.54345   0.45102   0.15595   0.00000  Uiso   1.00
C194   C     0.96971   0.40350   0.14262   0.00000  Uiso   1.00
C195   C     0.53000   0.59453   0.18579   0.00000  Uiso   1.00
C196   C     0.70733   0.65430   0.04191   0.00000  Uiso   1.00
C197   C     0.68049   0.60900   0.32968   0.00000  Uiso   1.00
C198   C     0.81328   0.35228   0.26515   0.00000  Uiso   1.00
C199   C     0.82972   0.39871   0.31790   0.00000  Uiso   1.00
C200   C     0.51604   0.40363   0.14435   0.00000  Uiso   1.00
C201   C     0.98387   0.59448   0.18592   0.00000  Uiso   1.00
C202   C     0.73758   0.34326   0.14491   0.00000  Uiso   1.00
C203   C     0.75378   0.65615   0.19128   0.00000  Uiso   1.00
C204   C     0.66471   0.49976   0.16702   0.00000  Uiso   1.00
C205   C     0.83525   0.49939   0.16599   0.00000  Uiso   1.00
C206   C     0.90982   0.54684   0.17484   0.00000  Uiso   1.00
Cl207  Cl    0.88356   0.60596   0.18557   0.00000  Uiso   1.00
Cl208  Cl    0.61701   0.39247   0.14578   0.00000  Uiso   1.00
Cl209  Cl    0.86716   0.39166   0.13404   0.00000  Uiso   1.00
Cl210  Cl    0.63095   0.60574   0.17834   0.00000  Uiso   1.00
Cl211  Cl    0.69601   0.44062   0.30242   0.00000  Uiso   1.00
Cl212  Cl    0.80346   0.56013   0.03096   0.00000  Uiso   1.00
Cu213  Cu    0.75500   0.50579   0.22813   0.00000  Uiso   1.00
Cu214  Cu    0.74499   0.49421   0.10521   0.00000  Uiso   1.00
H215   H     0.95022   0.36586   0.13325   0.00000  Uiso   1.00
H216   H     0.83303   0.35533   0.22650   0.00000  Uiso   1.00
H217   H     0.81947   0.64895   0.27995   0.00000  Uiso   1.00
H218   H     0.86572   0.39682   0.33221   0.00000  Uiso   1.00
H219   H     0.82588   0.43599   0.30352   0.00000  Uiso   1.00
H220   H     0.80996   0.39801   0.02386   0.00000  Uiso   1.00
H221   H     0.54944   0.63215   0.19452   0.00000  Uiso   1.00
H222   H     0.52995   0.36610   0.13604   0.00000  Uiso   1.00
H223   H     0.97008   0.63209   0.19461   0.00000  Uiso   1.00
H224   H     0.74250   0.65680   0.02969   0.00000  Uiso   1.00
H225   H     0.69084   0.35680   0.03830   0.00000  Uiso   1.00
H226   H     0.64430   0.60914   0.00329   0.00000  Uiso   1.00
H227   H     0.68502   0.61315   0.28286   0.00000  Uiso   1.00
H228   H     0.69212   0.57118   0.00205   0.00000  Uiso   1.00
N229   N     0.73744   0.48547   0.01284   0.00000  Uiso   1.00
N230   N     0.76255   0.51453   0.32049   0.00000  Uiso   1.00
O231   O     0.75325   0.42871   0.20659   0.00000  Uiso   1.00
O232   O     0.76708   0.35397   0.24959   0.00000  Uiso   1.00
O233   O     0.74674   0.57129   0.12674   0.00000  Uiso   1.00
O234   O     0.74480   0.41892   0.10279   0.00000  Uiso   1.00
O235   O     0.75520   0.58108   0.23055   0.00000  Uiso   1.00
O236   O     0.68935   0.50488   0.21857   0.00000  Uiso   1.00
O237   O     0.81064   0.49512   0.11476   0.00000  Uiso   1.00
O238   O     0.68090   0.49510   0.11477   0.00000  Uiso   1.00
O239   O     0.81910   0.50490   0.21857   0.00000  Uiso   1.00
O240   O     0.70546   0.64531   0.10080   0.00000  Uiso   1.00
C241   C     0.24529   0.73316   0.15133   0.00000  Uiso   1.00
C242   C     0.09034   0.78487   0.15764   0.00000  Uiso   1.00
C243   C     0.38336   0.83236   0.16437   0.00000  Uiso   1.00
C244   C     0.11655   0.83287   0.16747   0.00000  Uiso   1.00
C245   C     0.40250   0.78435   0.15195   0.00000  Uiso   1.00
C246   C     0.09692   0.88043   0.17450   0.00000  Uiso   1.00
C247   C     0.44930   0.78410   0.15303   0.00000  Uiso   1.00
C248   C     0.05034   0.88060   0.17552   0.00000  Uiso   1.00
C249   C     0.47639   0.83232   0.16486   0.00000  Uiso   1.00
C250   C     0.02345   0.83242   0.16571   0.00000  Uiso   1.00
C251   C     0.45653   0.88047   0.17523   0.00000  Uiso   1.00
C252   C     0.25130   0.93325   0.18238   0.00000  Uiso   1.00
C253   C     0.04345   0.78435   0.15595   0.00000  Uiso   1.00
C254   C     0.46971   0.73683   0.14262   0.00000  Uiso   1.00
C255   C     0.03000   0.92786   0.18579   0.00000  Uiso   1.00
C256   C     0.20733   0.98764   0.04191   0.00000  Uiso   1.00
C257   C     0.18049   0.94233   0.32968   0.00000  Uiso   1.00
C258   C     0.31328   0.68561   0.26515   0.00000  Uiso   1.00
C259   C     0.32972   0.73204   0.31790   0.00000  Uiso   1.00
C260   C     0.01604   0.73697   0.14435   0.00000  Uiso   1.00
C261   C     0.48387   0.92782   0.18592   0.00000  Uiso   1.00
C262   C     0.23758   0.67659   0.14491   0.00000  Uiso   1.00
C263   C     0.25378   0.98949   0.19128   0.00000  Uiso   1.00
C264   C     0.16471   0.83309   0.16702   0.00000  Uiso   1.00
C265   C     0.33525   0.83272   0.16599   0.00000  Uiso   1.00
C266   C     0.40982   0.88017   0.17484   0.00000  Uiso   1.00
Cl267  Cl    0.38356   0.93929   0.18557   0.00000  Uiso   1.00
Cl268  Cl    0.11701   0.72581   0.14578   0.00000  Uiso   1.00
Cl269  Cl    0.36716   0.72499   0.13404   0.00000  Uiso   1.00
Cl270  Cl    0.13095   0.93907   0.17834   0.00000  Uiso   1.00
Cl271  Cl    0.19601   0.77395   0.30242   0.00000  Uiso   1.00
Cl272  Cl    0.30346   0.89346   0.03096   0.00000  Uiso   1.00
Cu273  Cu    0.25500   0.83913   0.22813   0.00000  Uiso   1.00
Cu274  Cu    0.24499   0.82754   0.10521   0.00000  Uiso   1.00
H275   H     0.45022   0.69919   0.13325   0.00000  Uiso   1.00
H276   H     0.33303   0.68866   0.22650   0.00000  Uiso   1.00
H277   H     0.31947   0.98228   0.27995   0.00000  Uiso   1.00
H278   H     0.36572   0.73015   0.33221   0.00000  Uiso   1.00
H279   H     0.32588   0.76932   0.30352   0.00000  Uiso   1.00
H280   H     0.30996   0.73134   0.02386   0.00000  Uiso   1.00
H281   H     0.04944   0.96548   0.19452   0.00000  Uiso   1.00
H282   H     0.02995   0.69944   0.13604   0.00000  Uiso   1.00
H283   H     0.47008   0.96542   0.19461   0.00000  Uiso   1.00
H284   H     0.24250   0.99013   0.02969   0.00000  Uiso   1.00
H285   H     0.19084   0.69013   0.03830   0.00000  Uiso   1.00
H286   H     0.14430   0.94248   0.00329   0.00000  Uiso   1.00
H287   H     0.18502   0.94649   0.28286   0.00000  Uiso   1.00
H288   H     0.19212   0.90451   0.00205   0.00000  Uiso   1.00
N289   N     0.23744   0.81881   0.01284   0.00000  Uiso   1.00
N290   N     0.26255   0.84786   0.32049   0.00000  Uiso   1.00
O291   O     0.25325   0.76204   0.20659   0.00000  Uiso   1.00
O292   O     0.26708   0.68731   0.24959   0.00000  Uiso   1.00
O293   O     0.24674   0.90462   0.12674   0.00000  Uiso   1.00
O294   O     0.24480   0.75226   0.10279   0.00000  Uiso   1.00
O295   O     0.25520   0.91441   0.23055   0.00000  Uiso   1.00
O296   O     0.18935   0.83821   0.21857   0.00000  Uiso   1.00
O297   O     0.31064   0.82845   0.11476   0.00000  Uiso   1.00
O298   O     0.18090   0.82843   0.11477   0.00000  Uiso   1.00
O299   O     0.31910   0.83824   0.21857   0.00000  Uiso   1.00
O300   O     0.20546   0.97864   0.10080   0.00000  Uiso   1.00
C301   C     0.74529   0.73316   0.15133   0.00000  Uiso   1.00
C302   C     0.59034   0.78487   0.15764   0.00000  Uiso   1.00
C303   C     0.88336   0.83236   0.16437   0.00000  Uiso   1.00
C304   C     0.61655   0.83287   0.16747   0.00000  Uiso   1.00
C305   C     0.90250   0.78435   0.15195   0.00000  Uiso   1.00
C306   C     0.59692   0.88043   0.17450   0.00000  Uiso   1.00
C307   C     0.94930   0.78410   0.15303   0.00000  Uiso   1.00
C308   C     0.55034   0.88060   0.17552   0.00000  Uiso   1.00
C309   C     0.97639   0.83232   0.16486   0.00000  Uiso   1.00
C310   C     0.52345   0.83242   0.16571   0.00000  Uiso   1.00
C311   C     0.95653   0.88047   0.17523   0.00000  Uiso   1.00
C312   C     0.75130   0.93325   0.18238   0.00000  Uiso   1.00
C313   C     0.54345   0.78435   0.15595   0.00000  Uiso   1.00
C314   C     0.96971   0.73683   0.14262   0.00000  Uiso   1.00
C315   C     0.53000   0.92786   0.18579   0.00000  Uiso   1.00
C316   C     0.70733   0.98764   0.04191   0.00000  Uiso   1.00
C317   C     0.68049   0.94233   0.32968   0.00000  Uiso   1.00
C318   C     0.81328   0.68561   0.26515   0.00000  Uiso   1.00
C319   C     0.82972   0.73204   0.31790   0.00000  Uiso   1.00
C320   C     0.51604   0.73697   0.14435   0.00000  Uiso   1.00
C321   C     0.98387   0.92782   0.18592   0.00000  Uiso   1.00
C322   C     0.73758   0.67659   0.14491   0.00000  Uiso   1.00
C323   C     0.75378   0.98949   0.19128   0.00000  Uiso   1.00
C324   C     0.66471   0.83309   0.16702   0.00000  Uiso   1.00
C325   C     0.83525   0.83272   0.16599   0.00000  Uiso   1.00
C326   C     0.90982   0.88017   0.17484   0.00000  Uiso   1.00
Cl327  Cl    0.88356   0.93929   0.18557   0.00000  Uiso   1.00
Cl328  Cl    0.61701   0.72581   0.14578   0.00000  Uiso   1.00
Cl329  Cl    0.86716   0.72499   0.13404   0.00000  Uiso   1.00
Cl330  Cl    0.63095   0.93907   0.17834   0.00000  Uiso   1.00
Cl331  Cl    0.69601   0.77395   0.30242   0.00000  Uiso   1.00
Cl332  Cl    0.80346   0.89346   0.03096   0.00000  Uiso   1.00
Cu333  Cu    0.75500   0.83913   0.22813   0.00000  Uiso   1.00
Cu334  Cu    0.74499   0.82754   0.10521   0.00000  Uiso   1.00
H335   H     0.95022   0.69919   0.13325   0.00000  Uiso   1.00
H336   H     0.83303   0.68866   0.22650   0.00000  Uiso   1.00
H337   H     0.81947   0.98228   0.27995   0.00000  Uiso   1.00
H338   H     0.86572   0.73015   0.33221   0.00000  Uiso   1.00
H339   H     0.82588   0.76932   0.30352   0.00000  Uiso   1.00
H340   H     0.80996   0.73134   0.02386   0.00000  Uiso   1.00
H341   H     0.54944   0.96548   0.19452   0.00000  Uiso   1.00
H342   H     0.52995   0.69944   0.13604   0.00000  Uiso   1.00
H343   H     0.97008   0.96542   0.19461   0.00000  Uiso   1.00
H344   H     0.74250   0.99013   0.02969   0.00000  Uiso   1.00
H345   H     0.69084   0.69013   0.03830   0.00000  Uiso   1.00
H346   H     0.64430   0.94248   0.00329   0.00000  Uiso   1.00
H347   H     0.68502   0.94649   0.28286   0.00000  Uiso   1.00
H348   H     0.69212   0.90451   0.00205   0.00000  Uiso   1.00
N349   N     0.73744   0.81881   0.01284   0.00000  Uiso   1.00
N350   N     0.76255   0.84786   0.32049   0.00000  Uiso   1.00
O351   O     0.75325   0.76204   0.20659   0.00000  Uiso   1.00
O352   O     0.76708   0.68731   0.24959   0.00000  Uiso   1.00
O353   O     0.74674   0.90462   0.12674   0.00000  Uiso   1.00
O354   O     0.74480   0.75226   0.10279   0.00000  Uiso   1.00
O355   O     0.75520   0.91441   0.23055   0.00000  Uiso   1.00
O356   O     0.68935   0.83821   0.21857   0.00000  Uiso   1.00
O357   O     0.81064   0.82845   0.11476   0.00000  Uiso   1.00
O358   O     0.68090   0.82843   0.11477   0.00000  Uiso   1.00
O359   O     0.81910   0.83824   0.21857   0.00000  Uiso   1.00
O360   O     0.70546   0.97864   0.10080   0.00000  Uiso   1.00
C361   C     0.24529   0.06649   0.48466   0.00000  Uiso   1.00
C362   C     0.09034   0.11820   0.49098   0.00000  Uiso   1.00
C363   C     0.38336   0.16569   0.49771   0.00000  Uiso   1.00
C364   C     0.11655   0.16620   0.50080   0.00000  Uiso   1.00
C365   C     0.40250   0.11768   0.48529   0.00000  Uiso   1.00
C366   C     0.09692   0.21376   0.50783   0.00000  Uiso   1.00
C367   C     0.44930   0.11744   0.48636   0.00000  Uiso   1.00
C368   C     0.05034   0.21394   0.50885   0.00000  Uiso   1.00
C369   C     0.47639   0.16566   0.49819   0.00000  Uiso   1.00
C370   C     0.02345   0.16576   0.49904   0.00000  Uiso   1.00
C371   C     0.45653   0.21380   0.50856   0.00000  Uiso   1.00
C372   C     0.25130   0.26658   0.51571   0.00000  Uiso   1.00
C373   C     0.04345   0.11768   0.48928   0.00000  Uiso   1.00
C374   C     0.46971   0.07016   0.47595   0.00000  Uiso   1.00
C375   C     0.03000   0.26120   0.51912   0.00000  Uiso   1.00
C376   C     0.20733   0.32097   0.37525   0.00000  Uiso   1.00
C377   C     0.18049   0.27567   0.66301   0.00000  Uiso   1.00
C378   C     0.31328   0.01894   0.59848   0.00000  Uiso   1.00
C379   C     0.32972   0.06537   0.65123   0.00000  Uiso   1.00
C380   C     0.01604   0.07030   0.47768   0.00000  Uiso   1.00
C381   C     0.48387   0.26115   0.51925   0.00000  Uiso   1.00
C382   C     0.23758   0.00993   0.47824   0.00000  Uiso   1.00
C383   C     0.25378   0.32282   0.52461   0.00000  Uiso   1.00
C384   C     0.16471   0.16643   0.50036   0.00000  Uiso   1.00
C385   C     0.33525   0.16606   0.49932   0.00000  Uiso   1.00
C386   C     0.40982   0.21351   0.50818   0.00000  Uiso   1.00
Cl387  Cl    0.38356   0.27262   0.51890   0.00000  Uiso   1.00
Cl388  Cl    0.11701   0.05914   0.47911   0.00000  Uiso   1.00
Cl389  Cl    0.36716   0.05832   0.46737   0.00000  Uiso   1.00
Cl390  Cl    0.13095   0.27241   0.51167   0.00000  Uiso   1.00
Cl391  Cl    0.19601   0.10729   0.63576   0.00000  Uiso   1.00
Cl392  Cl    0.30346   0.22679   0.36430   0.00000  Uiso   1.00
Cu393  Cu    0.25500   0.17246   0.56146   0.00000  Uiso   1.00
Cu394  Cu    0.24499   0.16087   0.43854   0.00000  Uiso   1.00
H395   H     0.45022   0.03253   0.46659   0.00000  Uiso   1.00
H396   H     0.33303   0.02199   0.55984   0.00000  Uiso   1.00
H397   H     0.31947   0.31561   0.61328   0.00000  Uiso   1.00
H398   H     0.36572   0.06348   0.66554   0.00000  Uiso   1.00
H399   H     0.32588   0.10265   0.63685   0.00000  Uiso   1.00
H400   H     0.30996   0.06467   0.35719   0.00000  Uiso   1.00
H401   H     0.04944   0.29881   0.52785   0.00000  Uiso   1.00
H402   H     0.02995   0.03277   0.46937   0.00000  Uiso   1.00
H403   H     0.47008   0.29875   0.52795   0.00000  Uiso   1.00
H404   H     0.24250   0.32347   0.36302   0.00000  Uiso   1.00
H405   H     0.19084   0.02347   0.37164   0.00000  Uiso   1.00
H406   H     0.14430   0.27581   0.33663   0.00000  Uiso   1.00
H407   H     0.18502   0.27982   0.61619   0.00000  Uiso   1.00
H408   H     0.19212   0.23784   0.33538   0.00000  Uiso   1.00
N409   N     0.23744   0.15214   0.34617   0.00000  Uiso   1.00
N410   N     0.26255   0.18119   0.65383   0.00000  Uiso   1.00
O411   O     0.25325   0.09538   0.53992   0.00000  Uiso   1.00
O412   O     0.26708   0.02064   0.58293   0.00000  Uiso   1.00
O413   O     0.24674   0.23796   0.46008   0.00000  Uiso   1.00
O414   O     0.24480   0.08559   0.43612   0.00000  Uiso   1.00
O415   O     0.25520   0.24774   0.56388   0.00000  Uiso   1.00
O416   O     0.18935   0.17155   0.55191   0.00000  Uiso   1.00
O417   O     0.31064   0.16179   0.44809   0.00000  Uiso   1.00
O418   O     0.18090   0.16176   0.44810   0.00000  Uiso   1.00
O419   O     0.31910   0.17157   0.55190   0.00000  Uiso   1.00
O420   O     0.20546   0.31197   0.43413   0.00000  Uiso   1.00
C421   C     0.74529   0.06649   0.48466   0.00000  Uiso   1.00
C422   C     0.59034   0.11820   0.49098   0.00000  Uiso   1.00
C423   C     0.88336   0.16569   0.49771   0.00000  Uiso   1.00
C424   C     0.61655   0.16620   0.50080   0.00000  Uiso   1.00
C425   C     0.90250   0.11768   0.48529   0.00000  Uiso   1.00
C426   C     0.59692   0.21376   0.50783   0.00000  Uiso   1.00
C427   C     0.94930   0.11744   0.48636   0.00000  Uiso   1.00
C428   C     0.55034   0.21394   0.50885   0.00000  Uiso   1.00
C429   C     0.97639   0.16566   0.49819   0.00000  Uiso   1.00
C430   C     0.52345   0.16576   0.49904   0.00000  Uiso   1.00
C431   C     0.95653   0.21380   0.50856   0.00000  Uiso   1.00
C432   C     0.75130   0.26658   0.51571   0.00000  Uiso   1.00
C433   C     0.54345   0.11768   0.48928   0.00000  Uiso   1.00
C434   C     0.96971   0.07016   0.47595   0.00000  Uiso   1.00
C435   C     0.53000   0.26120   0.51912   0.00000  Uiso   1.00
C436   C     0.70733   0.32097   0.37525   0.00000  Uiso   1.00
C437   C     0.68049   0.27567   0.66301   0.00000  Uiso   1.00
C438   C     0.81328   0.01894   0.59848   0.00000  Uiso   1.00
C439   C     0.82972   0.06537   0.65123   0.00000  Uiso   1.00
C440   C     0.51604   0.07030   0.47768   0.00000  Uiso   1.00
C441   C     0.98387   0.26115   0.51925   0.00000  Uiso   1.00
C442   C     0.73758   0.00993   0.47824   0.00000  Uiso   1.00
C443   C     0.75378   0.32282   0.52461   0.00000  Uiso   1.00
C444   C     0.66471   0.16643   0.50036   0.00000  Uiso   1.00
C445   C     0.83525   0.16606   0.49932   0.00000  Uiso   1.00
C446   C     0.90982   0.21351   0.50818   0.00000  Uiso   1.00
Cl447  Cl    0.88356   0.27262   0.51890   0.00000  Uiso   1.00
Cl448  Cl    0.61701   0.05914   0.47911   0.00000  Uiso   1.00
Cl449  Cl    0.86716   0.05832   0.46737   0.00000  Uiso   1.00
Cl450  Cl    0.63095   0.27241   0.51167   0.00000  Uiso   1.00
Cl451  Cl    0.69601   0.10729   0.63576   0.00000  Uiso   1.00
Cl452  Cl    0.80346   0.22679   0.36430   0.00000  Uiso   1.00
Cu453  Cu    0.75500   0.17246   0.56146   0.00000  Uiso   1.00
Cu454  Cu    0.74499   0.16087   0.43854   0.00000  Uiso   1.00
H455   H     0.95022   0.03253   0.46659   0.00000  Uiso   1.00
H456   H     0.83303   0.02199   0.55984   0.00000  Uiso   1.00
H457   H     0.81947   0.31561   0.61328   0.00000  Uiso   1.00
H458   H     0.86572   0.06348   0.66554   0.00000  Uiso   1.00
H459   H     0.82588   0.10265   0.63685   0.00000  Uiso   1.00
H460   H     0.80996   0.06467   0.35719   0.00000  Uiso   1.00
H461   H     0.54944   0.29881   0.52785   0.00000  Uiso   1.00
H462   H     0.52995   0.03277   0.46937   0.00000  Uiso   1.00
H463   H     0.97008   0.29875   0.52795   0.00000  Uiso   1.00
H464   H     0.74250   0.32347   0.36302   0.00000  Uiso   1.00
H465   H     0.69084   0.02347   0.37164   0.00000  Uiso   1.00
H466   H     0.64430   0.27581   0.33663   0.00000  Uiso   1.00
H467   H     0.68502   0.27982   0.61619   0.00000  Uiso   1.00
H468   H     0.69212   0.23784   0.33538   0.00000  Uiso   1.00
N469   N     0.73744   0.15214   0.34617   0.00000  Uiso   1.00
N470   N     0.76255   0.18119   0.65383   0.00000  Uiso   1.00
O471   O     0.75325   0.09538   0.53992   0.00000  Uiso   1.00
O472   O     0.76708   0.02064   0.58293   0.00000  Uiso   1.00
O473   O     0.74674   0.23796   0.46008   0.00000  Uiso   1.00
O474   O     0.74480   0.08559   0.43612   0.00000  Uiso   1.00
O475   O     0.75520   0.24774   0.56388   0.00000  Uiso   1.00
O476   O     0.68935   0.17155   0.55191   0.00000  Uiso   1.00
O477   O     0.81064   0.16179   0.44809   0.00000  Uiso   1.00
O478   O     0.68090   0.16176   0.44810   0.00000  Uiso   1.00
O479   O     0.81910   0.17157   0.55190   0.00000  Uiso   1.00
O480   O     0.70546   0.31197   0.43413   0.00000  Uiso   1.00
C481   C     0.24529   0.39982   0.48466   0.00000  Uiso   1.00
C482   C     0.09034   0.45153   0.49098   0.00000  Uiso   1.00
C483   C     0.38336   0.49902   0.49771   0.00000  Uiso   1.00
C484   C     0.11655   0.49954   0.50080   0.00000  Uiso   1.00
C485   C     0.40250   0.45102   0.48529   0.00000  Uiso   1.00
C486   C     0.09692   0.54709   0.50783   0.00000  Uiso   1.00
C487   C     0.44930   0.45077   0.48636   0.00000  Uiso   1.00
C488   C     0.05034   0.54727   0.50885   0.00000  Uiso   1.00
C489   C     0.47639   0.49899   0.49819   0.00000  Uiso   1.00
C490   C     0.02345   0.49909   0.49904   0.00000  Uiso   1.00
C491   C     0.45653   0.54713   0.50856   0.00000  Uiso   1.00
C492   C     0.25130   0.59992   0.51571   0.00000  Uiso   1.00
C493   C     0.04345   0.45102   0.48928   0.00000  Uiso   1.00
C494   C     0.46971   0.40350   0.47595   0.00000  Uiso   1.00
C495   C     0.03000   0.59453   0.51912   0.00000  Uiso   1.00
C496   C     0.20733   0.65430   0.37525   0.00000  Uiso   1.00
C497   C     0.18049   0.60900   0.66301   0.00000  Uiso   1.00
C498   C     0.31328   0.35228   0.59848   0.00000  Uiso   1.00
C499   C     0.32972   0.39871   0.65123   0.00000  Uiso   1.00
C500   C     0.01604   0.40363   0.47768   0.00000  Uiso   1.00
C501   C     0.48387   0.59448   0.51925   0.00000  Uiso   1.00
C502   C     0.23758   0.34326   0.47824   0.00000  Uiso   1.00
C503   C     0.25378   0.65615   0.52461   0.00000  Uiso   1.00
C504   C     0.16471   0.49976   0.50036   0.00000  Uiso   1.00
C505   C     0.33525   0.49939   0.49932   0.00000  Uiso   1.00
C506   C     0.40982   0.54684   0.50818   0.00000  Uiso   1.00
Cl507  Cl    0.38356   0.60596   0.51890   0.00000  Uiso   1.00
Cl508  Cl    0.11701   0.39247   0.47911   0.00000  Uiso   1.00
Cl509  Cl    0.36716   0.39166   0.46737   0.00000  Uiso   1.00
Cl510  Cl    0.13095   0.60574   0.51167   0.00000  Uiso   1.00
Cl511  Cl    0.19601   0.44062   0.63576   0.00000  Uiso   1.00
Cl512  Cl    0.30346   0.56013   0.36430   0.00000  Uiso   1.00
Cu513  Cu    0.25500   0.50579   0.56146   0.00000  Uiso   1.00
Cu514  Cu    0.24499   0.49421   0.43854   0.00000  Uiso   1.00
H515   H     0.45022   0.36586   0.46659   0.00000  Uiso   1.00
H516   H     0.33303   0.35533   0.55984   0.00000  Uiso   1.00
H517   H     0.31947   0.64895   0.61328   0.00000  Uiso   1.00
H518   H     0.36572   0.39682   0.66554   0.00000  Uiso   1.00
H519   H     0.32588   0.43599   0.63685   0.00000  Uiso   1.00
H520   H     0.30996   0.39801   0.35719   0.00000  Uiso   1.00
H521   H     0.04944   0.63215   0.52785   0.00000  Uiso   1.00
H522   H     0.02995   0.36610   0.46937   0.00000  Uiso   1.00
H523   H     0.47008   0.63209   0.52795   0.00000  Uiso   1.00
H524   H     0.24250   0.65680   0.36302   0.00000  Uiso   1.00
H525   H     0.19084   0.35680   0.37164   0.00000  Uiso   1.00
H526   H     0.14430   0.60914   0.33663   0.00000  Uiso   1.00
H527   H     0.18502   0.61315   0.61619   0.00000  Uiso   1.00
H528   H     0.19212   0.57118   0.33538   0.00000  Uiso   1.00
N529   N     0.23744   0.48547   0.34617   0.00000  Uiso   1.00
N530   N     0.26255   0.51453   0.65383   0.00000  Uiso   1.00
O531   O     0.25325   0.42871   0.53992   0.00000  Uiso   1.00
O532   O     0.26708   0.35397   0.58293   0.00000  Uiso   1.00
O533   O     0.24674   0.57129   0.46008   0.00000  Uiso   1.00
O534   O     0.24480   0.41892   0.43612   0.00000  Uiso   1.00
O535   O     0.25520   0.58108   0.56388   0.00000  Uiso   1.00
O536   O     0.18935   0.50488   0.55191   0.00000  Uiso   1.00
O537   O     0.31064   0.49512   0.44809   0.00000  Uiso   1.00
O538   O     0.18090   0.49510   0.44810   0.00000  Uiso   1.00
O539   O     0.31910   0.50490   0.55190   0.00000  Uiso   1.00
O540   O     0.20546   0.64531   0.43413   0.00000  Uiso   1.00
C541   C     0.74529   0.39982   0.48466   0.00000  Uiso   1.00
C542   C     0.59034   0.45153   0.49098   0.00000  Uiso   1.00
C543   C     0.88336   0.49902   0.49771   0.00000  Uiso   1.00
C544   C     0.61655   0.49954   0.50080   0.00000  Uiso   1.00
C545   C     0.90250   0.45102   0.48529   0.00000  Uiso   1.00
C546   C     0.59692   0.54709   0.50783   0.00000  Uiso   1.00
C547   C     0.94930   0.45077   0.48636   0.00000  Uiso   1.00
C548   C     0.55034   0.54727   0.50885   0.00000  Uiso   1.00
C549   C     0.97639   0.49899   0.49819   0.00000  Uiso   1.00
C550   C     0.52345   0.49909   0.49904   0.00000  Uiso   1.00
C551   C     0.95653   0.54713   0.50856   0.00000  Uiso   1.00
C552   C     0.75130   0.59992   0.51571   0.00000  Uiso   1.00
C553   C     0.54345   0.45102   0.48928   0.00000  Uiso   1.00
C554   C     0.96971   0.40350   0.47595   0.00000  Uiso   1.00
C555   C     0.53000   0.59453   0.51912   0.00000  Uiso   1.00
C556   C     0.70733   0.65430   0.37525   0.00000  Uiso   1.00
C557   C     0.68049   0.60900   0.66301   0.00000  Uiso   1.00
C558   C     0.81328   0.35228   0.59848   0.00000  Uiso   1.00
C559   C     0.82972   0.39871   0.65123   0.00000  Uiso   1.00
C560   C     0.51604   0.40363   0.47768   0.00000  Uiso   1.00
C561   C     0.98387   0.59448   0.51925   0.00000  Uiso   1.00
C562   C     0.73758   0.34326   0.47824   0.00000  Uiso   1.00
C563   C     0.75378   0.65615   0.52461   0.00000  Uiso   1.00
C564   C     0.66471   0.49976   0.50036   0.00000  Uiso   1.00
C565   C     0.83525   0.49939   0.49932   0.00000  Uiso   1.00
C566   C     0.90982   0.54684   0.50818   0.00000  Uiso   1.00
Cl567  Cl    0.88356   0.60596   0.51890   0.00000  Uiso   1.00
Cl568  Cl    0.61701   0.39247   0.47911   0.00000  Uiso   1.00
Cl569  Cl    0.86716   0.39166   0.46737   0.00000  Uiso   1.00
Cl570  Cl    0.63095   0.60574   0.51167   0.00000  Uiso   1.00
Cl571  Cl    0.69601   0.44062   0.63576   0.00000  Uiso   1.00
Cl572  Cl    0.80346   0.56013   0.36430   0.00000  Uiso   1.00
Cu573  Cu    0.75500   0.50579   0.56146   0.00000  Uiso   1.00
Cu574  Cu    0.74499   0.49421   0.43854   0.00000  Uiso   1.00
H575   H     0.95022   0.36586   0.46659   0.00000  Uiso   1.00
H576   H     0.83303   0.35533   0.55984   0.00000  Uiso   1.00
H577   H     0.81947   0.64895   0.61328   0.00000  Uiso   1.00
H578   H     0.86572   0.39682   0.66554   0.00000  Uiso   1.00
H579   H     0.82588   0.43599   0.63685   0.00000  Uiso   1.00
H580   H     0.80996   0.39801   0.35719   0.00000  Uiso   1.00
H581   H     0.54944   0.63215   0.52785   0.00000  Uiso   1.00
H582   H     0.52995   0.36610   0.46937   0.00000  Uiso   1.00
H583   H     0.97008   0.63209   0.52795   0.00000  Uiso   1.00
H584   H     0.74250   0.65680   0.36302   0.00000  Uiso   1.00
H585   H     0.69084   0.35680   0.37164   0.00000  Uiso   1.00
H586   H     0.64430   0.60914   0.33663   0.00000  Uiso   1.00
H587   H     0.68502   0.61315   0.61619   0.00000  Uiso   1.00
H588   H     0.69212   0.57118   0.33538   0.00000  Uiso   1.00
N589   N     0.73744   0.48547   0.34617   0.00000  Uiso   1.00
N590   N     0.76255   0.51453   0.65383   0.00000  Uiso   1.00
O591   O     0.75325   0.42871   0.53992   0.00000  Uiso   1.00
O592   O     0.76708   0.35397   0.58293   0.00000  Uiso   1.00
O593   O     0.74674   0.57129   0.46008   0.00000  Uiso   1.00
O594   O     0.74480   0.41892   0.43612   0.00000  Uiso   1.00
O595   O     0.75520   0.58108   0.56388   0.00000  Uiso   1.00
O596   O     0.68935   0.50488   0.55191   0.00000  Uiso   1.00
O597   O     0.81064   0.49512   0.44809   0.00000  Uiso   1.00
O598   O     0.68090   0.49510   0.44810   0.00000  Uiso   1.00
O599   O     0.81910   0.50490   0.55190   0.00000  Uiso   1.00
O600   O     0.70546   0.64531   0.43413   0.00000  Uiso   1.00
C601   C     0.24529   0.73316   0.48466   0.00000  Uiso   1.00
C602   C     0.09034   0.78487   0.49098   0.00000  Uiso   1.00
C603   C     0.38336   0.83236   0.49771   0.00000  Uiso   1.00
C604   C     0.11655   0.83287   0.50080   0.00000  Uiso   1.00
C605   C     0.40250   0.78435   0.48529   0.00000  Uiso   1.00
C606   C     0.09692   0.88043   0.50783   0.00000  Uiso   1.00
C607   C     0.44930   0.78410   0.48636   0.00000  Uiso   1.00
C608   C     0.05034   0.88060   0.50885   0.00000  Uiso   1.00
C609   C     0.47639   0.83232   0.49819   0.00000  Uiso   1.00
C610   C     0.02345   0.83242   0.49904   0.00000  Uiso   1.00
C611   C     0.45653   0.88047   0.50856   0.00000  Uiso   1.00
C612   C     0.25130   0.93325   0.51571   0.00000  Uiso   1.00
C613   C     0.04345   0.78435   0.48928   0.00000  Uiso   1.00
C614   C     0.46971   0.73683   0.47595   0.00000  Uiso   1.00
C615   C     0.03000   0.92786   0.51912   0.00000  Uiso   1.00
C616   C     0.20733   0.98764   0.37525   0.00000  Uiso   1.00
C617   C     0.18049   0.94233   0.66301   0.00000  Uiso   1.00
C618   C     0.31328   0.68561   0.59848   0.00000  Uiso   1.00
C619   C     0.32972   0.73204   0.65123   0.00000  Uiso   1.00
C620   C     0.01604   0.73697   0.47768   0.00000  Uiso   1.00
C621   C     0.48387   0.92782   0.51925   0.00000  Uiso   1.00
C622   C     0.23758   0.67659   0.47824   0.00000  Uiso   1.00
C623   C     0.25378   0.98949   0.52461   0.00000  Uiso   1.00
C624   C     0.16471   0.83309   0.50036   0.00000  Uiso   1.00
C625   C     0.33525   0.83272   0.49932   0.00000  Uiso   1.00
C626   C     0.40982   0.88017   0.50818   0.00000  Uiso   1.00
Cl627  Cl    0.38356   0.93929   0.51890   0.00000  Uiso   1.00
Cl628  Cl    0.11701   0.72581   0.47911   0.00000  Uiso   1.00
Cl629  Cl    0.36716   0.72499   0.46737   0.00000  Uiso   1.00
Cl630  Cl    0.13095   0.93907   0.51167   0.00000  Uiso   1.00
Cl631  Cl    0.19601   0.77395   0.63576   0.00000  Uiso   1.00
Cl632  Cl    0.30346   0.89346   0.36430   0.00000  Uiso   1.00
Cu633  Cu    0.25500   0.83913   0.56146   0.00000  Uiso   1.00
Cu634  Cu    0.24499   0.82754   0.43854   0.00000  Uiso   1.00
H635   H     0.45022   0.69919   0.46659   0.00000  Uiso   1.00
H636   H     0.33303   0.68866   0.55984   0.00000  Uiso   1.00
H637   H     0.31947   0.98228   0.61328   0.00000  Uiso   1.00
H638   H     0.36572   0.73015   0.66554   0.00000  Uiso   1.00
H639   H     0.32588   0.76932   0.63685   0.00000  Uiso   1.00
H640   H     0.30996   0.73134   0.35719   0.00000  Uiso   1.00
H641   H     0.04944   0.96548   0.52785   0.00000  Uiso   1.00
H642   H     0.02995   0.69944   0.46937   0.00000  Uiso   1.00
H643   H     0.47008   0.96542   0.52795   0.00000  Uiso   1.00
H644   H     0.24250   0.99013   0.36302   0.00000  Uiso   1.00
H645   H     0.19084   0.69013   0.37164   0.00000  Uiso   1.00
H646   H     0.14430   0.94248   0.33663   0.00000  Uiso   1.00
H647   H     0.18502   0.94649   0.61619   0.00000  Uiso   1.00
H648   H     0.19212   0.90451   0.33538   0.00000  Uiso   1.00
N649   N     0.23744   0.81881   0.34617   0.00000  Uiso   1.00
N650   N     0.26255   0.84786   0.65383   0.00000  Uiso   1.00
O651   O     0.25325   0.76204   0.53992   0.00000  Uiso   1.00
O652   O     0.26708   0.68731   0.58293   0.00000  Uiso   1.00
O653   O     0.24674   0.90462   0.46008   0.00000  Uiso   1.00
O654   O     0.24480   0.75226   0.43612   0.00000  Uiso   1.00
O655   O     0.25520   0.91441   0.56388   0.00000  Uiso   1.00
O656   O     0.18935   0.83821   0.55191   0.00000  Uiso   1.00
O657   O     0.31064   0.82845   0.44809   0.00000  Uiso   1.00
O658   O     0.18090   0.82843   0.44810   0.00000  Uiso   1.00
O659   O     0.31910   0.83824   0.55190   0.00000  Uiso   1.00
O660   O     0.20546   0.97864   0.43413   0.00000  Uiso   1.00
C661   C     0.74529   0.73316   0.48466   0.00000  Uiso   1.00
C662   C     0.59034   0.78487   0.49098   0.00000  Uiso   1.00
C663   C     0.88336   0.83236   0.49771   0.00000  Uiso   1.00
C664   C     0.61655   0.83287   0.50080   0.00000  Uiso   1.00
C665   C     0.90250   0.78435   0.48529   0.00000  Uiso   1.00
C666   C     0.59692   0.88043   0.50783   0.00000  Uiso   1.00
C667   C     0.94930   0.78410   0.48636   0.00000  Uiso   1.00
C668   C     0.55034   0.88060   0.50885   0.00000  Uiso   1.00
C669   C     0.97639   0.83232   0.49819   0.00000  Uiso   1.00
C670   C     0.52345   0.83242   0.49904   0.00000  Uiso   1.00
C671   C     0.95653   0.88047   0.50856   0.00000  Uiso   1.00
C672   C     0.75130   0.93325   0.51571   0.00000  Uiso   1.00
C673   C     0.54345   0.78435   0.48928   0.00000  Uiso   1.00
C674   C     0.96971   0.73683   0.47595   0.00000  Uiso   1.00
C675   C     0.53000   0.92786   0.51912   0.00000  Uiso   1.00
C676   C     0.70733   0.98764   0.37525   0.00000  Uiso   1.00
C677   C     0.68049   0.94233   0.66301   0.00000  Uiso   1.00
C678   C     0.81328   0.68561   0.59848   0.00000  Uiso   1.00
C679   C     0.82972   0.73204   0.65123   0.00000  Uiso   1.00
C680   C     0.51604   0.73697   0.47768   0.00000  Uiso   1.00
C681   C     0.98387   0.92782   0.51925   0.00000  Uiso   1.00
C682   C     0.73758   0.67659   0.47824   0.00000  Uiso   1.00
C683   C     0.75378   0.98949   0.52461   0.00000  Uiso   1.00
C684   C     0.66471   0.83309   0.50036   0.00000  Uiso   1.00
C685   C     0.83525   0.83272   0.49932   0.00000  Uiso   1.00
C686   C     0.90982   0.88017   0.50818   0.00000  Uiso   1.00
Cl687  Cl    0.88356   0.93929   0.51890   0.00000  Uiso   1.00
Cl688  Cl    0.61701   0.72581   0.47911   0.00000  Uiso   1.00
Cl689  Cl    0.86716   0.72499   0.46737   0.00000  Uiso   1.00
Cl690  Cl    0.63095   0.93907   0.51167   0.00000  Uiso   1.00
Cl691  Cl    0.69601   0.77395   0.63576   0.00000  Uiso   1.00
Cl692  Cl    0.80346   0.89346   0.36430   0.00000  Uiso   1.00
Cu693  Cu    0.75500   0.83913   0.56146   0.00000  Uiso   1.00
Cu694  Cu    0.74499   0.82754   0.43854   0.00000  Uiso   1.00
H695   H     0.95022   0.69919   0.46659   0.00000  Uiso   1.00
H696   H     0.83303   0.68866   0.55984   0.00000  Uiso   1.00
H697   H     0.81947   0.98228   0.61328   0.00000  Uiso   1.00
H698   H     0.86572   0.73015   0.66554   0.00000  Uiso   1.00
H699   H     0.82588   0.76932   0.63685   0.00000  Uiso   1.00
H700   H     0.80996   0.73134   0.35719   0.00000  Uiso   1.00
H701   H     0.54944   0.96548   0.52785   0.00000  Uiso   1.00
H702   H     0.52995   0.69944   0.46937   0.00000  Uiso   1.00
H703   H     0.97008   0.96542   0.52795   0.00000  Uiso   1.00
H704   H     0.74250   0.99013   0.36302   0.00000  Uiso   1.00
H705   H     0.69084   0.69013   0.37164   0.00000  Uiso   1.00
H706   H     0.64430   0.94248   0.33663   0.00000  Uiso   1.00
H707   H     0.68502   0.94649   0.61619   0.00000  Uiso   1.00
H708   H     0.69212   0.90451   0.33538   0.00000  Uiso   1.00
N709   N     0.73744   0.81881   0.34617   0.00000  Uiso   1.00
N710   N     0.76255   0.84786   0.65383   0.00000  Uiso   1.00
O711   O     0.75325   0.76204   0.53992   0.00000  Uiso   1.00
O712   O     0.76708   0.68731   0.58293   0.00000  Uiso   1.00
O713   O     0.74674   0.90462   0.46008   0.00000  Uiso   1.00
O714   O     0.74480   0.75226   0.43612   0.00000  Uiso   1.00
O715   O     0.75520   0.91441   0.56388   0.00000  Uiso   1.00
O716   O     0.68935   0.83821   0.55191   0.00000  Uiso   1.00
O717   O     0.81064   0.82845   0.44809   0.00000  Uiso   1.00
O718   O     0.68090   0.82843   0.44810   0.00000  Uiso   1.00
O719   O     0.81910   0.83824   0.55190   0.00000  Uiso   1.00
O720   O     0.70546   0.97864   0.43413   0.00000  Uiso   1.00
C721   C     0.24529   0.06649   0.81800   0.00000  Uiso   1.00
C722   C     0.09034   0.11820   0.82431   0.00000  Uiso   1.00
C723   C     0.38336   0.16569   0.83104   0.00000  Uiso   1.00
C724   C     0.11655   0.16620   0.83413   0.00000  Uiso   1.00
C725   C     0.40250   0.11768   0.81862   0.00000  Uiso   1.00
C726   C     0.09692   0.21376   0.84117   0.00000  Uiso   1.00
C727   C     0.44930   0.11744   0.81969   0.00000  Uiso   1.00
C728   C     0.05034   0.21394   0.84218   0.00000  Uiso   1.00
C729   C     0.47639   0.16566   0.83152   0.00000  Uiso   1.00
C730   C     0.02345   0.16576   0.83238   0.00000  Uiso   1.00
C731   C     0.45653   0.21380   0.84190   0.00000  Uiso   1.00
C732   C     0.25130   0.26658   0.84905   0.00000  Uiso   1.00
C733   C     0.04345   0.11768   0.82262   0.00000  Uiso   1.00
C734   C     0.46971   0.07016   0.80928   0.00000  Uiso   1.00
C735   C     0.03000   0.26120   0.85245   0.00000  Uiso   1.00
C736   C     0.20733   0.32097   0.70858   0.00000  Uiso   1.00
C737   C     0.18049   0.27567   0.99634   0.00000  Uiso   1.00
C738   C     0.31328   0.01894   0.93182   0.00000  Uiso   1.00
C739   C     0.32972   0.06537   0.98456   0.00000  Uiso   1.00
C740   C     0.01604   0.07030   0.81102   0.00000  Uiso   1.00
C741   C     0.48387   0.26115   0.85258   0.00000  Uiso   1.00
C742   C     0.23758   0.00993   0.81158   0.00000  Uiso   1.00
C743   C     0.25378   0.32282   0.85795   0.00000  Uiso   1.00
C744   C     0.16471   0.16643   0.83369   0.00000  Uiso   1.00
C745   C     0.33525   0.16606   0.83266   0.00000  Uiso   1.00
C746   C     0.40982   0.21351   0.84151   0.00000  Uiso   1.00
Cl747  Cl    0.38356   0.27262   0.85223   0.00000  Uiso   1.00
Cl748  Cl    0.11701   0.05914   0.81245   0.00000  Uiso   1.00
Cl749  Cl    0.36716   0.05832   0.80070   0.00000  Uiso   1.00
Cl750  Cl    0.13095   0.27241   0.84500   0.00000  Uiso   1.00
Cl751  Cl    0.19601   0.10729   0.96909   0.00000  Uiso   1.00
Cl752  Cl    0.30346   0.22679   0.69763   0.00000  Uiso   1.00
Cu753  Cu    0.25500   0.17246   0.89479   0.00000  Uiso   1.00
Cu754  Cu    0.24499   0.16087   0.77187   0.00000  Uiso   1.00
H755   H     0.45022   0.03253   0.79992   0.00000  Uiso   1.00
H756   H     0.33303   0.02199   0.89317   0.00000  Uiso   1.00
H757   H     0.31947   0.31561   0.94661   0.00000  Uiso   1.00
H758   H     0.36572   0.06348   0.99887   0.00000  Uiso   1.00
H759   H     0.32588   0.10265   0.97019   0.00000  Uiso   1.00
H760   H     0.30996   0.06467   0.69052   0.00000  Uiso   1.00
H761   H     0.04944   0.29881   0.86119   0.00000  Uiso   1.00
H762   H     0.02995   0.03277   0.80271   0.00000  Uiso   1.00
H763   H     0.47008   0.29875   0.86128   0.00000  Uiso   1.00
H764   H     0.24250   0.32347   0.69636   0.00000  Uiso   1.00
H765   H     0.19084   0.02347   0.70497   0.00000  Uiso   1.00
H766   H     0.14430   0.27581   0.66996   0.00000  Uiso   1.00
H767   H     0.18502   0.27982   0.94953   0.00000  Uiso   1.00
H768   H     0.19212   0.23784   0.66872   0.00000  Uiso   1.00
N769   N     0.23744   0.15214   0.67951   0.00000  Uiso   1.00
N770   N     0.26255   0.18119   0.98716   0.00000  Uiso   1.00
O771   O     0.25325   0.09538   0.87326   0.00000  Uiso   1.00
O772   O     0.26708   0.02064   0.91626   0.00000  Uiso   1.00
O773   O     0.24674   0.23796   0.79341   0.00000  Uiso   1.00
O774   O     0.24480   0.08559   0.76945   0.00000  Uiso   1.00
O775   O     0.25520   0.24774   0.89721   0.00000  Uiso   1.00
O776   O     0.18935   0.17155   0.88524   0.00000  Uiso   1.00
O777   O     0.31064   0.16179   0.78143   0.00000  Uiso   1.00
O778   O     0.18090   0.16176   0.78143   0.00000  Uiso   1.00
O779   O     0.31910   0.17157   0.88523   0.00000  Uiso   1.00
O780   O     0.20546   0.31197   0.76746   0.00000  Uiso   1.00
C781   C     0.74529   0.06649   0.81800   0.00000  Uiso   1.00
C782   C     0.59034   0.11820   0.82431   0.00000  Uiso   1.00
C783   C     0.88336   0.16569   0.83104   0.00000  Uiso   1.00
C784   C     0.61655   0.16620   0.83413   0.00000  Uiso   1.00
C785   C     0.90250   0.11768   0.81862   0.00000  Uiso   1.00
C786   C     0.59692   0.21376   0.84117   0.00000  Uiso   1.00
C787   C     0.94930   0.11744   0.81969   0.00000  Uiso   1.00
C788   C     0.55034   0.21394   0.84218   0.00000  Uiso   1.00
C789   C     0.97639   0.16566   0.83152   0.00000  Uiso   1.00
C790   C     0.52345   0.16576   0.83238   0.00000  Uiso   1.00
C791   C     0.95653   0.21380   0.84190   0.00000  Uiso   1.00
C792   C     0.75130   0.26658   0.84905   0.00000  Uiso   1.00
C793   C     0.54345   0.11768   0.82262   0.00000  Uiso   1.00
C794   C     0.96971   0.07016   0.80928   0.00000  Uiso   1.00
C795   C     0.53000   0.26120   0.85245   0.00000  Uiso   1.00
C796   C     0.70733   0.32097   0.70858   0.00000  Uiso   1.00
C797   C     0.68049   0.27567   0.99634   0.00000  Uiso   1.00
C798   C     0.81328   0.01894   0.93182   0.00000  Uiso   1.00
C799   C     0.82972   0.06537   0.98456   0.00000  Uiso   1.00
C800   C     0.51604   0.07030   0.81102   0.00000  Uiso   1.00
C801   C     0.98387   0.26115   0.85258   0.00000  Uiso   1.00
C802   C     0.73758   0.00993   0.81158   0.00000  Uiso   1.00
C803   C     0.75378   0.32282   0.85795   0.00000  Uiso   1.00
C804   C     0.66471   0.16643   0.83369   0.00000  Uiso   1.00
C805   C     0.83525   0.16606   0.83266   0.00000  Uiso   1.00
C806   C     0.90982   0.21351   0.84151   0.00000  Uiso   1.00
Cl807  Cl    0.88356   0.27262   0.85223   0.00000  Uiso   1.00
Cl808  Cl    0.61701   0.05914   0.81245   0.00000  Uiso   1.00
Cl809  Cl    0.86716   0.05832   0.80070   0.00000  Uiso   1.00
Cl810  Cl    0.63095   0.27241   0.84500   0.00000  Uiso   1.00
Cl811  Cl    0.69601   0.10729   0.96909   0.00000  Uiso   1.00
Cl812  Cl    0.80346   0.22679   0.69763   0.00000  Uiso   1.00
Cu813  Cu    0.75500   0.17246   0.89479   0.00000  Uiso   1.00
Cu814  Cu    0.74499   0.16087   0.77187   0.00000  Uiso   1.00
H815   H     0.95022   0.03253   0.79992   0.00000  Uiso   1.00
H816   H     0.83303   0.02199   0.89317   0.00000  Uiso   1.00
H817   H     0.81947   0.31561   0.94661   0.00000  Uiso   1.00
H818   H     0.86572   0.06348   0.99887   0.00000  Uiso   1.00
H819   H     0.82588   0.10265   0.97019   0.00000  Uiso   1.00
H820   H     0.80996   0.06467   0.69052   0.00000  Uiso   1.00
H821   H     0.54944   0.29881   0.86119   0.00000  Uiso   1.00
H822   H     0.52995   0.03277   0.80271   0.00000  Uiso   1.00
H823   H     0.97008   0.29875   0.86128   0.00000  Uiso   1.00
H824   H     0.74250   0.32347   0.69636   0.00000  Uiso   1.00
H825   H     0.69084   0.02347   0.70497   0.00000  Uiso   1.00
H826   H     0.64430   0.27581   0.66996   0.00000  Uiso   1.00
H827   H     0.68502   0.27982   0.94953   0.00000  Uiso   1.00
H828   H     0.69212   0.23784   0.66872   0.00000  Uiso   1.00
N829   N     0.73744   0.15214   0.67951   0.00000  Uiso   1.00
N830   N     0.76255   0.18119   0.98716   0.00000  Uiso   1.00
O831   O     0.75325   0.09538   0.87326   0.00000  Uiso   1.00
O832   O     0.76708   0.02064   0.91626   0.00000  Uiso   1.00
O833   O     0.74674   0.23796   0.79341   0.00000  Uiso   1.00
O834   O     0.74480   0.08559   0.76945   0.00000  Uiso   1.00
O835   O     0.75520   0.24774   0.89721   0.00000  Uiso   1.00
O836   O     0.68935   0.17155   0.88524   0.00000  Uiso   1.00
O837   O     0.81064   0.16179   0.78143   0.00000  Uiso   1.00
O838   O     0.68090   0.16176   0.78143   0.00000  Uiso   1.00
O839   O     0.81910   0.17157   0.88523   0.00000  Uiso   1.00
O840   O     0.70546   0.31197   0.76746   0.00000  Uiso   1.00
C841   C     0.24529   0.39982   0.81800   0.00000  Uiso   1.00
C842   C     0.09034   0.45153   0.82431   0.00000  Uiso   1.00
C843   C     0.38336   0.49902   0.83104   0.00000  Uiso   1.00
C844   C     0.11655   0.49954   0.83413   0.00000  Uiso   1.00
C845   C     0.40250   0.45102   0.81862   0.00000  Uiso   1.00
C846   C     0.09692   0.54709   0.84117   0.00000  Uiso   1.00
C847   C     0.44930   0.45077   0.81969   0.00000  Uiso   1.00
C848   C     0.05034   0.54727   0.84218   0.00000  Uiso   1.00
C849   C     0.47639   0.49899   0.83152   0.00000  Uiso   1.00
C850   C     0.02345   0.49909   0.83238   0.00000  Uiso   1.00
C851   C     0.45653   0.54713   0.84190   0.00000  Uiso   1.00
C852   C     0.25130   0.59992   0.84905   0.00000  Uiso   1.00
C853   C     0.04345   0.45102   0.82262   0.00000  Uiso   1.00
C854   C     0.46971   0.40350   0.80928   0.00000  Uiso   1.00
C855   C     0.03000   0.59453   0.85245   0.00000  Uiso   1.00
C856   C     0.20733   0.65430   0.70858   0.00000  Uiso   1.00
C857   C     0.18049   0.60900   0.99634   0.00000  Uiso   1.00
C858   C     0.31328   0.35228   0.93182   0.00000  Uiso   1.00
C859   C     0.32972   0.39871   0.98456   0.00000  Uiso   1.00
C860   C     0.01604   0.40363   0.81102   0.00000  Uiso   1.00
C861   C     0.48387   0.59448   0.85258   0.00000  Uiso   1.00
C862   C     0.23758   0.34326   0.81158   0.00000  Uiso   1.00
C863   C     0.25378   0.65615   0.85795   0.00000  Uiso   1.00
C864   C     0.16471   0.49976   0.83369   0.00000  Uiso   1.00
C865   C     0.33525   0.49939   0.83266   0.00000  Uiso   1.00
C866   C     0.40982   0.54684   0.84151   0.00000  Uiso   1.00
Cl867  Cl    0.38356   0.60596   0.85223   0.00000  Uiso   1.00
Cl868  Cl    0.11701   0.39247   0.81245   0.00000  Uiso   1.00
Cl869  Cl    0.36716   0.39166   0.80070   0.00000  Uiso   1.00
Cl870  Cl    0.13095   0.60574   0.84500   0.00000  Uiso   1.00
Cl871  Cl    0.19601   0.44062   0.96909   0.00000  Uiso   1.00
Cl872  Cl    0.30346   0.56013   0.69763   0.00000  Uiso   1.00
Cu873  Cu    0.25500   0.50579   0.89479   0.00000  Uiso   1.00
Cu874  Cu    0.24499   0.49421   0.77187   0.00000  Uiso   1.00
H875   H     0.45022   0.36586   0.79992   0.00000  Uiso   1.00
H876   H     0.33303   0.35533   0.89317   0.00000  Uiso   1.00
H877   H     0.31947   0.64895   0.94661   0.00000  Uiso   1.00
H878   H     0.36572   0.39682   0.99887   0.00000  Uiso   1.00
H879   H     0.32588   0.43599   0.97019   0.00000  Uiso   1.00
H880   H     0.30996   0.39801   0.69052   0.00000  Uiso   1.00
H881   H     0.04944   0.63215   0.86119   0.00000  Uiso   1.00
H882   H     0.02995   0.36610   0.80271   0.00000  Uiso   1.00
H883   H     0.47008   0.63209   0.86128   0.00000  Uiso   1.00
H884   H     0.24250   0.65680   0.69636   0.00000  Uiso   1.00
H885   H     0.19084   0.35680   0.70497   0.00000  Uiso   1.00
H886   H     0.14430   0.60914   0.66996   0.00000  Uiso   1.00
H887   H     0.18502   0.61315   0.94953   0.00000  Uiso   1.00
H888   H     0.19212   0.57118   0.66872   0.00000  Uiso   1.00
N889   N     0.23744   0.48547   0.67951   0.00000  Uiso   1.00
N890   N     0.26255   0.51453   0.98716   0.00000  Uiso   1.00
O891   O     0.25325   0.42871   0.87326   0.00000  Uiso   1.00
O892   O     0.26708   0.35397   0.91626   0.00000  Uiso   1.00
O893   O     0.24674   0.57129   0.79341   0.00000  Uiso   1.00
O894   O     0.24480   0.41892   0.76945   0.00000  Uiso   1.00
O895   O     0.25520   0.58108   0.89721   0.00000  Uiso   1.00
O896   O     0.18935   0.50488   0.88524   0.00000  Uiso   1.00
O897   O     0.31064   0.49512   0.78143   0.00000  Uiso   1.00
O898   O     0.18090   0.49510   0.78143   0.00000  Uiso   1.00
O899   O     0.31910   0.50490   0.88523   0.00000  Uiso   1.00
O900   O     0.20546   0.64531   0.76746   0.00000  Uiso   1.00
C901   C     0.74529   0.39982   0.81800   0.00000  Uiso   1.00
C902   C     0.59034   0.45153   0.82431   0.00000  Uiso   1.00
C903   C     0.88336   0.49902   0.83104   0.00000  Uiso   1.00
C904   C     0.61655   0.49954   0.83413   0.00000  Uiso   1.00
C905   C     0.90250   0.45102   0.81862   0.00000  Uiso   1.00
C906   C     0.59692   0.54709   0.84117   0.00000  Uiso   1.00
C907   C     0.94930   0.45077   0.81969   0.00000  Uiso   1.00
C908   C     0.55034   0.54727   0.84218   0.00000  Uiso   1.00
C909   C     0.97639   0.49899   0.83152   0.00000  Uiso   1.00
C910   C     0.52345   0.49909   0.83238   0.00000  Uiso   1.00
C911   C     0.95653   0.54713   0.84190   0.00000  Uiso   1.00
C912   C     0.75130   0.59992   0.84905   0.00000  Uiso   1.00
C913   C     0.54345   0.45102   0.82262   0.00000  Uiso   1.00
C914   C     0.96971   0.40350   0.80928   0.00000  Uiso   1.00
C915   C     0.53000   0.59453   0.85245   0.00000  Uiso   1.00
C916   C     0.70733   0.65430   0.70858   0.00000  Uiso   1.00
C917   C     0.68049   0.60900   0.99634   0.00000  Uiso   1.00
C918   C     0.81328   0.35228   0.93182   0.00000  Uiso   1.00
C919   C     0.82972   0.39871   0.98456   0.00000  Uiso   1.00
C920   C     0.51604   0.40363   0.81102   0.00000  Uiso   1.00
C921   C     0.98387   0.59448   0.85258   0.00000  Uiso   1.00
C922   C     0.73758   0.34326   0.81158   0.00000  Uiso   1.00
C923   C     0.75378   0.65615   0.85795   0.00000  Uiso   1.00
C924   C     0.66471   0.49976   0.83369   0.00000  Uiso   1.00
C925   C     0.83525   0.49939   0.83266   0.00000  Uiso   1.00
C926   C     0.90982   0.54684   0.84151   0.00000  Uiso   1.00
Cl927  Cl    0.88356   0.60596   0.85223   0.00000  Uiso   1.00
Cl928  Cl    0.61701   0.39247   0.81245   0.00000  Uiso   1.00
Cl929  Cl    0.86716   0.39166   0.80070   0.00000  Uiso   1.00
Cl930  Cl    0.63095   0.60574   0.84500   0.00000  Uiso   1.00
Cl931  Cl    0.69601   0.44062   0.96909   0.00000  Uiso   1.00
Cl932  Cl    0.80346   0.56013   0.69763   0.00000  Uiso   1.00
Cu933  Cu    0.75500   0.50579   0.89479   0.00000  Uiso   1.00
Cu934  Cu    0.74499   0.49421   0.77187   0.00000  Uiso   1.00
H935   H     0.95022   0.36586   0.79992   0.00000  Uiso   1.00
H936   H     0.83303   0.35533   0.89317   0.00000  Uiso   1.00
H937   H     0.81947   0.64895   0.94661   0.00000  Uiso   1.00
H938   H     0.86572   0.39682   0.99887   0.00000  Uiso   1.00
H939   H     0.82588   0.43599   0.97019   0.00000  Uiso   1.00
H940   H     0.80996   0.39801   0.69052   0.00000  Uiso   1.00
H941   H     0.54944   0.63215   0.86119   0.00000  Uiso   1.00
H942   H     0.52995   0.36610   0.80271   0.00000  Uiso   1.00
H943   H     0.97008   0.63209   0.86128   0.00000  Uiso   1.00
H944   H     0.74250   0.65680   0.69636   0.00000  Uiso   1.00
H945   H     0.69084   0.35680   0.70497   0.00000  Uiso   1.00
H946   H     0.64430   0.60914   0.66996   0.00000  Uiso   1.00
H947   H     0.68502   0.61315   0.94953   0.00000  Uiso   1.00
H948   H     0.69212   0.57118   0.66872   0.00000  Uiso   1.00
N949   N     0.73744   0.48547   0.67951   0.00000  Uiso   1.00
N950   N     0.76255   0.51453   0.98716   0.00000  Uiso   1.00
O951   O     0.75325   0.42871   0.87326   0.00000  Uiso   1.00
O952   O     0.76708   0.35397   0.91626   0.00000  Uiso   1.00
O953   O     0.74674   0.57129   0.79341   0.00000  Uiso   1.00
O954   O     0.74480   0.41892   0.76945   0.00000  Uiso   1.00
O955   O     0.75520   0.58108   0.89721   0.00000  Uiso   1.00
O956   O     0.68935   0.50488   0.88524   0.00000  Uiso   1.00
O957   O     0.81064   0.49512   0.78143   0.00000  Uiso   1.00
O958   O     0.68090   0.49510   0.78143   0.00000  Uiso   1.00
O959   O     0.81910   0.50490   0.88523   0.00000  Uiso   1.00
O960   O     0.70546   0.64531   0.76746   0.00000  Uiso   1.00
C961   C     0.24529   0.73316   0.81800   0.00000  Uiso   1.00
C962   C     0.09034   0.78487   0.82431   0.00000  Uiso   1.00
C963   C     0.38336   0.83236   0.83104   0.00000  Uiso   1.00
C964   C     0.11655   0.83287   0.83413   0.00000  Uiso   1.00
C965   C     0.40250   0.78435   0.81862   0.00000  Uiso   1.00
C966   C     0.09692   0.88043   0.84117   0.00000  Uiso   1.00
C967   C     0.44930   0.78410   0.81969   0.00000  Uiso   1.00
C968   C     0.05034   0.88060   0.84218   0.00000  Uiso   1.00
C969   C     0.47639   0.83232   0.83152   0.00000  Uiso   1.00
C970   C     0.02345   0.83242   0.83238   0.00000  Uiso   1.00
C971   C     0.45653   0.88047   0.84190   0.00000  Uiso   1.00
C972   C     0.25130   0.93325   0.84905   0.00000  Uiso   1.00
C973   C     0.04345   0.78435   0.82262   0.00000  Uiso   1.00
C974   C     0.46971   0.73683   0.80928   0.00000  Uiso   1.00
C975   C     0.03000   0.92786   0.85245   0.00000  Uiso   1.00
C976   C     0.20733   0.98764   0.70858   0.00000  Uiso   1.00
C977   C     0.18049   0.94233   0.99634   0.00000  Uiso   1.00
C978   C     0.31328   0.68561   0.93182   0.00000  Uiso   1.00
C979   C     0.32972   0.73204   0.98456   0.00000  Uiso   1.00
C980   C     0.01604   0.73697   0.81102   0.00000  Uiso   1.00
C981   C     0.48387   0.92782   0.85258   0.00000  Uiso   1.00
C982   C     0.23758   0.67659   0.81158   0.00000  Uiso   1.00
C983   C     0.25378   0.98949   0.85795   0.00000  Uiso   1.00
C984   C     0.16471   0.83309   0.83369   0.00000  Uiso   1.00
C985   C     0.33525   0.83272   0.83266   0.00000  Uiso   1.00
C986   C     0.40982   0.88017   0.84151   0.00000  Uiso   1.00
Cl987  Cl    0.38356   0.93929   0.85223   0.00000  Uiso   1.00
Cl988  Cl    0.11701   0.72581   0.81245   0.00000  Uiso   1.00
Cl989  Cl    0.36716   0.72499   0.80070   0.00000  Uiso   1.00
Cl990  Cl    0.13095   0.93907   0.84500   0.00000  Uiso   1.00
Cl991  Cl    0.19601   0.77395   0.96909   0.00000  Uiso   1.00
Cl992  Cl    0.30346   0.89346   0.69763   0.00000  Uiso   1.00
Cu993  Cu    0.25500   0.83913   0.89479   0.00000  Uiso   1.00
Cu994  Cu    0.24499   0.82754   0.77187   0.00000  Uiso   1.00
H995   H     0.45022   0.69919   0.79992   0.00000  Uiso   1.00
H996   H     0.33303   0.68866   0.89317   0.00000  Uiso   1.00
H997   H     0.31947   0.98228   0.94661   0.00000  Uiso   1.00
H998   H     0.36572   0.73015   0.99887   0.00000  Uiso   1.00
H999   H     0.32588   0.76932   0.97019   0.00000  Uiso   1.00
H1000  H     0.30996   0.73134   0.69052   0.00000  Uiso   1.00
H1001  H     0.04944   0.96548   0.86119   0.00000  Uiso   1.00
H1002  H     0.02995   0.69944   0.80271   0.00000  Uiso   1.00
H1003  H     0.47008   0.96542   0.86128   0.00000  Uiso   1.00
H1004  H     0.24250   0.99013   0.69636   0.00000  Uiso   1.00
H1005  H     0.19084   0.69013   0.70497   0.00000  Uiso   1.00
H1006  H     0.14430   0.94248   0.66996   0.00000  Uiso   1.00
H1007  H     0.18502   0.94649   0.94953   0.00000  Uiso   1.00
H1008  H     0.19212   0.90451   0.66872   0.00000  Uiso   1.00
N1009  N     0.23744   0.81881   0.67951   0.00000  Uiso   1.00
N1010  N     0.26255   0.84786   0.98716   0.00000  Uiso   1.00
O1011  O     0.25325   0.76204   0.87326   0.00000  Uiso   1.00
O1012  O     0.26708   0.68731   0.91626   0.00000  Uiso   1.00
O1013  O     0.24674   0.90462   0.79341   0.00000  Uiso   1.00
O1014  O     0.24480   0.75226   0.76945   0.00000  Uiso   1.00
O1015  O     0.25520   0.91441   0.89721   0.00000  Uiso   1.00
O1016  O     0.18935   0.83821   0.88524   0.00000  Uiso   1.00
O1017  O     0.31064   0.82845   0.78143   0.00000  Uiso   1.00
O1018  O     0.18090   0.82843   0.78143   0.00000  Uiso   1.00
O1019  O     0.31910   0.83824   0.88523   0.00000  Uiso   1.00
O1020  O     0.20546   0.97864   0.76746   0.00000  Uiso   1.00
C1021  C     0.74529   0.73316   0.81800   0.00000  Uiso   1.00
C1022  C     0.59034   0.78487   0.82431   0.00000  Uiso   1.00
C1023  C     0.88336   0.83236   0.83104   0.00000  Uiso   1.00
C1024  C     0.61655   0.83287   0.83413   0.00000  Uiso   1.00
C1025  C     0.90250   0.78435   0.81862   0.00000  Uiso   1.00
C1026  C     0.59692   0.88043   0.84117   0.00000  Uiso   1.00
C1027  C     0.94930   0.78410   0.81969   0.00000  Uiso   1.00
C1028  C     0.55034   0.88060   0.84218   0.00000  Uiso   1.00
C1029  C     0.97639   0.83232   0.83152   0.00000  Uiso   1.00
C1030  C     0.52345   0.83242   0.83238   0.00000  Uiso   1.00
C1031  C     0.95653   0.88047   0.84190   0.00000  Uiso   1.00
C1032  C     0.75130   0.93325   0.84905   0.00000  Uiso   1.00
C1033  C     0.54345   0.78435   0.82262   0.00000  Uiso   1.00
C1034  C     0.96971   0.73683   0.80928   0.00000  Uiso   1.00
C1035  C     0.53000   0.92786   0.85245   0.00000  Uiso   1.00
C1036  C     0.70733   0.98764   0.70858   0.00000  Uiso   1.00
C1037  C     0.68049   0.94233   0.99634   0.00000  Uiso   1.00
C1038  C     0.81328   0.68561   0.93182   0.00000  Uiso   1.00
C1039  C     0.82972   0.73204   0.98456   0.00000  Uiso   1.00
C1040  C     0.51604   0.73697   0.81102   0.00000  Uiso   1.00
C1041  C     0.98387   0.92782   0.85258   0.00000  Uiso   1.00
C1042  C     0.73758   0.67659   0.81158   0.00000  Uiso   1.00
C1043  C     0.75378   0.98949   0.85795   0.00000  Uiso   1.00
C1044  C     0.66471   0.83309   0.83369   0.00000  Uiso   1.00
C1045  C     0.83525   0.83272   0.83266   0.00000  Uiso   1.00
C1046  C     0.90982   0.88017   0.84151   0.00000  Uiso   1.00
Cl1047 Cl    0.88356   0.93929   0.85223   0.00000  Uiso   1.00
Cl1048 Cl    0.61701   0.72581   0.81245   0.00000  Uiso   1.00
Cl1049 Cl    0.86716   0.72499   0.80070   0.00000  Uiso   1.00
Cl1050 Cl    0.63095   0.93907   0.84500   0.00000  Uiso   1.00
Cl1051 Cl    0.69601   0.77395   0.96909   0.00000  Uiso   1.00
Cl1052 Cl    0.80346   0.89346   0.69763   0.00000  Uiso   1.00
Cu1053 Cu    0.75500   0.83913   0.89479   0.00000  Uiso   1.00
Cu1054 Cu    0.74499   0.82754   0.77187   0.00000  Uiso   1.00
H1055  H     0.95022   0.69919   0.79992   0.00000  Uiso   1.00
H1056  H     0.83303   0.68866   0.89317   0.00000  Uiso   1.00
H1057  H     0.81947   0.98228   0.94661   0.00000  Uiso   1.00
H1058  H     0.86572   0.73015   0.99887   0.00000  Uiso   1.00
H1059  H     0.82588   0.76932   0.97019   0.00000  Uiso   1.00
H1060  H     0.80996   0.73134   0.69052   0.00000  Uiso   1.00
H1061  H     0.54944   0.96548   0.86119   0.00000  Uiso   1.00
H1062  H     0.52995   0.69944   0.80271   0.00000  Uiso   1.00
H1063  H     0.97008   0.96542   0.86128   0.00000  Uiso   1.00
H1064  H     0.74250   0.99013   0.69636   0.00000  Uiso   1.00
H1065  H     0.69084   0.69013   0.70497   0.00000  Uiso   1.00
H1066  H     0.64430   0.94248   0.66996   0.00000  Uiso   1.00
H1067  H     0.68502   0.94649   0.94953   0.00000  Uiso   1.00
H1068  H     0.69212   0.90451   0.66872   0.00000  Uiso   1.00
N1069  N     0.73744   0.81881   0.67951   0.00000  Uiso   1.00
N1070  N     0.76255   0.84786   0.98716   0.00000  Uiso   1.00
O1071  O     0.75325   0.76204   0.87326   0.00000  Uiso   1.00
O1072  O     0.76708   0.68731   0.91626   0.00000  Uiso   1.00
O1073  O     0.74674   0.90462   0.79341   0.00000  Uiso   1.00
O1074  O     0.74480   0.75226   0.76945   0.00000  Uiso   1.00
O1075  O     0.75520   0.91441   0.89721   0.00000  Uiso   1.00
O1076  O     0.68935   0.83821   0.88524   0.00000  Uiso   1.00
O1077  O     0.81064   0.82845   0.78143   0.00000  Uiso   1.00
O1078  O     0.68090   0.82843   0.78143   0.00000  Uiso   1.00
O1079  O     0.81910   0.83824   0.88523   0.00000  Uiso   1.00
O1080  O     0.70546   0.97864   0.76746   0.00000  Uiso   1.00
loop_
_geom_bond_atom_site_label_1
_geom_bond_atom_site_label_2
_geom_bond_distance
_geom_bond_site_symmetry_2
_ccdc_geom_bond_type
C1     O54     1.304   .     A
C1     O51     1.297   .     A
C1     C22     1.460   .     S
C2     Cl28    1.772   .     S
C2     C4      1.402   .     A
C2     C13     1.404   .     A
C3     C26     1.400   .     A
C3     C25     1.449   .     S
C3     C5      1.402   .     A
C4     C6      1.401   .     A
C4     C24     1.447   .     S
C5     Cl29    1.771   .     S
C5     C7      1.404   .     A
C6     Cl30    1.770   .     S
C6     C8      1.401   .     A
C7     C9      1.416   .     A
C7     C14     1.404   .     A
C8     C15     1.403   .     A
C8     C10     1.416   .     A
C9     C11     1.416   .     A
C9     C70     1.412   .     S
C10    C13     1.416   .     A
C10    C69     1.412   1_455 S
C11    C26     1.402   .     A
C11    C21     1.403   .     A
C12    O53     1.299   .     A
C12    C23     1.441   .     S
C12    O55     1.293   .     A
C13    C20     1.404   .     A
C14    H35     1.081   .     S
C14    C80     1.388   .     S
C15    H41     1.081   .     S
C15    C81     1.386   1_455 S
C16    H44     1.115   .     S
C16    O60     1.406   .     S
C16    C737    1.516   1_554 S
C16    H165    1.110   .     S
C17    H47     1.104   .     S
C17    C376    1.516   .     S
C17    H406    1.111   .     S
C17    H408    1.107   .     S
C18    O52     1.409   .     S
C18    C19     1.519   .     S
C18    H36     1.108   .     S
C18    H277    1.111   1_545 S
C19    H38     1.110   .     S
C19    H39     1.110   .     S
C19    H400    1.109   .     S
C20    H42     1.081   .     S
C20    C74     1.388   1_455 S
C21    H43     1.081   .     S
C21    C75     1.386   .     S
C22    C263    1.352   1_545 S
C22    O300    1.399   1_545 S
C23    C142    1.352   .     S
C23    O172    1.392   .     S
C24    O56     1.301   .     A
C24    O58     1.295   .     A
C25    O57     1.297   .     A
C25    O59     1.300   .     A
C26    Cl27    1.768   .     S
Cl31   N409    1.725   .     S
Cl32   N770    1.726   1_554 S
Cu33   O55     1.966   .     S
Cu33   O51     1.968   .     S
Cu33   O56     1.964   .     S
Cu33   Cu34    2.709   .     S
Cu33   O59     1.956   .     S
Cu33   N50     2.036   .     S
Cu34   O57     1.964   .     S
Cu34   O58     1.956   .     S
Cu34   O54     1.966   .     S
Cu34   O53     1.968   .     S
Cu34   N49     2.036   .     S
H37    C138    1.111   .     S
H40    C739    1.109   1_554 S
H45    C256    1.110   1_545 S
H46    C737    1.111   1_554 S
H48    C737    1.107   1_554 S
N49    Cl751   1.725   1_554 S
N49    N770    1.296   1_554 S
N50    N409    1.296   .     S
N50    Cl392   1.726   .     S
O52    C263    1.392   1_545 S
O60    C142    1.399   .     S
C61    O114    1.304   .     A
C61    O111    1.297   .     A
C61    C82     1.460   .     S
C62    Cl88    1.772   .     S
C62    C64     1.402   .     A
C62    C73     1.404   .     A
C63    C86     1.400   .     A
C63    C85     1.449   .     S
C63    C65     1.402   .     A
C64    C66     1.401   .     A
C64    C84     1.447   .     S
C65    Cl89    1.771   .     S
C65    C67     1.404   .     A
C66    Cl90    1.770   .     S
C66    C68     1.401   .     A
C67    C69     1.416   .     A
C67    C74     1.404   .     A
C68    C75     1.403   .     A
C68    C70     1.416   .     A
C69    C71     1.416   .     A
C69    C10     1.412   1_655 S
C70    C73     1.416   .     A
C71    C86     1.402   .     A
C71    C81     1.403   .     A
C72    O113    1.299   .     A
C72    C83     1.441   .     S
C72    O115    1.293   .     A
C73    C80     1.404   .     A
C74    H95     1.081   .     S
C74    C20     1.388   1_655 S
C75    H101    1.081   .     S
C76    H104    1.115   .     S
C76    O120    1.406   .     S
C76    C797    1.516   1_554 S
C76    H225    1.110   .     S
C77    H107    1.104   .     S
C77    C436    1.516   .     S
C77    H466    1.111   .     S
C77    H468    1.107   .     S
C78    O112    1.409   .     S
C78    C79     1.519   .     S
C78    H96     1.108   .     S
C78    H337    1.111   1_545 S
C79    H98     1.110   .     S
C79    H99     1.110   .     S
C79    H460    1.109   .     S
C80    H102    1.081   .     S
C81    H103    1.081   .     S
C81    C15     1.386   1_655 S
C82    C323    1.352   1_545 S
C82    O360    1.399   1_545 S
C83    C202    1.352   .     S
C83    O232    1.392   .     S
C84    O116    1.301   .     A
C84    O118    1.295   .     A
C85    O117    1.297   .     A
C85    O119    1.300   .     A
C86    Cl87    1.768   .     S
Cl91   N469    1.725   .     S
Cl92   N830    1.726   1_554 S
Cu93   O115    1.966   .     S
Cu93   O111    1.968   .     S
Cu93   O116    1.964   .     S
Cu93   Cu94    2.709   .     S
Cu93   O119    1.956   .     S
Cu93   N110    2.036   .     S
Cu94   O117    1.964   .     S
Cu94   O118    1.956   .     S
Cu94   O114    1.966   .     S
Cu94   O113    1.968   .     S
Cu94   N109    2.036   .     S
H97    C198    1.111   .     S
H100   C799    1.109   1_554 S
H105   C316    1.110   1_545 S
H106   C797    1.111   1_554 S
H108   C797    1.107   1_554 S
N109   Cl811   1.725   1_554 S
N109   N830    1.296   1_554 S
N110   N469    1.296   .     S
N110   Cl452   1.726   .     S
O112   C323    1.392   1_545 S
O120   C202    1.399   .     S
C121   O174    1.304   .     A
C121   O171    1.297   .     A
C121   C142    1.460   .     S
C122   Cl148   1.772   .     S
C122   C124    1.402   .     A
C122   C133    1.404   .     A
C123   C146    1.400   .     A
C123   C145    1.449   .     S
C123   C125    1.402   .     A
C124   C126    1.401   .     A
C124   C144    1.447   .     S
C125   Cl149   1.771   .     S
C125   C127    1.404   .     A
C126   Cl150   1.770   .     S
C126   C128    1.401   .     A
C127   C129    1.416   .     A
C127   C134    1.404   .     A
C128   C135    1.403   .     A
C128   C130    1.416   .     A
C129   C131    1.416   .     A
C129   C190    1.412   .     S
C130   C133    1.416   .     A
C130   C189    1.412   1_455 S
C131   C146    1.402   .     A
C131   C141    1.403   .     A
C132   O173    1.299   .     A
C132   C143    1.441   .     S
C132   O175    1.293   .     A
C133   C140    1.404   .     A
C134   H155    1.081   .     S
C134   C200    1.388   .     S
C135   H161    1.081   .     S
C135   C201    1.386   1_455 S
C136   H164    1.115   .     S
C136   O180    1.406   .     S
C136   C857    1.516   1_554 S
C136   H285    1.110   .     S
C137   H167    1.104   .     S
C137   C496    1.516   .     S
C137   H526    1.111   .     S
C137   H528    1.107   .     S
C138   O172    1.409   .     S
C138   C139    1.519   .     S
C138   H156    1.108   .     S
C139   H158    1.110   .     S
C139   H159    1.110   .     S
C139   H520    1.109   .     S
C140   H162    1.081   .     S
C140   C194    1.388   1_455 S
C141   H163    1.081   .     S
C141   C195    1.386   .     S
C143   C262    1.352   .     S
C143   O292    1.392   .     S
C144   O176    1.301   .     A
C144   O178    1.295   .     A
C145   O177    1.297   .     A
C145   O179    1.300   .     A
C146   Cl147   1.768   .     S
Cl151  N529    1.725   .     S
Cl152  N890    1.726   1_554 S
Cu153  O175    1.966   .     S
Cu153  O171    1.968   .     S
Cu153  O176    1.964   .     S
Cu153  Cu154   2.709   .     S
Cu153  O179    1.956   .     S
Cu153  N170    2.036   .     S
Cu154  O177    1.964   .     S
Cu154  O178    1.956   .     S
Cu154  O174    1.966   .     S
Cu154  O173    1.968   .     S
Cu154  N169    2.036   .     S
H157   C258    1.111   .     S
H160   C859    1.109   1_554 S
H166   C857    1.111   1_554 S
H168   C857    1.107   1_554 S
N169   Cl871   1.725   1_554 S
N169   N890    1.296   1_554 S
N170   N529    1.296   .     S
N170   Cl512   1.726   .     S
O180   C262    1.399   .     S
C181   O234    1.304   .     A
C181   O231    1.297   .     A
C181   C202    1.460   .     S
C182   Cl208   1.772   .     S
C182   C184    1.402   .     A
C182   C193    1.404   .     A
C183   C206    1.400   .     A
C183   C205    1.449   .     S
C183   C185    1.402   .     A
C184   C186    1.401   .     A
C184   C204    1.447   .     S
C185   Cl209   1.771   .     S
C185   C187    1.404   .     A
C186   Cl210   1.770   .     S
C186   C188    1.401   .     A
C187   C189    1.416   .     A
C187   C194    1.404   .     A
C188   C195    1.403   .     A
C188   C190    1.416   .     A
C189   C191    1.416   .     A
C189   C130    1.412   1_655 S
C190   C193    1.416   .     A
C191   C206    1.402   .     A
C191   C201    1.403   .     A
C192   O233    1.299   .     A
C192   C203    1.441   .     S
C192   O235    1.293   .     A
C193   C200    1.404   .     A
C194   H215    1.081   .     S
C194   C140    1.388   1_655 S
C195   H221    1.081   .     S
C196   H224    1.115   .     S
C196   O240    1.406   .     S
C196   C917    1.516   1_554 S
C196   H345    1.110   .     S
C197   H227    1.104   .     S
C197   C556    1.516   .     S
C197   H586    1.111   .     S
C197   H588    1.107   .     S
C198   O232    1.409   .     S
C198   C199    1.519   .     S
C198   H216    1.108   .     S
C199   H218    1.110   .     S
C199   H219    1.110   .     S
C199   H580    1.109   .     S
C200   H222    1.081   .     S
C201   H223    1.081   .     S
C201   C135    1.386   1_655 S
C203   C322    1.352   .     S
C203   O352    1.392   .     S
C204   O236    1.301   .     A
C204   O238    1.295   .     A
C205   O237    1.297   .     A
C205   O239    1.300   .     A
C206   Cl207   1.768   .     S
Cl211  N589    1.725   .     S
Cl212  N950    1.726   1_554 S
Cu213  O235    1.966   .     S
Cu213  O231    1.968   .     S
Cu213  O236    1.964   .     S
Cu213  Cu214   2.709   .     S
Cu213  O239    1.956   .     S
Cu213  N230    2.036   .     S
Cu214  O237    1.964   .     S
Cu214  O238    1.956   .     S
Cu214  O234    1.966   .     S
Cu214  O233    1.968   .     S
Cu214  N229    2.036   .     S
H217   C318    1.111   .     S
H220   C919    1.109   1_554 S
H226   C917    1.111   1_554 S
H228   C917    1.107   1_554 S
N229   Cl931   1.725   1_554 S
N229   N950    1.296   1_554 S
N230   N589    1.296   .     S
N230   Cl572   1.726   .     S
O240   C322    1.399   .     S
C241   O294    1.304   .     A
C241   O291    1.297   .     A
C241   C262    1.460   .     S
C242   Cl268   1.772   .     S
C242   C244    1.402   .     A
C242   C253    1.404   .     A
C243   C266    1.400   .     A
C243   C265    1.449   .     S
C243   C245    1.402   .     A
C244   C246    1.401   .     A
C244   C264    1.447   .     S
C245   Cl269   1.771   .     S
C245   C247    1.404   .     A
C246   Cl270   1.770   .     S
C246   C248    1.401   .     A
C247   C249    1.416   .     A
C247   C254    1.404   .     A
C248   C255    1.403   .     A
C248   C250    1.416   .     A
C249   C251    1.416   .     A
C249   C310    1.412   .     S
C250   C253    1.416   .     A
C250   C309    1.412   1_455 S
C251   C266    1.402   .     A
C251   C261    1.403   .     A
C252   O293    1.299   .     A
C252   C263    1.441   .     S
C252   O295    1.293   .     A
C253   C260    1.404   .     A
C254   H275    1.081   .     S
C254   C320    1.388   .     S
C255   H281    1.081   .     S
C255   C321    1.386   1_455 S
C256   H284    1.115   .     S
C256   O300    1.406   .     S
C256   C977    1.516   1_554 S
C256   H45     1.110   1_565 S
C257   H287    1.104   .     S
C257   C616    1.516   .     S
C257   H646    1.111   .     S
C257   H648    1.107   .     S
C258   O292    1.409   .     S
C258   C259    1.519   .     S
C258   H276    1.108   .     S
C259   H278    1.110   .     S
C259   H279    1.110   .     S
C259   H640    1.109   .     S
C260   H282    1.081   .     S
C260   C314    1.388   1_455 S
C261   H283    1.081   .     S
C261   C315    1.386   .     S
C263   C22     1.352   1_565 S
C263   O52     1.392   1_565 S
C264   O296    1.301   .     A
C264   O298    1.295   .     A
C265   O297    1.297   .     A
C265   O299    1.300   .     A
C266   Cl267   1.768   .     S
Cl271  N649    1.725   .     S
Cl272  N1010   1.726   1_554 S
Cu273  O295    1.966   .     S
Cu273  O291    1.968   .     S
Cu273  O296    1.964   .     S
Cu273  Cu274   2.709   .     S
Cu273  O299    1.956   .     S
Cu273  N290    2.036   .     S
Cu274  O297    1.964   .     S
Cu274  O298    1.956   .     S
Cu274  O294    1.966   .     S
Cu274  O293    1.968   .     S
Cu274  N289    2.036   .     S
H277   C18     1.111   1_565 S
H280   C979    1.109   1_554 S
H286   C977    1.111   1_554 S
H288   C977    1.107   1_554 S
N289   Cl991   1.725   1_554 S
N289   N1010   1.296   1_554 S
N290   N649    1.296   .     S
N290   Cl632   1.726   .     S
O300   C22     1.399   1_565 S
C301   O354    1.304   .     A
C301   O351    1.297   .     A
C301   C322    1.460   .     S
C302   Cl328   1.772   .     S
C302   C304    1.402   .     A
C302   C313    1.404   .     A
C303   C326    1.400   .     A
C303   C325    1.449   .     S
C303   C305    1.402   .     A
C304   C306    1.401   .     A
C304   C324    1.447   .     S
C305   Cl329   1.771   .     S
C305   C307    1.404   .     A
C306   Cl330   1.770   .     S
C306   C308    1.401   .     A
C307   C309    1.416   .     A
C307   C314    1.404   .     A
C308   C315    1.403   .     A
C308   C310    1.416   .     A
C309   C311    1.416   .     A
C309   C250    1.412   1_655 S
C310   C313    1.416   .     A
C311   C326    1.402   .     A
C311   C321    1.403   .     A
C312   O353    1.299   .     A
C312   C323    1.441   .     S
C312   O355    1.293   .     A
C313   C320    1.404   .     A
C314   H335    1.081   .     S
C314   C260    1.388   1_655 S
C315   H341    1.081   .     S
C316   H344    1.115   .     S
C316   O360    1.406   .     S
C316   C1037   1.516   1_554 S
C316   H105    1.110   1_565 S
C317   H347    1.104   .     S
C317   C676    1.516   .     S
C317   H706    1.111   .     S
C317   H708    1.107   .     S
C318   O352    1.409   .     S
C318   C319    1.519   .     S
C318   H336    1.108   .     S
C319   H338    1.110   .     S
C319   H339    1.110   .     S
C319   H700    1.109   .     S
C320   H342    1.081   .     S
C321   H343    1.081   .     S
C321   C255    1.386   1_655 S
C323   C82     1.352   1_565 S
C323   O112    1.392   1_565 S
C324   O356    1.301   .     A
C324   O358    1.295   .     A
C325   O357    1.297   .     A
C325   O359    1.300   .     A
C326   Cl327   1.768   .     S
Cl331  N709    1.725   .     S
Cl332  N1070   1.726   1_554 S
Cu333  O355    1.966   .     S
Cu333  O351    1.968   .     S
Cu333  O356    1.964   .     S
Cu333  Cu334   2.709   .     S
Cu333  O359    1.956   .     S
Cu333  N350    2.036   .     S
Cu334  O357    1.964   .     S
Cu334  O358    1.956   .     S
Cu334  O354    1.966   .     S
Cu334  O353    1.968   .     S
Cu334  N349    2.036   .     S
H337   C78     1.111   1_565 S
H340   C1039   1.109   1_554 S
H346   C1037   1.111   1_554 S
H348   C1037   1.107   1_554 S
N349   Cl1051  1.725   1_554 S
N349   N1070   1.296   1_554 S
N350   N709    1.296   .     S
N350   Cl692   1.726   .     S
O360   C82     1.399   1_565 S
C361   O414    1.304   .     A
C361   O411    1.297   .     A
C361   C382    1.460   .     S
C362   Cl388   1.772   .     S
C362   C364    1.402   .     A
C362   C373    1.404   .     A
C363   C386    1.400   .     A
C363   C385    1.449   .     S
C363   C365    1.402   .     A
C364   C366    1.401   .     A
C364   C384    1.447   .     S
C365   Cl389   1.771   .     S
C365   C367    1.404   .     A
C366   Cl390   1.770   .     S
C366   C368    1.401   .     A
C367   C369    1.416   .     A
C367   C374    1.404   .     A
C368   C375    1.403   .     A
C368   C370    1.416   .     A
C369   C371    1.416   .     A
C369   C430    1.412   .     S
C370   C373    1.416   .     A
C370   C429    1.412   1_455 S
C371   C386    1.402   .     A
C371   C381    1.403   .     A
C372   O413    1.299   .     A
C372   C383    1.441   .     S
C372   O415    1.293   .     A
C373   C380    1.404   .     A
C374   H395    1.081   .     S
C374   C440    1.388   .     S
C375   H401    1.081   .     S
C375   C441    1.386   1_455 S
C376   H404    1.115   .     S
C376   O420    1.406   .     S
C376   H525    1.110   .     S
C377   H407    1.104   .     S
C377   C736    1.516   .     S
C377   H766    1.111   .     S
C377   H768    1.107   .     S
C378   O412    1.409   .     S
C378   C379    1.519   .     S
C378   H396    1.108   .     S
C378   H637    1.111   1_545 S
C379   H398    1.110   .     S
C379   H399    1.110   .     S
C379   H760    1.109   .     S
C380   H402    1.081   .     S
C380   C434    1.388   1_455 S
C381   H403    1.081   .     S
C381   C435    1.386   .     S
C382   C623    1.352   1_545 S
C382   O660    1.399   1_545 S
C383   C502    1.352   .     S
C383   O532    1.392   .     S
C384   O416    1.301   .     A
C384   O418    1.295   .     A
C385   O417    1.297   .     A
C385   O419    1.300   .     A
C386   Cl387   1.768   .     S
Cl391  N769    1.725   .     S
Cu393  O415    1.966   .     S
Cu393  O411    1.968   .     S
Cu393  O416    1.964   .     S
Cu393  Cu394   2.709   .     S
Cu393  O419    1.956   .     S
Cu393  N410    2.036   .     S
Cu394  O417    1.964   .     S
Cu394  O418    1.956   .     S
Cu394  O414    1.966   .     S
Cu394  O413    1.968   .     S
Cu394  N409    2.036   .     S
H397   C498    1.111   .     S
H405   C616    1.110   1_545 S
N410   N769    1.296   .     S
N410   Cl752   1.726   .     S
O412   C623    1.392   1_545 S
O420   C502    1.399   .     S
C421   O474    1.304   .     A
C421   O471    1.297   .     A
C421   C442    1.460   .     S
C422   Cl448   1.772   .     S
C422   C424    1.402   .     A
C422   C433    1.404   .     A
C423   C446    1.400   .     A
C423   C445    1.449   .     S
C423   C425    1.402   .     A
C424   C426    1.401   .     A
C424   C444    1.447   .     S
C425   Cl449   1.771   .     S
C425   C427    1.404   .     A
C426   Cl450   1.770   .     S
C426   C428    1.401   .     A
C427   C429    1.416   .     A
C427   C434    1.404   .     A
C428   C435    1.403   .     A
C428   C430    1.416   .     A
C429   C431    1.416   .     A
C429   C370    1.412   1_655 S
C430   C433    1.416   .     A
C431   C446    1.402   .     A
C431   C441    1.403   .     A
C432   O473    1.299   .     A
C432   C443    1.441   .     S
C432   O475    1.293   .     A
C433   C440    1.404   .     A
C434   H455    1.081   .     S
C434   C380    1.388   1_655 S
C435   H461    1.081   .     S
C436   H464    1.115   .     S
C436   O480    1.406   .     S
C436   H585    1.110   .     S
C437   H467    1.104   .     S
C437   C796    1.516   .     S
C437   H826    1.111   .     S
C437   H828    1.107   .     S
C438   O472    1.409   .     S
C438   C439    1.519   .     S
C438   H456    1.108   .     S
C438   H697    1.111   1_545 S
C439   H458    1.110   .     S
C439   H459    1.110   .     S
C439   H820    1.109   .     S
C440   H462    1.081   .     S
C441   H463    1.081   .     S
C441   C375    1.386   1_655 S
C442   C683    1.352   1_545 S
C442   O720    1.399   1_545 S
C443   C562    1.352   .     S
C443   O592    1.392   .     S
C444   O476    1.301   .     A
C444   O478    1.295   .     A
C445   O477    1.297   .     A
C445   O479    1.300   .     A
C446   Cl447   1.768   .     S
Cl451  N829    1.725   .     S
Cu453  O475    1.966   .     S
Cu453  O471    1.968   .     S
Cu453  O476    1.964   .     S
Cu453  Cu454   2.709   .     S
Cu453  O479    1.956   .     S
Cu453  N470    2.036   .     S
Cu454  O477    1.964   .     S
Cu454  O478    1.956   .     S
Cu454  O474    1.966   .     S
Cu454  O473    1.968   .     S
Cu454  N469    2.036   .     S
H457   C558    1.111   .     S
H465   C676    1.110   1_545 S
N470   N829    1.296   .     S
N470   Cl812   1.726   .     S
O472   C683    1.392   1_545 S
O480   C562    1.399   .     S
C481   O534    1.304   .     A
C481   O531    1.297   .     A
C481   C502    1.460   .     S
C482   Cl508   1.772   .     S
C482   C484    1.402   .     A
C482   C493    1.404   .     A
C483   C506    1.400   .     A
C483   C505    1.449   .     S
C483   C485    1.402   .     A
C484   C486    1.401   .     A
C484   C504    1.447   .     S
C485   Cl509   1.771   .     S
C485   C487    1.404   .     A
C486   Cl510   1.770   .     S
C486   C488    1.401   .     A
C487   C489    1.416   .     A
C487   C494    1.404   .     A
C488   C495    1.403   .     A
C488   C490    1.416   .     A
C489   C491    1.416   .     A
C489   C550    1.412   .     S
C490   C493    1.416   .     A
C490   C549    1.412   1_455 S
C491   C506    1.402   .     A
C491   C501    1.403   .     A
C492   O533    1.299   .     A
C492   C503    1.441   .     S
C492   O535    1.293   .     A
C493   C500    1.404   .     A
C494   H515    1.081   .     S
C494   C560    1.388   .     S
C495   H521    1.081   .     S
C495   C561    1.386   1_455 S
C496   H524    1.115   .     S
C496   O540    1.406   .     S
C496   H645    1.110   .     S
C497   H527    1.104   .     S
C497   C856    1.516   .     S
C497   H886    1.111   .     S
C497   H888    1.107   .     S
C498   O532    1.409   .     S
C498   C499    1.519   .     S
C498   H516    1.108   .     S
C499   H518    1.110   .     S
C499   H519    1.110   .     S
C499   H880    1.109   .     S
C500   H522    1.081   .     S
C500   C554    1.388   1_455 S
C501   H523    1.081   .     S
C501   C555    1.386   .     S
C503   C622    1.352   .     S
C503   O652    1.392   .     S
C504   O536    1.301   .     A
C504   O538    1.295   .     A
C505   O537    1.297   .     A
C505   O539    1.300   .     A
C506   Cl507   1.768   .     S
Cl511  N889    1.725   .     S
Cu513  O535    1.966   .     S
Cu513  O531    1.968   .     S
Cu513  O536    1.964   .     S
Cu513  Cu514   2.709   .     S
Cu513  O539    1.956   .     S
Cu513  N530    2.036   .     S
Cu514  O537    1.964   .     S
Cu514  O538    1.956   .     S
Cu514  O534    1.966   .     S
Cu514  O533    1.968   .     S
Cu514  N529    2.036   .     S
H517   C618    1.111   .     S
N530   N889    1.296   .     S
N530   Cl872   1.726   .     S
O540   C622    1.399   .     S
C541   O594    1.304   .     A
C541   O591    1.297   .     A
C541   C562    1.460   .     S
C542   Cl568   1.772   .     S
C542   C544    1.402   .     A
C542   C553    1.404   .     A
C543   C566    1.400   .     A
C543   C565    1.449   .     S
C543   C545    1.402   .     A
C544   C546    1.401   .     A
C544   C564    1.447   .     S
C545   Cl569   1.771   .     S
C545   C547    1.404   .     A
C546   Cl570   1.770   .     S
C546   C548    1.401   .     A
C547   C549    1.416   .     A
C547   C554    1.404   .     A
C548   C555    1.403   .     A
C548   C550    1.416   .     A
C549   C551    1.416   .     A
C549   C490    1.412   1_655 S
C550   C553    1.416   .     A
C551   C566    1.402   .     A
C551   C561    1.403   .     A
C552   O593    1.299   .     A
C552   C563    1.441   .     S
C552   O595    1.293   .     A
C553   C560    1.404   .     A
C554   H575    1.081   .     S
C554   C500    1.388   1_655 S
C555   H581    1.081   .     S
C556   H584    1.115   .     S
C556   O600    1.406   .     S
C556   H705    1.110   .     S
C557   H587    1.104   .     S
C557   C916    1.516   .     S
C557   H946    1.111   .     S
C557   H948    1.107   .     S
C558   O592    1.409   .     S
C558   C559    1.519   .     S
C558   H576    1.108   .     S
C559   H578    1.110   .     S
C559   H579    1.110   .     S
C559   H940    1.109   .     S
C560   H582    1.081   .     S
C561   H583    1.081   .     S
C561   C495    1.386   1_655 S
C563   C682    1.352   .     S
C563   O712    1.392   .     S
C564   O596    1.301   .     A
C564   O598    1.295   .     A
C565   O597    1.297   .     A
C565   O599    1.300   .     A
C566   Cl567   1.768   .     S
Cl571  N949    1.725   .     S
Cu573  O595    1.966   .     S
Cu573  O591    1.968   .     S
Cu573  O596    1.964   .     S
Cu573  Cu574   2.709   .     S
Cu573  O599    1.956   .     S
Cu573  N590    2.036   .     S
Cu574  O597    1.964   .     S
Cu574  O598    1.956   .     S
Cu574  O594    1.966   .     S
Cu574  O593    1.968   .     S
Cu574  N589    2.036   .     S
H577   C678    1.111   .     S
N590   N949    1.296   .     S
N590   Cl932   1.726   .     S
O600   C682    1.399   .     S
C601   O654    1.304   .     A
C601   O651    1.297   .     A
C601   C622    1.460   .     S
C602   Cl628   1.772   .     S
C602   C604    1.402   .     A
C602   C613    1.404   .     A
C603   C626    1.400   .     A
C603   C625    1.449   .     S
C603   C605    1.402   .     A
C604   C606    1.401   .     A
C604   C624    1.447   .     S
C605   Cl629   1.771   .     S
C605   C607    1.404   .     A
C606   Cl630   1.770   .     S
C606   C608    1.401   .     A
C607   C609    1.416   .     A
C607   C614    1.404   .     A
C608   C615    1.403   .     A
C608   C610    1.416   .     A
C609   C611    1.416   .     A
C609   C670    1.412   .     S
C610   C613    1.416   .     A
C610   C669    1.412   1_455 S
C611   C626    1.402   .     A
C611   C621    1.403   .     A
C612   O653    1.299   .     A
C612   C623    1.441   .     S
C612   O655    1.293   .     A
C613   C620    1.404   .     A
C614   H635    1.081   .     S
C614   C680    1.388   .     S
C615   H641    1.081   .     S
C615   C681    1.386   1_455 S
C616   H644    1.115   .     S
C616   O660    1.406   .     S
C616   H405    1.110   1_565 S
C617   H647    1.104   .     S
C617   C976    1.516   .     S
C617   H1006   1.111   .     S
C617   H1008   1.107   .     S
C618   O652    1.409   .     S
C618   C619    1.519   .     S
C618   H636    1.108   .     S
C619   H638    1.110   .     S
C619   H639    1.110   .     S
C619   H1000   1.109   .     S
C620   H642    1.081   .     S
C620   C674    1.388   1_455 S
C621   H643    1.081   .     S
C621   C675    1.386   .     S
C623   C382    1.352   1_565 S
C623   O412    1.392   1_565 S
C624   O656    1.301   .     A
C624   O658    1.295   .     A
C625   O657    1.297   .     A
C625   O659    1.300   .     A
C626   Cl627   1.768   .     S
Cl631  N1009   1.725   .     S
Cu633  O655    1.966   .     S
Cu633  O651    1.968   .     S
Cu633  O656    1.964   .     S
Cu633  Cu634   2.709   .     S
Cu633  O659    1.956   .     S
Cu633  N650    2.036   .     S
Cu634  O657    1.964   .     S
Cu634  O658    1.956   .     S
Cu634  O654    1.966   .     S
Cu634  O653    1.968   .     S
Cu634  N649    2.036   .     S
H637   C378    1.111   1_565 S
N650   N1009   1.296   .     S
N650   Cl992   1.726   .     S
O660   C382    1.399   1_565 S
C661   O714    1.304   .     A
C661   O711    1.297   .     A
C661   C682    1.460   .     S
C662   Cl688   1.772   .     S
C662   C664    1.402   .     A
C662   C673    1.404   .     A
C663   C686    1.400   .     A
C663   C685    1.449   .     S
C663   C665    1.402   .     A
C664   C666    1.401   .     A
C664   C684    1.447   .     S
C665   Cl689   1.771   .     S
C665   C667    1.404   .     A
C666   Cl690   1.770   .     S
C666   C668    1.401   .     A
C667   C669    1.416   .     A
C667   C674    1.404   .     A
C668   C675    1.403   .     A
C668   C670    1.416   .     A
C669   C671    1.416   .     A
C669   C610    1.412   1_655 S
C670   C673    1.416   .     A
C671   C686    1.402   .     A
C671   C681    1.403   .     A
C672   O713    1.299   .     A
C672   C683    1.441   .     S
C672   O715    1.293   .     A
C673   C680    1.404   .     A
C674   H695    1.081   .     S
C674   C620    1.388   1_655 S
C675   H701    1.081   .     S
C676   H704    1.115   .     S
C676   O720    1.406   .     S
C676   H465    1.110   1_565 S
C677   H707    1.104   .     S
C677   C1036   1.516   .     S
C677   H1066   1.111   .     S
C677   H1068   1.107   .     S
C678   O712    1.409   .     S
C678   C679    1.519   .     S
C678   H696    1.108   .     S
C679   H698    1.110   .     S
C679   H699    1.110   .     S
C679   H1060   1.109   .     S
C680   H702    1.081   .     S
C681   H703    1.081   .     S
C681   C615    1.386   1_655 S
C683   C442    1.352   1_565 S
C683   O472    1.392   1_565 S
C684   O716    1.301   .     A
C684   O718    1.295   .     A
C685   O717    1.297   .     A
C685   O719    1.300   .     A
C686   Cl687   1.768   .     S
Cl691  N1069   1.725   .     S
Cu693  O715    1.966   .     S
Cu693  O711    1.968   .     S
Cu693  O716    1.964   .     S
Cu693  Cu694   2.709   .     S
Cu693  O719    1.956   .     S
Cu693  N710    2.036   .     S
Cu694  O717    1.964   .     S
Cu694  O718    1.956   .     S
Cu694  O714    1.966   .     S
Cu694  O713    1.968   .     S
Cu694  N709    2.036   .     S
H697   C438    1.111   1_565 S
N710   N1069   1.296   .     S
N710   Cl1052  1.726   .     S
O720   C442    1.399   1_565 S
C721   O774    1.304   .     A
C721   O771    1.297   .     A
C721   C742    1.460   .     S
C722   Cl748   1.772   .     S
C722   C724    1.402   .     A
C722   C733    1.404   .     A
C723   C746    1.400   .     A
C723   C745    1.449   .     S
C723   C725    1.402   .     A
C724   C726    1.401   .     A
C724   C744    1.447   .     S
C725   Cl749   1.771   .     S
C725   C727    1.404   .     A
C726   Cl750   1.770   .     S
C726   C728    1.401   .     A
C727   C729    1.416   .     A
C727   C734    1.404   .     A
C728   C735    1.403   .     A
C728   C730    1.416   .     A
C729   C731    1.416   .     A
C729   C790    1.412   .     S
C730   C733    1.416   .     A
C730   C789    1.412   1_455 S
C731   C746    1.402   .     A
C731   C741    1.403   .     A
C732   O773    1.299   .     A
C732   C743    1.441   .     S
C732   O775    1.293   .     A
C733   C740    1.404   .     A
C734   H755    1.081   .     S
C734   C800    1.388   .     S
C735   H761    1.081   .     S
C735   C801    1.386   1_455 S
C736   H764    1.115   .     S
C736   O780    1.406   .     S
C736   H885    1.110   .     S
C737   H767    1.104   .     S
C737   C16     1.516   1_556 S
C737   H46     1.111   1_556 S
C737   H48     1.107   1_556 S
C738   O772    1.409   .     S
C738   C739    1.519   .     S
C738   H756    1.108   .     S
C738   H997    1.111   1_545 S
C739   H758    1.110   .     S
C739   H759    1.110   .     S
C739   H40     1.109   1_556 S
C740   H762    1.081   .     S
C740   C794    1.388   1_455 S
C741   H763    1.081   .     S
C741   C795    1.386   .     S
C742   C983    1.352   1_545 S
C742   O1020   1.399   1_545 S
C743   C862    1.352   .     S
C743   O892    1.392   .     S
C744   O776    1.301   .     A
C744   O778    1.295   .     A
C745   O777    1.297   .     A
C745   O779    1.300   .     A
C746   Cl747   1.768   .     S
Cl751  N49     1.725   1_556 S
Cu753  O775    1.966   .     S
Cu753  O771    1.968   .     S
Cu753  O776    1.964   .     S
Cu753  Cu754   2.709   .     S
Cu753  O779    1.956   .     S
Cu753  N770    2.036   .     S
Cu754  O777    1.964   .     S
Cu754  O778    1.956   .     S
Cu754  O774    1.966   .     S
Cu754  O773    1.968   .     S
Cu754  N769    2.036   .     S
H757   C858    1.111   .     S
H765   C976    1.110   1_545 S
N770   N49     1.296   1_556 S
N770   Cl32    1.726   1_556 S
O772   C983    1.392   1_545 S
O780   C862    1.399   .     S
C781   O834    1.304   .     A
C781   O831    1.297   .     A
C781   C802    1.460   .     S
C782   Cl808   1.772   .     S
C782   C784    1.402   .     A
C782   C793    1.404   .     A
C783   C806    1.400   .     A
C783   C805    1.449   .     S
C783   C785    1.402   .     A
C784   C786    1.401   .     A
C784   C804    1.447   .     S
C785   Cl809   1.771   .     S
C785   C787    1.404   .     A
C786   Cl810   1.770   .     S
C786   C788    1.401   .     A
C787   C789    1.416   .     A
C787   C794    1.404   .     A
C788   C795    1.403   .     A
C788   C790    1.416   .     A
C789   C791    1.416   .     A
C789   C730    1.412   1_655 S
C790   C793    1.416   .     A
C791   C806    1.402   .     A
C791   C801    1.403   .     A
C792   O833    1.299   .     A
C792   C803    1.441   .     S
C792   O835    1.293   .     A
C793   C800    1.404   .     A
C794   H815    1.081   .     S
C794   C740    1.388   1_655 S
C795   H821    1.081   .     S
C796   H824    1.115   .     S
C796   O840    1.406   .     S
C796   H945    1.110   .     S
C797   H827    1.104   .     S
C797   C76     1.516   1_556 S
C797   H106    1.111   1_556 S
C797   H108    1.107   1_556 S
C798   O832    1.409   .     S
C798   C799    1.519   .     S
C798   H816    1.108   .     S
C798   H1057   1.111   1_545 S
C799   H818    1.110   .     S
C799   H819    1.110   .     S
C799   H100    1.109   1_556 S
C800   H822    1.081   .     S
C801   H823    1.081   .     S
C801   C735    1.386   1_655 S
C802   C1043   1.352   1_545 S
C802   O1080   1.399   1_545 S
C803   C922    1.352   .     S
C803   O952    1.392   .     S
C804   O836    1.301   .     A
C804   O838    1.295   .     A
C805   O837    1.297   .     A
C805   O839    1.300   .     A
C806   Cl807   1.768   .     S
Cl811  N109    1.725   1_556 S
Cu813  O835    1.966   .     S
Cu813  O831    1.968   .     S
Cu813  O836    1.964   .     S
Cu813  Cu814   2.709   .     S
Cu813  O839    1.956   .     S
Cu813  N830    2.036   .     S
Cu814  O837    1.964   .     S
Cu814  O838    1.956   .     S
Cu814  O834    1.966   .     S
Cu814  O833    1.968   .     S
Cu814  N829    2.036   .     S
H817   C918    1.111   .     S
H825   C1036   1.110   1_545 S
N830   N109    1.296   1_556 S
N830   Cl92    1.726   1_556 S
O832   C1043   1.392   1_545 S
O840   C922    1.399   .     S
C841   O894    1.304   .     A
C841   O891    1.297   .     A
C841   C862    1.460   .     S
C842   Cl868   1.772   .     S
C842   C844    1.402   .     A
C842   C853    1.404   .     A
C843   C866    1.400   .     A
C843   C865    1.449   .     S
C843   C845    1.402   .     A
C844   C846    1.401   .     A
C844   C864    1.447   .     S
C845   Cl869   1.771   .     S
C845   C847    1.404   .     A
C846   Cl870   1.770   .     S
C846   C848    1.401   .     A
C847   C849    1.416   .     A
C847   C854    1.404   .     A
C848   C855    1.403   .     A
C848   C850    1.416   .     A
C849   C851    1.416   .     A
C849   C910    1.412   .     S
C850   C853    1.416   .     A
C850   C909    1.412   1_455 S
C851   C866    1.402   .     A
C851   C861    1.403   .     A
C852   O893    1.299   .     A
C852   C863    1.441   .     S
C852   O895    1.293   .     A
C853   C860    1.404   .     A
C854   H875    1.081   .     S
C854   C920    1.388   .     S
C855   H881    1.081   .     S
C855   C921    1.386   1_455 S
C856   H884    1.115   .     S
C856   O900    1.406   .     S
C856   H1005   1.110   .     S
C857   H887    1.104   .     S
C857   C136    1.516   1_556 S
C857   H166    1.111   1_556 S
C857   H168    1.107   1_556 S
C858   O892    1.409   .     S
C858   C859    1.519   .     S
C858   H876    1.108   .     S
C859   H878    1.110   .     S
C859   H879    1.110   .     S
C859   H160    1.109   1_556 S
C860   H882    1.081   .     S
C860   C914    1.388   1_455 S
C861   H883    1.081   .     S
C861   C915    1.386   .     S
C863   C982    1.352   .     S
C863   O1012   1.392   .     S
C864   O896    1.301   .     A
C864   O898    1.295   .     A
C865   O897    1.297   .     A
C865   O899    1.300   .     A
C866   Cl867   1.768   .     S
Cl871  N169    1.725   1_556 S
Cu873  O895    1.966   .     S
Cu873  O891    1.968   .     S
Cu873  O896    1.964   .     S
Cu873  Cu874   2.709   .     S
Cu873  O899    1.956   .     S
Cu873  N890    2.036   .     S
Cu874  O897    1.964   .     S
Cu874  O898    1.956   .     S
Cu874  O894    1.966   .     S
Cu874  O893    1.968   .     S
Cu874  N889    2.036   .     S
H877   C978    1.111   .     S
N890   N169    1.296   1_556 S
N890   Cl152   1.726   1_556 S
O900   C982    1.399   .     S
C901   O954    1.304   .     A
C901   O951    1.297   .     A
C901   C922    1.460   .     S
C902   Cl928   1.772   .     S
C902   C904    1.402   .     A
C902   C913    1.404   .     A
C903   C926    1.400   .     A
C903   C925    1.449   .     S
C903   C905    1.402   .     A
C904   C906    1.401   .     A
C904   C924    1.447   .     S
C905   Cl929   1.771   .     S
C905   C907    1.404   .     A
C906   Cl930   1.770   .     S
C906   C908    1.401   .     A
C907   C909    1.416   .     A
C907   C914    1.404   .     A
C908   C915    1.403   .     A
C908   C910    1.416   .     A
C909   C911    1.416   .     A
C909   C850    1.412   1_655 S
C910   C913    1.416   .     A
C911   C926    1.402   .     A
C911   C921    1.403   .     A
C912   O953    1.299   .     A
C912   C923    1.441   .     S
C912   O955    1.293   .     A
C913   C920    1.404   .     A
C914   H935    1.081   .     S
C914   C860    1.388   1_655 S
C915   H941    1.081   .     S
C916   H944    1.115   .     S
C916   O960    1.406   .     S
C916   H1065   1.110   .     S
C917   H947    1.104   .     S
C917   C196    1.516   1_556 S
C917   H226    1.111   1_556 S
C917   H228    1.107   1_556 S
C918   O952    1.409   .     S
C918   C919    1.519   .     S
C918   H936    1.108   .     S
C919   H938    1.110   .     S
C919   H939    1.110   .     S
C919   H220    1.109   1_556 S
C920   H942    1.081   .     S
C921   H943    1.081   .     S
C921   C855    1.386   1_655 S
C923   C1042   1.352   .     S
C923   O1072   1.392   .     S
C924   O956    1.301   .     A
C924   O958    1.295   .     A
C925   O957    1.297   .     A
C925   O959    1.300   .     A
C926   Cl927   1.768   .     S
Cl931  N229    1.725   1_556 S
Cu933  O955    1.966   .     S
Cu933  O951    1.968   .     S
Cu933  O956    1.964   .     S
Cu933  Cu934   2.709   .     S
Cu933  O959    1.956   .     S
Cu933  N950    2.036   .     S
Cu934  O957    1.964   .     S
Cu934  O958    1.956   .     S
Cu934  O954    1.966   .     S
Cu934  O953    1.968   .     S
Cu934  N949    2.036   .     S
H937   C1038   1.111   .     S
N950   N229    1.296   1_556 S
N950   Cl212   1.726   1_556 S
O960   C1042   1.399   .     S
C961   O1014   1.304   .     A
C961   O1011   1.297   .     A
C961   C982    1.460   .     S
C962   Cl988   1.772   .     S
C962   C964    1.402   .     A
C962   C973    1.404   .     A
C963   C986    1.400   .     A
C963   C985    1.449   .     S
C963   C965    1.402   .     A
C964   C966    1.401   .     A
C964   C984    1.447   .     S
C965   Cl989   1.771   .     S
C965   C967    1.404   .     A
C966   Cl990   1.770   .     S
C966   C968    1.401   .     A
C967   C969    1.416   .     A
C967   C974    1.404   .     A
C968   C975    1.403   .     A
C968   C970    1.416   .     A
C969   C971    1.416   .     A
C969   C1030   1.412   .     S
C970   C973    1.416   .     A
C970   C1029   1.412   1_455 S
C971   C986    1.402   .     A
C971   C981    1.403   .     A
C972   O1013   1.299   .     A
C972   C983    1.441   .     S
C972   O1015   1.293   .     A
C973   C980    1.404   .     A
C974   H995    1.081   .     S
C974   C1040   1.388   .     S
C975   H1001   1.081   .     S
C975   C1041   1.386   1_455 S
C976   H1004   1.115   .     S
C976   O1020   1.406   .     S
C976   H765    1.110   1_565 S
C977   H1007   1.104   .     S
C977   C256    1.516   1_556 S
C977   H286    1.111   1_556 S
C977   H288    1.107   1_556 S
C978   O1012   1.409   .     S
C978   C979    1.519   .     S
C978   H996    1.108   .     S
C979   H998    1.110   .     S
C979   H999    1.110   .     S
C979   H280    1.109   1_556 S
C980   H1002   1.081   .     S
C980   C1034   1.388   1_455 S
C981   H1003   1.081   .     S
C981   C1035   1.386   .     S
C983   C742    1.352   1_565 S
C983   O772    1.392   1_565 S
C984   O1016   1.301   .     A
C984   O1018   1.295   .     A
C985   O1017   1.297   .     A
C985   O1019   1.300   .     A
C986   Cl987   1.768   .     S
Cl991  N289    1.725   1_556 S
Cu993  O1015   1.966   .     S
Cu993  O1011   1.968   .     S
Cu993  O1016   1.964   .     S
Cu993  Cu994   2.709   .     S
Cu993  O1019   1.956   .     S
Cu993  N1010   2.036   .     S
Cu994  O1017   1.964   .     S
Cu994  O1018   1.956   .     S
Cu994  O1014   1.966   .     S
Cu994  O1013   1.968   .     S
Cu994  N1009   2.036   .     S
H997   C738    1.111   1_565 S
N1010  N289    1.296   1_556 S
N1010  Cl272   1.726   1_556 S
O1020  C742    1.399   1_565 S
C1021  O1074   1.304   .     A
C1021  O1071   1.297   .     A
C1021  C1042   1.460   .     S
C1022  Cl1048  1.772   .     S
C1022  C1024   1.402   .     A
C1022  C1033   1.404   .     A
C1023  C1046   1.400   .     A
C1023  C1045   1.449   .     S
C1023  C1025   1.402   .     A
C1024  C1026   1.401   .     A
C1024  C1044   1.447   .     S
C1025  Cl1049  1.771   .     S
C1025  C1027   1.404   .     A
C1026  Cl1050  1.770   .     S
C1026  C1028   1.401   .     A
C1027  C1029   1.416   .     A
C1027  C1034   1.404   .     A
C1028  C1035   1.403   .     A
C1028  C1030   1.416   .     A
C1029  C1031   1.416   .     A
C1029  C970    1.412   1_655 S
C1030  C1033   1.416   .     A
C1031  C1046   1.402   .     A
C1031  C1041   1.403   .     A
C1032  O1073   1.299   .     A
C1032  C1043   1.441   .     S
C1032  O1075   1.293   .     A
C1033  C1040   1.404   .     A
C1034  H1055   1.081   .     S
C1034  C980    1.388   1_655 S
C1035  H1061   1.081   .     S
C1036  H1064   1.115   .     S
C1036  O1080   1.406   .     S
C1036  H825    1.110   1_565 S
C1037  H1067   1.104   .     S
C1037  C316    1.516   1_556 S
C1037  H346    1.111   1_556 S
C1037  H348    1.107   1_556 S
C1038  O1072   1.409   .     S
C1038  C1039   1.519   .     S
C1038  H1056   1.108   .     S
C1039  H1058   1.110   .     S
C1039  H1059   1.110   .     S
C1039  H340    1.109   1_556 S
C1040  H1062   1.081   .     S
C1041  H1063   1.081   .     S
C1041  C975    1.386   1_655 S
C1043  C802    1.352   1_565 S
C1043  O832    1.392   1_565 S
C1044  O1076   1.301   .     A
C1044  O1078   1.295   .     A
C1045  O1077   1.297   .     A
C1045  O1079   1.300   .     A
C1046  Cl1047  1.768   .     S
Cl1051 N349    1.725   1_556 S
Cu1053 O1075   1.966   .     S
Cu1053 O1071   1.968   .     S
Cu1053 O1076   1.964   .     S
Cu1053 Cu1054  2.709   .     S
Cu1053 O1079   1.956   .     S
Cu1053 N1070   2.036   .     S
Cu1054 O1077   1.964   .     S
Cu1054 O1078   1.956   .     S
Cu1054 O1074   1.966   .     S
Cu1054 O1073   1.968   .     S
Cu1054 N1069   2.036   .     S
H1057  C798    1.111   1_565 S
N1070  N349    1.296   1_556 S
N1070  Cl332   1.726   1_556 S
O1080  C802    1.399   1_565 S
