data_str_m2_o2_o5_pcu_sym.120
_audit_creation_date              2020-01-03
_audit_creation_method            'Materials Studio'
_symmetry_space_group_name_H-M    'P1'
_symmetry_Int_Tables_number       1
_symmetry_cell_setting            triclinic
loop_
_symmetry_equiv_pos_as_xyz
  x,y,z
_cell_length_a                    30.5001
_cell_length_b                    27.8234
_cell_length_c                    27.2386
_cell_angle_alpha                 90.0002
_cell_angle_beta                  90.6167
_cell_angle_gamma                 89.9944
loop_
_atom_site_label
_atom_site_type_symbol
_atom_site_fract_x
_atom_site_fract_y
_atom_site_fract_z
_atom_site_U_iso_or_equiv
_atom_site_adp_type
_atom_site_occupancy
C1     C     0.16504   0.24996   0.16813   0.00000  Uiso   1.00
C2     C     0.28532   0.44605   0.18671   0.00000  Uiso   1.00
C3     C     0.24996   0.25000   0.07355   0.00000  Uiso   1.00
C4     C     0.25004   0.25000   0.25979   0.00000  Uiso   1.00
C5     C     0.25000   0.02720   0.16667   0.00000  Uiso   1.00
C6     C     0.25000   0.47264   0.16667   0.00000  Uiso   1.00
C7     C     0.24999   0.24999   0.02185   0.00000  Uiso   1.00
C8     C     0.25001   0.24999   0.31149   0.00000  Uiso   1.00
C9     C     0.04800   0.29187   0.17981   0.00000  Uiso   1.00
C10    C     0.45126   0.20550   0.15581   0.00000  Uiso   1.00
C11    C     0.45200   0.29182   0.15345   0.00000  Uiso   1.00
C12    C     0.33496   0.24995   0.16522   0.00000  Uiso   1.00
C13    C     0.04875   0.20554   0.17778   0.00000  Uiso   1.00
C14    C     0.09354   0.29258   0.17759   0.00000  Uiso   1.00
C15    C     0.40582   0.20587   0.15842   0.00000  Uiso   1.00
C16    C     0.40646   0.29254   0.15564   0.00000  Uiso   1.00
C17    C     0.09420   0.20590   0.17514   0.00000  Uiso   1.00
C18    C     0.11700   0.24959   0.17204   0.00000  Uiso   1.00
C19    C     0.38300   0.24957   0.16134   0.00000  Uiso   1.00
C20    C     0.02440   0.24859   0.17200   0.00000  Uiso   1.00
C21    C     0.47560   0.24857   0.16143   0.00000  Uiso   1.00
C22    C     0.26652   0.10433   0.20603   0.00000  Uiso   1.00
C23    C     0.21620   0.39552   0.14519   0.00000  Uiso   1.00
C24    C     0.23348   0.10433   0.12730   0.00000  Uiso   1.00
C25    C     0.28380   0.39551   0.18814   0.00000  Uiso   1.00
C26    C     0.26509   0.05378   0.20759   0.00000  Uiso   1.00
C27    C     0.21468   0.44606   0.14662   0.00000  Uiso   1.00
C28    C     0.23491   0.05378   0.12575   0.00000  Uiso   1.00
Cu29   Cu    0.25000   0.29821   0.16667   0.00000  Uiso   1.00
Cu30   Cu    0.25000   0.20178   0.16667   0.00000  Uiso   1.00
F31    F     0.28482   0.12786   0.24461   0.00000  Uiso   1.00
F32    F     0.38438   0.16313   0.15569   0.00000  Uiso   1.00
F33    F     0.38557   0.33529   0.14976   0.00000  Uiso   1.00
F34    F     0.11565   0.16318   0.17805   0.00000  Uiso   1.00
F35    F     0.27751   0.03134   0.24973   0.00000  Uiso   1.00
F36    F     0.17809   0.46848   0.12945   0.00000  Uiso   1.00
F37    F     0.22249   0.03135   0.08360   0.00000  Uiso   1.00
F38    F     0.32191   0.46847   0.20387   0.00000  Uiso   1.00
F39    F     0.18337   0.37166   0.12188   0.00000  Uiso   1.00
F40    F     0.21518   0.12787   0.08872   0.00000  Uiso   1.00
F41    F     0.31664   0.37165   0.21144   0.00000  Uiso   1.00
F42    F     0.02833   0.33256   0.19582   0.00000  Uiso   1.00
F43    F     0.46975   0.16377   0.14102   0.00000  Uiso   1.00
F44    F     0.47166   0.33245   0.13729   0.00000  Uiso   1.00
F45    F     0.03028   0.16387   0.19275   0.00000  Uiso   1.00
F46    F     0.11441   0.33535   0.18330   0.00000  Uiso   1.00
N47    N     0.25000   0.12934   0.16667   0.00000  Uiso   1.00
N48    N     0.25000   0.37065   0.16667   0.00000  Uiso   1.00
O49    O     0.18573   0.29071   0.16667   0.00000  Uiso   1.00
O50    O     0.31427   0.20928   0.16666   0.00000  Uiso   1.00
O51    O     0.31427   0.29071   0.16666   0.00000  Uiso   1.00
O52    O     0.18573   0.20928   0.16667   0.00000  Uiso   1.00
O53    O     0.25000   0.29071   0.09613   0.00000  Uiso   1.00
O54    O     0.25000   0.20929   0.23720   0.00000  Uiso   1.00
O55    O     0.25000   0.29071   0.23720   0.00000  Uiso   1.00
O56    O     0.25000   0.20929   0.09613   0.00000  Uiso   1.00
C57    C     0.66504   0.24996   0.16813   0.00000  Uiso   1.00
C58    C     0.78532   0.44605   0.18671   0.00000  Uiso   1.00
C59    C     0.74996   0.25000   0.07355   0.00000  Uiso   1.00
C60    C     0.75004   0.25000   0.25979   0.00000  Uiso   1.00
C61    C     0.75000   0.02720   0.16667   0.00000  Uiso   1.00
C62    C     0.75000   0.47264   0.16667   0.00000  Uiso   1.00
C63    C     0.74999   0.24999   0.02185   0.00000  Uiso   1.00
C64    C     0.75001   0.24999   0.31149   0.00000  Uiso   1.00
C65    C     0.54800   0.29187   0.17981   0.00000  Uiso   1.00
C66    C     0.95126   0.20550   0.15581   0.00000  Uiso   1.00
C67    C     0.95200   0.29182   0.15345   0.00000  Uiso   1.00
C68    C     0.83496   0.24995   0.16522   0.00000  Uiso   1.00
C69    C     0.54875   0.20554   0.17778   0.00000  Uiso   1.00
C70    C     0.59354   0.29258   0.17759   0.00000  Uiso   1.00
C71    C     0.90582   0.20587   0.15842   0.00000  Uiso   1.00
C72    C     0.90646   0.29254   0.15564   0.00000  Uiso   1.00
C73    C     0.59420   0.20590   0.17514   0.00000  Uiso   1.00
C74    C     0.61700   0.24959   0.17204   0.00000  Uiso   1.00
C75    C     0.88300   0.24957   0.16134   0.00000  Uiso   1.00
C76    C     0.52440   0.24859   0.17200   0.00000  Uiso   1.00
C77    C     0.97560   0.24857   0.16143   0.00000  Uiso   1.00
C78    C     0.76652   0.10433   0.20603   0.00000  Uiso   1.00
C79    C     0.71620   0.39552   0.14519   0.00000  Uiso   1.00
C80    C     0.73348   0.10433   0.12730   0.00000  Uiso   1.00
C81    C     0.78380   0.39551   0.18814   0.00000  Uiso   1.00
C82    C     0.76509   0.05378   0.20759   0.00000  Uiso   1.00
C83    C     0.71468   0.44606   0.14662   0.00000  Uiso   1.00
C84    C     0.73491   0.05378   0.12575   0.00000  Uiso   1.00
Cu85   Cu    0.75000   0.29821   0.16667   0.00000  Uiso   1.00
Cu86   Cu    0.75000   0.20178   0.16667   0.00000  Uiso   1.00
F87    F     0.78482   0.12786   0.24461   0.00000  Uiso   1.00
F88    F     0.88438   0.16313   0.15569   0.00000  Uiso   1.00
F89    F     0.88557   0.33529   0.14976   0.00000  Uiso   1.00
F90    F     0.61565   0.16318   0.17805   0.00000  Uiso   1.00
F91    F     0.77751   0.03134   0.24973   0.00000  Uiso   1.00
F92    F     0.67809   0.46848   0.12945   0.00000  Uiso   1.00
F93    F     0.72249   0.03135   0.08360   0.00000  Uiso   1.00
F94    F     0.82191   0.46847   0.20387   0.00000  Uiso   1.00
F95    F     0.68337   0.37166   0.12188   0.00000  Uiso   1.00
F96    F     0.71518   0.12787   0.08872   0.00000  Uiso   1.00
F97    F     0.81664   0.37165   0.21144   0.00000  Uiso   1.00
F98    F     0.52833   0.33256   0.19582   0.00000  Uiso   1.00
F99    F     0.96975   0.16377   0.14102   0.00000  Uiso   1.00
F100   F     0.97166   0.33245   0.13729   0.00000  Uiso   1.00
F101   F     0.53028   0.16387   0.19275   0.00000  Uiso   1.00
F102   F     0.61441   0.33535   0.18330   0.00000  Uiso   1.00
N103   N     0.75000   0.12934   0.16667   0.00000  Uiso   1.00
N104   N     0.75000   0.37065   0.16667   0.00000  Uiso   1.00
O105   O     0.68573   0.29071   0.16667   0.00000  Uiso   1.00
O106   O     0.81427   0.20928   0.16666   0.00000  Uiso   1.00
O107   O     0.81427   0.29071   0.16666   0.00000  Uiso   1.00
O108   O     0.68573   0.20928   0.16667   0.00000  Uiso   1.00
O109   O     0.75000   0.29071   0.09613   0.00000  Uiso   1.00
O110   O     0.75000   0.20929   0.23720   0.00000  Uiso   1.00
O111   O     0.75000   0.29071   0.23720   0.00000  Uiso   1.00
O112   O     0.75000   0.20929   0.09613   0.00000  Uiso   1.00
C113   C     0.16504   0.74996   0.16813   0.00000  Uiso   1.00
C114   C     0.28532   0.94605   0.18671   0.00000  Uiso   1.00
C115   C     0.24996   0.75000   0.07355   0.00000  Uiso   1.00
C116   C     0.25004   0.75000   0.25979   0.00000  Uiso   1.00
C117   C     0.25000   0.52720   0.16667   0.00000  Uiso   1.00
C118   C     0.25000   0.97264   0.16667   0.00000  Uiso   1.00
C119   C     0.24999   0.74999   0.02185   0.00000  Uiso   1.00
C120   C     0.25001   0.74999   0.31149   0.00000  Uiso   1.00
C121   C     0.04800   0.79187   0.17981   0.00000  Uiso   1.00
C122   C     0.45126   0.70550   0.15581   0.00000  Uiso   1.00
C123   C     0.45200   0.79182   0.15345   0.00000  Uiso   1.00
C124   C     0.33496   0.74995   0.16522   0.00000  Uiso   1.00
C125   C     0.04875   0.70554   0.17778   0.00000  Uiso   1.00
C126   C     0.09354   0.79258   0.17759   0.00000  Uiso   1.00
C127   C     0.40582   0.70587   0.15842   0.00000  Uiso   1.00
C128   C     0.40646   0.79254   0.15564   0.00000  Uiso   1.00
C129   C     0.09420   0.70590   0.17514   0.00000  Uiso   1.00
C130   C     0.11700   0.74959   0.17204   0.00000  Uiso   1.00
C131   C     0.38300   0.74957   0.16134   0.00000  Uiso   1.00
C132   C     0.02440   0.74859   0.17200   0.00000  Uiso   1.00
C133   C     0.47560   0.74857   0.16143   0.00000  Uiso   1.00
C134   C     0.26652   0.60433   0.20603   0.00000  Uiso   1.00
C135   C     0.21620   0.89552   0.14519   0.00000  Uiso   1.00
C136   C     0.23348   0.60433   0.12730   0.00000  Uiso   1.00
C137   C     0.28380   0.89551   0.18814   0.00000  Uiso   1.00
C138   C     0.26509   0.55378   0.20759   0.00000  Uiso   1.00
C139   C     0.21468   0.94606   0.14662   0.00000  Uiso   1.00
C140   C     0.23491   0.55378   0.12575   0.00000  Uiso   1.00
Cu141  Cu    0.25000   0.79821   0.16667   0.00000  Uiso   1.00
Cu142  Cu    0.25000   0.70178   0.16667   0.00000  Uiso   1.00
F143   F     0.28482   0.62786   0.24461   0.00000  Uiso   1.00
F144   F     0.38438   0.66313   0.15569   0.00000  Uiso   1.00
F145   F     0.38557   0.83529   0.14976   0.00000  Uiso   1.00
F146   F     0.11565   0.66318   0.17805   0.00000  Uiso   1.00
F147   F     0.27751   0.53134   0.24973   0.00000  Uiso   1.00
F148   F     0.17809   0.96848   0.12945   0.00000  Uiso   1.00
F149   F     0.22249   0.53135   0.08360   0.00000  Uiso   1.00
F150   F     0.32191   0.96847   0.20387   0.00000  Uiso   1.00
F151   F     0.18337   0.87166   0.12188   0.00000  Uiso   1.00
F152   F     0.21518   0.62787   0.08872   0.00000  Uiso   1.00
F153   F     0.31664   0.87165   0.21144   0.00000  Uiso   1.00
F154   F     0.02833   0.83256   0.19582   0.00000  Uiso   1.00
F155   F     0.46975   0.66377   0.14102   0.00000  Uiso   1.00
F156   F     0.47166   0.83245   0.13729   0.00000  Uiso   1.00
F157   F     0.03028   0.66387   0.19275   0.00000  Uiso   1.00
F158   F     0.11441   0.83535   0.18330   0.00000  Uiso   1.00
N159   N     0.25000   0.62934   0.16667   0.00000  Uiso   1.00
N160   N     0.25000   0.87065   0.16667   0.00000  Uiso   1.00
O161   O     0.18573   0.79071   0.16667   0.00000  Uiso   1.00
O162   O     0.31427   0.70928   0.16666   0.00000  Uiso   1.00
O163   O     0.31427   0.79071   0.16666   0.00000  Uiso   1.00
O164   O     0.18573   0.70928   0.16667   0.00000  Uiso   1.00
O165   O     0.25000   0.79071   0.09613   0.00000  Uiso   1.00
O166   O     0.25000   0.70929   0.23720   0.00000  Uiso   1.00
O167   O     0.25000   0.79071   0.23720   0.00000  Uiso   1.00
O168   O     0.25000   0.70929   0.09613   0.00000  Uiso   1.00
C169   C     0.66504   0.74996   0.16813   0.00000  Uiso   1.00
C170   C     0.78532   0.94605   0.18671   0.00000  Uiso   1.00
C171   C     0.74996   0.75000   0.07355   0.00000  Uiso   1.00
C172   C     0.75004   0.75000   0.25979   0.00000  Uiso   1.00
C173   C     0.75000   0.52720   0.16667   0.00000  Uiso   1.00
C174   C     0.75000   0.97264   0.16667   0.00000  Uiso   1.00
C175   C     0.74999   0.74999   0.02185   0.00000  Uiso   1.00
C176   C     0.75001   0.74999   0.31149   0.00000  Uiso   1.00
C177   C     0.54800   0.79187   0.17981   0.00000  Uiso   1.00
C178   C     0.95126   0.70550   0.15581   0.00000  Uiso   1.00
C179   C     0.95200   0.79182   0.15345   0.00000  Uiso   1.00
C180   C     0.83496   0.74995   0.16522   0.00000  Uiso   1.00
C181   C     0.54875   0.70554   0.17778   0.00000  Uiso   1.00
C182   C     0.59354   0.79258   0.17759   0.00000  Uiso   1.00
C183   C     0.90582   0.70587   0.15842   0.00000  Uiso   1.00
C184   C     0.90646   0.79254   0.15564   0.00000  Uiso   1.00
C185   C     0.59420   0.70590   0.17514   0.00000  Uiso   1.00
C186   C     0.61700   0.74959   0.17204   0.00000  Uiso   1.00
C187   C     0.88300   0.74957   0.16134   0.00000  Uiso   1.00
C188   C     0.52440   0.74859   0.17200   0.00000  Uiso   1.00
C189   C     0.97560   0.74857   0.16143   0.00000  Uiso   1.00
C190   C     0.76652   0.60433   0.20603   0.00000  Uiso   1.00
C191   C     0.71620   0.89552   0.14519   0.00000  Uiso   1.00
C192   C     0.73348   0.60433   0.12730   0.00000  Uiso   1.00
C193   C     0.78380   0.89551   0.18814   0.00000  Uiso   1.00
C194   C     0.76509   0.55378   0.20759   0.00000  Uiso   1.00
C195   C     0.71468   0.94606   0.14662   0.00000  Uiso   1.00
C196   C     0.73491   0.55378   0.12575   0.00000  Uiso   1.00
Cu197  Cu    0.75000   0.79821   0.16667   0.00000  Uiso   1.00
Cu198  Cu    0.75000   0.70178   0.16667   0.00000  Uiso   1.00
F199   F     0.78482   0.62786   0.24461   0.00000  Uiso   1.00
F200   F     0.88438   0.66313   0.15569   0.00000  Uiso   1.00
F201   F     0.88557   0.83529   0.14976   0.00000  Uiso   1.00
F202   F     0.61565   0.66318   0.17805   0.00000  Uiso   1.00
F203   F     0.77751   0.53134   0.24973   0.00000  Uiso   1.00
F204   F     0.67809   0.96848   0.12945   0.00000  Uiso   1.00
F205   F     0.72249   0.53135   0.08360   0.00000  Uiso   1.00
F206   F     0.82191   0.96847   0.20387   0.00000  Uiso   1.00
F207   F     0.68337   0.87166   0.12188   0.00000  Uiso   1.00
F208   F     0.71518   0.62787   0.08872   0.00000  Uiso   1.00
F209   F     0.81664   0.87165   0.21144   0.00000  Uiso   1.00
F210   F     0.52833   0.83256   0.19582   0.00000  Uiso   1.00
F211   F     0.96975   0.66377   0.14102   0.00000  Uiso   1.00
F212   F     0.97166   0.83245   0.13729   0.00000  Uiso   1.00
F213   F     0.53028   0.66387   0.19275   0.00000  Uiso   1.00
F214   F     0.61441   0.83535   0.18330   0.00000  Uiso   1.00
N215   N     0.75000   0.62934   0.16667   0.00000  Uiso   1.00
N216   N     0.75000   0.87065   0.16667   0.00000  Uiso   1.00
O217   O     0.68573   0.79071   0.16667   0.00000  Uiso   1.00
O218   O     0.81427   0.70928   0.16666   0.00000  Uiso   1.00
O219   O     0.81427   0.79071   0.16666   0.00000  Uiso   1.00
O220   O     0.68573   0.70928   0.16667   0.00000  Uiso   1.00
O221   O     0.75000   0.79071   0.09613   0.00000  Uiso   1.00
O222   O     0.75000   0.70929   0.23720   0.00000  Uiso   1.00
O223   O     0.75000   0.79071   0.23720   0.00000  Uiso   1.00
O224   O     0.75000   0.70929   0.09613   0.00000  Uiso   1.00
C225   C     0.16504   0.24996   0.50146   0.00000  Uiso   1.00
C226   C     0.28532   0.44605   0.52005   0.00000  Uiso   1.00
C227   C     0.24996   0.25000   0.40688   0.00000  Uiso   1.00
C228   C     0.25004   0.25000   0.59312   0.00000  Uiso   1.00
C229   C     0.25000   0.02720   0.50000   0.00000  Uiso   1.00
C230   C     0.25000   0.47264   0.50000   0.00000  Uiso   1.00
C231   C     0.24999   0.24999   0.35518   0.00000  Uiso   1.00
C232   C     0.25001   0.24999   0.64482   0.00000  Uiso   1.00
C233   C     0.04800   0.29187   0.51314   0.00000  Uiso   1.00
C234   C     0.45126   0.20550   0.48914   0.00000  Uiso   1.00
C235   C     0.45200   0.29182   0.48678   0.00000  Uiso   1.00
C236   C     0.33496   0.24995   0.49855   0.00000  Uiso   1.00
C237   C     0.04875   0.20554   0.51111   0.00000  Uiso   1.00
C238   C     0.09354   0.29258   0.51092   0.00000  Uiso   1.00
C239   C     0.40582   0.20587   0.49175   0.00000  Uiso   1.00
C240   C     0.40646   0.29254   0.48898   0.00000  Uiso   1.00
C241   C     0.09420   0.20590   0.50847   0.00000  Uiso   1.00
C242   C     0.11700   0.24959   0.50537   0.00000  Uiso   1.00
C243   C     0.38300   0.24957   0.49467   0.00000  Uiso   1.00
C244   C     0.02440   0.24859   0.50533   0.00000  Uiso   1.00
C245   C     0.47560   0.24857   0.49476   0.00000  Uiso   1.00
C246   C     0.26652   0.10433   0.53936   0.00000  Uiso   1.00
C247   C     0.21620   0.39552   0.47852   0.00000  Uiso   1.00
C248   C     0.23348   0.10433   0.46064   0.00000  Uiso   1.00
C249   C     0.28380   0.39551   0.52147   0.00000  Uiso   1.00
C250   C     0.26509   0.05378   0.54092   0.00000  Uiso   1.00
C251   C     0.21468   0.44606   0.47995   0.00000  Uiso   1.00
C252   C     0.23491   0.05378   0.45908   0.00000  Uiso   1.00
Cu253  Cu    0.25000   0.29821   0.50000   0.00000  Uiso   1.00
Cu254  Cu    0.25000   0.20178   0.50000   0.00000  Uiso   1.00
F255   F     0.28482   0.12786   0.57794   0.00000  Uiso   1.00
F256   F     0.38438   0.16313   0.48902   0.00000  Uiso   1.00
F257   F     0.38557   0.33529   0.48309   0.00000  Uiso   1.00
F258   F     0.11565   0.16318   0.51138   0.00000  Uiso   1.00
F259   F     0.27751   0.03134   0.58307   0.00000  Uiso   1.00
F260   F     0.17809   0.46848   0.46279   0.00000  Uiso   1.00
F261   F     0.22249   0.03135   0.41693   0.00000  Uiso   1.00
F262   F     0.32191   0.46847   0.53721   0.00000  Uiso   1.00
F263   F     0.18337   0.37166   0.45521   0.00000  Uiso   1.00
F264   F     0.21518   0.12787   0.42206   0.00000  Uiso   1.00
F265   F     0.31664   0.37165   0.54478   0.00000  Uiso   1.00
F266   F     0.02833   0.33256   0.52915   0.00000  Uiso   1.00
F267   F     0.46975   0.16377   0.47435   0.00000  Uiso   1.00
F268   F     0.47166   0.33245   0.47063   0.00000  Uiso   1.00
F269   F     0.03028   0.16387   0.52608   0.00000  Uiso   1.00
F270   F     0.11441   0.33535   0.51663   0.00000  Uiso   1.00
N271   N     0.25000   0.12934   0.50000   0.00000  Uiso   1.00
N272   N     0.25000   0.37065   0.50000   0.00000  Uiso   1.00
O273   O     0.18573   0.29071   0.50000   0.00000  Uiso   1.00
O274   O     0.31427   0.20928   0.50000   0.00000  Uiso   1.00
O275   O     0.31427   0.29071   0.50000   0.00000  Uiso   1.00
O276   O     0.18573   0.20928   0.50000   0.00000  Uiso   1.00
O277   O     0.25000   0.29071   0.42946   0.00000  Uiso   1.00
O278   O     0.25000   0.20929   0.57054   0.00000  Uiso   1.00
O279   O     0.25000   0.29071   0.57054   0.00000  Uiso   1.00
O280   O     0.25000   0.20929   0.42946   0.00000  Uiso   1.00
C281   C     0.66504   0.24996   0.50146   0.00000  Uiso   1.00
C282   C     0.78532   0.44605   0.52005   0.00000  Uiso   1.00
C283   C     0.74996   0.25000   0.40688   0.00000  Uiso   1.00
C284   C     0.75004   0.25000   0.59312   0.00000  Uiso   1.00
C285   C     0.75000   0.02720   0.50000   0.00000  Uiso   1.00
C286   C     0.75000   0.47264   0.50000   0.00000  Uiso   1.00
C287   C     0.74999   0.24999   0.35518   0.00000  Uiso   1.00
C288   C     0.75001   0.24999   0.64482   0.00000  Uiso   1.00
C289   C     0.54800   0.29187   0.51314   0.00000  Uiso   1.00
C290   C     0.95126   0.20550   0.48914   0.00000  Uiso   1.00
C291   C     0.95200   0.29182   0.48678   0.00000  Uiso   1.00
C292   C     0.83496   0.24995   0.49855   0.00000  Uiso   1.00
C293   C     0.54875   0.20554   0.51111   0.00000  Uiso   1.00
C294   C     0.59354   0.29258   0.51092   0.00000  Uiso   1.00
C295   C     0.90582   0.20587   0.49175   0.00000  Uiso   1.00
C296   C     0.90646   0.29254   0.48898   0.00000  Uiso   1.00
C297   C     0.59420   0.20590   0.50847   0.00000  Uiso   1.00
C298   C     0.61700   0.24959   0.50537   0.00000  Uiso   1.00
C299   C     0.88300   0.24957   0.49467   0.00000  Uiso   1.00
C300   C     0.52440   0.24859   0.50533   0.00000  Uiso   1.00
C301   C     0.97560   0.24857   0.49476   0.00000  Uiso   1.00
C302   C     0.76652   0.10433   0.53936   0.00000  Uiso   1.00
C303   C     0.71620   0.39552   0.47852   0.00000  Uiso   1.00
C304   C     0.73348   0.10433   0.46064   0.00000  Uiso   1.00
C305   C     0.78380   0.39551   0.52147   0.00000  Uiso   1.00
C306   C     0.76509   0.05378   0.54092   0.00000  Uiso   1.00
C307   C     0.71468   0.44606   0.47995   0.00000  Uiso   1.00
C308   C     0.73491   0.05378   0.45908   0.00000  Uiso   1.00
Cu309  Cu    0.75000   0.29821   0.50000   0.00000  Uiso   1.00
Cu310  Cu    0.75000   0.20178   0.50000   0.00000  Uiso   1.00
F311   F     0.78482   0.12786   0.57794   0.00000  Uiso   1.00
F312   F     0.88438   0.16313   0.48902   0.00000  Uiso   1.00
F313   F     0.88557   0.33529   0.48309   0.00000  Uiso   1.00
F314   F     0.61565   0.16318   0.51138   0.00000  Uiso   1.00
F315   F     0.77751   0.03134   0.58307   0.00000  Uiso   1.00
F316   F     0.67809   0.46848   0.46279   0.00000  Uiso   1.00
F317   F     0.72249   0.03135   0.41693   0.00000  Uiso   1.00
F318   F     0.82191   0.46847   0.53721   0.00000  Uiso   1.00
F319   F     0.68337   0.37166   0.45521   0.00000  Uiso   1.00
F320   F     0.71518   0.12787   0.42206   0.00000  Uiso   1.00
F321   F     0.81664   0.37165   0.54478   0.00000  Uiso   1.00
F322   F     0.52833   0.33256   0.52915   0.00000  Uiso   1.00
F323   F     0.96975   0.16377   0.47435   0.00000  Uiso   1.00
F324   F     0.97166   0.33245   0.47063   0.00000  Uiso   1.00
F325   F     0.53028   0.16387   0.52608   0.00000  Uiso   1.00
F326   F     0.61441   0.33535   0.51663   0.00000  Uiso   1.00
N327   N     0.75000   0.12934   0.50000   0.00000  Uiso   1.00
N328   N     0.75000   0.37065   0.50000   0.00000  Uiso   1.00
O329   O     0.68573   0.29071   0.50000   0.00000  Uiso   1.00
O330   O     0.81427   0.20928   0.50000   0.00000  Uiso   1.00
O331   O     0.81427   0.29071   0.50000   0.00000  Uiso   1.00
O332   O     0.68573   0.20928   0.50000   0.00000  Uiso   1.00
O333   O     0.75000   0.29071   0.42946   0.00000  Uiso   1.00
O334   O     0.75000   0.20929   0.57054   0.00000  Uiso   1.00
O335   O     0.75000   0.29071   0.57054   0.00000  Uiso   1.00
O336   O     0.75000   0.20929   0.42946   0.00000  Uiso   1.00
C337   C     0.16504   0.74996   0.50146   0.00000  Uiso   1.00
C338   C     0.28532   0.94605   0.52005   0.00000  Uiso   1.00
C339   C     0.24996   0.75000   0.40688   0.00000  Uiso   1.00
C340   C     0.25004   0.75000   0.59312   0.00000  Uiso   1.00
C341   C     0.25000   0.52720   0.50000   0.00000  Uiso   1.00
C342   C     0.25000   0.97264   0.50000   0.00000  Uiso   1.00
C343   C     0.24999   0.74999   0.35518   0.00000  Uiso   1.00
C344   C     0.25001   0.74999   0.64482   0.00000  Uiso   1.00
C345   C     0.04800   0.79187   0.51314   0.00000  Uiso   1.00
C346   C     0.45126   0.70550   0.48914   0.00000  Uiso   1.00
C347   C     0.45200   0.79182   0.48678   0.00000  Uiso   1.00
C348   C     0.33496   0.74995   0.49855   0.00000  Uiso   1.00
C349   C     0.04875   0.70554   0.51111   0.00000  Uiso   1.00
C350   C     0.09354   0.79258   0.51092   0.00000  Uiso   1.00
C351   C     0.40582   0.70587   0.49175   0.00000  Uiso   1.00
C352   C     0.40646   0.79254   0.48898   0.00000  Uiso   1.00
C353   C     0.09420   0.70590   0.50847   0.00000  Uiso   1.00
C354   C     0.11700   0.74959   0.50537   0.00000  Uiso   1.00
C355   C     0.38300   0.74957   0.49467   0.00000  Uiso   1.00
C356   C     0.02440   0.74859   0.50533   0.00000  Uiso   1.00
C357   C     0.47560   0.74857   0.49476   0.00000  Uiso   1.00
C358   C     0.26652   0.60433   0.53936   0.00000  Uiso   1.00
C359   C     0.21620   0.89552   0.47852   0.00000  Uiso   1.00
C360   C     0.23348   0.60433   0.46064   0.00000  Uiso   1.00
C361   C     0.28380   0.89551   0.52147   0.00000  Uiso   1.00
C362   C     0.26509   0.55378   0.54092   0.00000  Uiso   1.00
C363   C     0.21468   0.94606   0.47995   0.00000  Uiso   1.00
C364   C     0.23491   0.55378   0.45908   0.00000  Uiso   1.00
Cu365  Cu    0.25000   0.79821   0.50000   0.00000  Uiso   1.00
Cu366  Cu    0.25000   0.70178   0.50000   0.00000  Uiso   1.00
F367   F     0.28482   0.62786   0.57794   0.00000  Uiso   1.00
F368   F     0.38438   0.66313   0.48902   0.00000  Uiso   1.00
F369   F     0.38557   0.83529   0.48309   0.00000  Uiso   1.00
F370   F     0.11565   0.66318   0.51138   0.00000  Uiso   1.00
F371   F     0.27751   0.53134   0.58307   0.00000  Uiso   1.00
F372   F     0.17809   0.96848   0.46279   0.00000  Uiso   1.00
F373   F     0.22249   0.53135   0.41693   0.00000  Uiso   1.00
F374   F     0.32191   0.96847   0.53721   0.00000  Uiso   1.00
F375   F     0.18337   0.87166   0.45521   0.00000  Uiso   1.00
F376   F     0.21518   0.62787   0.42206   0.00000  Uiso   1.00
F377   F     0.31664   0.87165   0.54478   0.00000  Uiso   1.00
F378   F     0.02833   0.83256   0.52915   0.00000  Uiso   1.00
F379   F     0.46975   0.66377   0.47435   0.00000  Uiso   1.00
F380   F     0.47166   0.83245   0.47063   0.00000  Uiso   1.00
F381   F     0.03028   0.66387   0.52608   0.00000  Uiso   1.00
F382   F     0.11441   0.83535   0.51663   0.00000  Uiso   1.00
N383   N     0.25000   0.62934   0.50000   0.00000  Uiso   1.00
N384   N     0.25000   0.87065   0.50000   0.00000  Uiso   1.00
O385   O     0.18573   0.79071   0.50000   0.00000  Uiso   1.00
O386   O     0.31427   0.70928   0.50000   0.00000  Uiso   1.00
O387   O     0.31427   0.79071   0.50000   0.00000  Uiso   1.00
O388   O     0.18573   0.70928   0.50000   0.00000  Uiso   1.00
O389   O     0.25000   0.79071   0.42946   0.00000  Uiso   1.00
O390   O     0.25000   0.70929   0.57054   0.00000  Uiso   1.00
O391   O     0.25000   0.79071   0.57054   0.00000  Uiso   1.00
O392   O     0.25000   0.70929   0.42946   0.00000  Uiso   1.00
C393   C     0.66504   0.74996   0.50146   0.00000  Uiso   1.00
C394   C     0.78532   0.94605   0.52005   0.00000  Uiso   1.00
C395   C     0.74996   0.75000   0.40688   0.00000  Uiso   1.00
C396   C     0.75004   0.75000   0.59312   0.00000  Uiso   1.00
C397   C     0.75000   0.52720   0.50000   0.00000  Uiso   1.00
C398   C     0.75000   0.97264   0.50000   0.00000  Uiso   1.00
C399   C     0.74999   0.74999   0.35518   0.00000  Uiso   1.00
C400   C     0.75001   0.74999   0.64482   0.00000  Uiso   1.00
C401   C     0.54800   0.79187   0.51314   0.00000  Uiso   1.00
C402   C     0.95126   0.70550   0.48914   0.00000  Uiso   1.00
C403   C     0.95200   0.79182   0.48678   0.00000  Uiso   1.00
C404   C     0.83496   0.74995   0.49855   0.00000  Uiso   1.00
C405   C     0.54875   0.70554   0.51111   0.00000  Uiso   1.00
C406   C     0.59354   0.79258   0.51092   0.00000  Uiso   1.00
C407   C     0.90582   0.70587   0.49175   0.00000  Uiso   1.00
C408   C     0.90646   0.79254   0.48898   0.00000  Uiso   1.00
C409   C     0.59420   0.70590   0.50847   0.00000  Uiso   1.00
C410   C     0.61700   0.74959   0.50537   0.00000  Uiso   1.00
C411   C     0.88300   0.74957   0.49467   0.00000  Uiso   1.00
C412   C     0.52440   0.74859   0.50533   0.00000  Uiso   1.00
C413   C     0.97560   0.74857   0.49476   0.00000  Uiso   1.00
C414   C     0.76652   0.60433   0.53936   0.00000  Uiso   1.00
C415   C     0.71620   0.89552   0.47852   0.00000  Uiso   1.00
C416   C     0.73348   0.60433   0.46064   0.00000  Uiso   1.00
C417   C     0.78380   0.89551   0.52147   0.00000  Uiso   1.00
C418   C     0.76509   0.55378   0.54092   0.00000  Uiso   1.00
C419   C     0.71468   0.94606   0.47995   0.00000  Uiso   1.00
C420   C     0.73491   0.55378   0.45908   0.00000  Uiso   1.00
Cu421  Cu    0.75000   0.79821   0.50000   0.00000  Uiso   1.00
Cu422  Cu    0.75000   0.70178   0.50000   0.00000  Uiso   1.00
F423   F     0.78482   0.62786   0.57794   0.00000  Uiso   1.00
F424   F     0.88438   0.66313   0.48902   0.00000  Uiso   1.00
F425   F     0.88557   0.83529   0.48309   0.00000  Uiso   1.00
F426   F     0.61565   0.66318   0.51138   0.00000  Uiso   1.00
F427   F     0.77751   0.53134   0.58307   0.00000  Uiso   1.00
F428   F     0.67809   0.96848   0.46279   0.00000  Uiso   1.00
F429   F     0.72249   0.53135   0.41693   0.00000  Uiso   1.00
F430   F     0.82191   0.96847   0.53721   0.00000  Uiso   1.00
F431   F     0.68337   0.87166   0.45521   0.00000  Uiso   1.00
F432   F     0.71518   0.62787   0.42206   0.00000  Uiso   1.00
F433   F     0.81664   0.87165   0.54478   0.00000  Uiso   1.00
F434   F     0.52833   0.83256   0.52915   0.00000  Uiso   1.00
F435   F     0.96975   0.66377   0.47435   0.00000  Uiso   1.00
F436   F     0.97166   0.83245   0.47063   0.00000  Uiso   1.00
F437   F     0.53028   0.66387   0.52608   0.00000  Uiso   1.00
F438   F     0.61441   0.83535   0.51663   0.00000  Uiso   1.00
N439   N     0.75000   0.62934   0.50000   0.00000  Uiso   1.00
N440   N     0.75000   0.87065   0.50000   0.00000  Uiso   1.00
O441   O     0.68573   0.79071   0.50000   0.00000  Uiso   1.00
O442   O     0.81427   0.70928   0.50000   0.00000  Uiso   1.00
O443   O     0.81427   0.79071   0.50000   0.00000  Uiso   1.00
O444   O     0.68573   0.70928   0.50000   0.00000  Uiso   1.00
O445   O     0.75000   0.79071   0.42946   0.00000  Uiso   1.00
O446   O     0.75000   0.70929   0.57054   0.00000  Uiso   1.00
O447   O     0.75000   0.79071   0.57054   0.00000  Uiso   1.00
O448   O     0.75000   0.70929   0.42946   0.00000  Uiso   1.00
C449   C     0.16504   0.24996   0.83479   0.00000  Uiso   1.00
C450   C     0.28532   0.44605   0.85338   0.00000  Uiso   1.00
C451   C     0.24996   0.25000   0.74021   0.00000  Uiso   1.00
C452   C     0.25004   0.25000   0.92645   0.00000  Uiso   1.00
C453   C     0.25000   0.02720   0.83333   0.00000  Uiso   1.00
C454   C     0.25000   0.47264   0.83333   0.00000  Uiso   1.00
C455   C     0.24999   0.24999   0.68851   0.00000  Uiso   1.00
C456   C     0.25001   0.24999   0.97815   0.00000  Uiso   1.00
C457   C     0.04800   0.29187   0.84647   0.00000  Uiso   1.00
C458   C     0.45126   0.20550   0.82248   0.00000  Uiso   1.00
C459   C     0.45200   0.29182   0.82011   0.00000  Uiso   1.00
C460   C     0.33496   0.24995   0.83188   0.00000  Uiso   1.00
C461   C     0.04875   0.20554   0.84444   0.00000  Uiso   1.00
C462   C     0.09354   0.29258   0.84425   0.00000  Uiso   1.00
C463   C     0.40582   0.20587   0.82509   0.00000  Uiso   1.00
C464   C     0.40646   0.29254   0.82231   0.00000  Uiso   1.00
C465   C     0.09420   0.20590   0.84181   0.00000  Uiso   1.00
C466   C     0.11700   0.24959   0.83870   0.00000  Uiso   1.00
C467   C     0.38300   0.24957   0.82801   0.00000  Uiso   1.00
C468   C     0.02440   0.24859   0.83866   0.00000  Uiso   1.00
C469   C     0.47560   0.24857   0.82810   0.00000  Uiso   1.00
C470   C     0.26652   0.10433   0.87270   0.00000  Uiso   1.00
C471   C     0.21620   0.39552   0.81186   0.00000  Uiso   1.00
C472   C     0.23348   0.10433   0.79397   0.00000  Uiso   1.00
C473   C     0.28380   0.39551   0.85481   0.00000  Uiso   1.00
C474   C     0.26509   0.05378   0.87425   0.00000  Uiso   1.00
C475   C     0.21468   0.44606   0.81328   0.00000  Uiso   1.00
C476   C     0.23491   0.05378   0.79241   0.00000  Uiso   1.00
Cu477  Cu    0.25000   0.29821   0.83333   0.00000  Uiso   1.00
Cu478  Cu    0.25000   0.20178   0.83333   0.00000  Uiso   1.00
F479   F     0.28482   0.12786   0.91128   0.00000  Uiso   1.00
F480   F     0.38438   0.16313   0.82235   0.00000  Uiso   1.00
F481   F     0.38557   0.33529   0.81643   0.00000  Uiso   1.00
F482   F     0.11565   0.16318   0.84471   0.00000  Uiso   1.00
F483   F     0.27751   0.03134   0.91640   0.00000  Uiso   1.00
F484   F     0.17809   0.46848   0.79612   0.00000  Uiso   1.00
F485   F     0.22249   0.03135   0.75027   0.00000  Uiso   1.00
F486   F     0.32191   0.46847   0.87054   0.00000  Uiso   1.00
F487   F     0.18337   0.37166   0.78854   0.00000  Uiso   1.00
F488   F     0.21518   0.12787   0.75539   0.00000  Uiso   1.00
F489   F     0.31664   0.37165   0.87811   0.00000  Uiso   1.00
F490   F     0.02833   0.33256   0.86249   0.00000  Uiso   1.00
F491   F     0.46975   0.16377   0.80768   0.00000  Uiso   1.00
F492   F     0.47166   0.33245   0.80396   0.00000  Uiso   1.00
F493   F     0.03028   0.16387   0.85942   0.00000  Uiso   1.00
F494   F     0.11441   0.33535   0.84996   0.00000  Uiso   1.00
N495   N     0.25000   0.12934   0.83333   0.00000  Uiso   1.00
N496   N     0.25000   0.37065   0.83333   0.00000  Uiso   1.00
O497   O     0.18573   0.29071   0.83334   0.00000  Uiso   1.00
O498   O     0.31427   0.20928   0.83333   0.00000  Uiso   1.00
O499   O     0.31427   0.29071   0.83333   0.00000  Uiso   1.00
O500   O     0.18573   0.20928   0.83334   0.00000  Uiso   1.00
O501   O     0.25000   0.29071   0.76280   0.00000  Uiso   1.00
O502   O     0.25000   0.20929   0.90387   0.00000  Uiso   1.00
O503   O     0.25000   0.29071   0.90387   0.00000  Uiso   1.00
O504   O     0.25000   0.20929   0.76280   0.00000  Uiso   1.00
C505   C     0.66504   0.24996   0.83479   0.00000  Uiso   1.00
C506   C     0.78532   0.44605   0.85338   0.00000  Uiso   1.00
C507   C     0.74996   0.25000   0.74021   0.00000  Uiso   1.00
C508   C     0.75004   0.25000   0.92645   0.00000  Uiso   1.00
C509   C     0.75000   0.02720   0.83333   0.00000  Uiso   1.00
C510   C     0.75000   0.47264   0.83333   0.00000  Uiso   1.00
C511   C     0.74999   0.24999   0.68851   0.00000  Uiso   1.00
C512   C     0.75001   0.24999   0.97815   0.00000  Uiso   1.00
C513   C     0.54800   0.29187   0.84647   0.00000  Uiso   1.00
C514   C     0.95126   0.20550   0.82248   0.00000  Uiso   1.00
C515   C     0.95200   0.29182   0.82011   0.00000  Uiso   1.00
C516   C     0.83496   0.24995   0.83188   0.00000  Uiso   1.00
C517   C     0.54875   0.20554   0.84444   0.00000  Uiso   1.00
C518   C     0.59354   0.29258   0.84425   0.00000  Uiso   1.00
C519   C     0.90582   0.20587   0.82509   0.00000  Uiso   1.00
C520   C     0.90646   0.29254   0.82231   0.00000  Uiso   1.00
C521   C     0.59420   0.20590   0.84181   0.00000  Uiso   1.00
C522   C     0.61700   0.24959   0.83870   0.00000  Uiso   1.00
C523   C     0.88300   0.24957   0.82801   0.00000  Uiso   1.00
C524   C     0.52440   0.24859   0.83866   0.00000  Uiso   1.00
C525   C     0.97560   0.24857   0.82810   0.00000  Uiso   1.00
C526   C     0.76652   0.10433   0.87270   0.00000  Uiso   1.00
C527   C     0.71620   0.39552   0.81186   0.00000  Uiso   1.00
C528   C     0.73348   0.10433   0.79397   0.00000  Uiso   1.00
C529   C     0.78380   0.39551   0.85481   0.00000  Uiso   1.00
C530   C     0.76509   0.05378   0.87425   0.00000  Uiso   1.00
C531   C     0.71468   0.44606   0.81328   0.00000  Uiso   1.00
C532   C     0.73491   0.05378   0.79241   0.00000  Uiso   1.00
Cu533  Cu    0.75000   0.29821   0.83333   0.00000  Uiso   1.00
Cu534  Cu    0.75000   0.20178   0.83333   0.00000  Uiso   1.00
F535   F     0.78482   0.12786   0.91128   0.00000  Uiso   1.00
F536   F     0.88438   0.16313   0.82235   0.00000  Uiso   1.00
F537   F     0.88557   0.33529   0.81643   0.00000  Uiso   1.00
F538   F     0.61565   0.16318   0.84471   0.00000  Uiso   1.00
F539   F     0.77751   0.03134   0.91640   0.00000  Uiso   1.00
F540   F     0.67809   0.46848   0.79612   0.00000  Uiso   1.00
F541   F     0.72249   0.03135   0.75027   0.00000  Uiso   1.00
F542   F     0.82191   0.46847   0.87054   0.00000  Uiso   1.00
F543   F     0.68337   0.37166   0.78854   0.00000  Uiso   1.00
F544   F     0.71518   0.12787   0.75539   0.00000  Uiso   1.00
F545   F     0.81664   0.37165   0.87811   0.00000  Uiso   1.00
F546   F     0.52833   0.33256   0.86249   0.00000  Uiso   1.00
F547   F     0.96975   0.16377   0.80768   0.00000  Uiso   1.00
F548   F     0.97166   0.33245   0.80396   0.00000  Uiso   1.00
F549   F     0.53028   0.16387   0.85942   0.00000  Uiso   1.00
F550   F     0.61441   0.33535   0.84996   0.00000  Uiso   1.00
N551   N     0.75000   0.12934   0.83333   0.00000  Uiso   1.00
N552   N     0.75000   0.37065   0.83333   0.00000  Uiso   1.00
O553   O     0.68573   0.29071   0.83334   0.00000  Uiso   1.00
O554   O     0.81427   0.20928   0.83333   0.00000  Uiso   1.00
O555   O     0.81427   0.29071   0.83333   0.00000  Uiso   1.00
O556   O     0.68573   0.20928   0.83334   0.00000  Uiso   1.00
O557   O     0.75000   0.29071   0.76280   0.00000  Uiso   1.00
O558   O     0.75000   0.20929   0.90387   0.00000  Uiso   1.00
O559   O     0.75000   0.29071   0.90387   0.00000  Uiso   1.00
O560   O     0.75000   0.20929   0.76280   0.00000  Uiso   1.00
C561   C     0.16504   0.74996   0.83479   0.00000  Uiso   1.00
C562   C     0.28532   0.94605   0.85338   0.00000  Uiso   1.00
C563   C     0.24996   0.75000   0.74021   0.00000  Uiso   1.00
C564   C     0.25004   0.75000   0.92645   0.00000  Uiso   1.00
C565   C     0.25000   0.52720   0.83333   0.00000  Uiso   1.00
C566   C     0.25000   0.97264   0.83333   0.00000  Uiso   1.00
C567   C     0.24999   0.74999   0.68851   0.00000  Uiso   1.00
C568   C     0.25001   0.74999   0.97815   0.00000  Uiso   1.00
C569   C     0.04800   0.79187   0.84647   0.00000  Uiso   1.00
C570   C     0.45126   0.70550   0.82248   0.00000  Uiso   1.00
C571   C     0.45200   0.79182   0.82011   0.00000  Uiso   1.00
C572   C     0.33496   0.74995   0.83188   0.00000  Uiso   1.00
C573   C     0.04875   0.70554   0.84444   0.00000  Uiso   1.00
C574   C     0.09354   0.79258   0.84425   0.00000  Uiso   1.00
C575   C     0.40582   0.70587   0.82509   0.00000  Uiso   1.00
C576   C     0.40646   0.79254   0.82231   0.00000  Uiso   1.00
C577   C     0.09420   0.70590   0.84181   0.00000  Uiso   1.00
C578   C     0.11700   0.74959   0.83870   0.00000  Uiso   1.00
C579   C     0.38300   0.74957   0.82801   0.00000  Uiso   1.00
C580   C     0.02440   0.74859   0.83866   0.00000  Uiso   1.00
C581   C     0.47560   0.74857   0.82810   0.00000  Uiso   1.00
C582   C     0.26652   0.60433   0.87270   0.00000  Uiso   1.00
C583   C     0.21620   0.89552   0.81186   0.00000  Uiso   1.00
C584   C     0.23348   0.60433   0.79397   0.00000  Uiso   1.00
C585   C     0.28380   0.89551   0.85481   0.00000  Uiso   1.00
C586   C     0.26509   0.55378   0.87425   0.00000  Uiso   1.00
C587   C     0.21468   0.94606   0.81328   0.00000  Uiso   1.00
C588   C     0.23491   0.55378   0.79241   0.00000  Uiso   1.00
Cu589  Cu    0.25000   0.79821   0.83333   0.00000  Uiso   1.00
Cu590  Cu    0.25000   0.70178   0.83333   0.00000  Uiso   1.00
F591   F     0.28482   0.62786   0.91128   0.00000  Uiso   1.00
F592   F     0.38438   0.66313   0.82235   0.00000  Uiso   1.00
F593   F     0.38557   0.83529   0.81643   0.00000  Uiso   1.00
F594   F     0.11565   0.66318   0.84471   0.00000  Uiso   1.00
F595   F     0.27751   0.53134   0.91640   0.00000  Uiso   1.00
F596   F     0.17809   0.96848   0.79612   0.00000  Uiso   1.00
F597   F     0.22249   0.53135   0.75027   0.00000  Uiso   1.00
F598   F     0.32191   0.96847   0.87054   0.00000  Uiso   1.00
F599   F     0.18337   0.87166   0.78854   0.00000  Uiso   1.00
F600   F     0.21518   0.62787   0.75539   0.00000  Uiso   1.00
F601   F     0.31664   0.87165   0.87811   0.00000  Uiso   1.00
F602   F     0.02833   0.83256   0.86249   0.00000  Uiso   1.00
F603   F     0.46975   0.66377   0.80768   0.00000  Uiso   1.00
F604   F     0.47166   0.83245   0.80396   0.00000  Uiso   1.00
F605   F     0.03028   0.66387   0.85942   0.00000  Uiso   1.00
F606   F     0.11441   0.83535   0.84996   0.00000  Uiso   1.00
N607   N     0.25000   0.62934   0.83333   0.00000  Uiso   1.00
N608   N     0.25000   0.87065   0.83333   0.00000  Uiso   1.00
O609   O     0.18573   0.79071   0.83334   0.00000  Uiso   1.00
O610   O     0.31427   0.70928   0.83333   0.00000  Uiso   1.00
O611   O     0.31427   0.79071   0.83333   0.00000  Uiso   1.00
O612   O     0.18573   0.70928   0.83334   0.00000  Uiso   1.00
O613   O     0.25000   0.79071   0.76280   0.00000  Uiso   1.00
O614   O     0.25000   0.70929   0.90387   0.00000  Uiso   1.00
O615   O     0.25000   0.79071   0.90387   0.00000  Uiso   1.00
O616   O     0.25000   0.70929   0.76280   0.00000  Uiso   1.00
C617   C     0.66504   0.74996   0.83479   0.00000  Uiso   1.00
C618   C     0.78532   0.94605   0.85338   0.00000  Uiso   1.00
C619   C     0.74996   0.75000   0.74021   0.00000  Uiso   1.00
C620   C     0.75004   0.75000   0.92645   0.00000  Uiso   1.00
C621   C     0.75000   0.52720   0.83333   0.00000  Uiso   1.00
C622   C     0.75000   0.97264   0.83333   0.00000  Uiso   1.00
C623   C     0.74999   0.74999   0.68851   0.00000  Uiso   1.00
C624   C     0.75001   0.74999   0.97815   0.00000  Uiso   1.00
C625   C     0.54800   0.79187   0.84647   0.00000  Uiso   1.00
C626   C     0.95126   0.70550   0.82248   0.00000  Uiso   1.00
C627   C     0.95200   0.79182   0.82011   0.00000  Uiso   1.00
C628   C     0.83496   0.74995   0.83188   0.00000  Uiso   1.00
C629   C     0.54875   0.70554   0.84444   0.00000  Uiso   1.00
C630   C     0.59354   0.79258   0.84425   0.00000  Uiso   1.00
C631   C     0.90582   0.70587   0.82509   0.00000  Uiso   1.00
C632   C     0.90646   0.79254   0.82231   0.00000  Uiso   1.00
C633   C     0.59420   0.70590   0.84181   0.00000  Uiso   1.00
C634   C     0.61700   0.74959   0.83870   0.00000  Uiso   1.00
C635   C     0.88300   0.74957   0.82801   0.00000  Uiso   1.00
C636   C     0.52440   0.74859   0.83866   0.00000  Uiso   1.00
C637   C     0.97560   0.74857   0.82810   0.00000  Uiso   1.00
C638   C     0.76652   0.60433   0.87270   0.00000  Uiso   1.00
C639   C     0.71620   0.89552   0.81186   0.00000  Uiso   1.00
C640   C     0.73348   0.60433   0.79397   0.00000  Uiso   1.00
C641   C     0.78380   0.89551   0.85481   0.00000  Uiso   1.00
C642   C     0.76509   0.55378   0.87425   0.00000  Uiso   1.00
C643   C     0.71468   0.94606   0.81328   0.00000  Uiso   1.00
C644   C     0.73491   0.55378   0.79241   0.00000  Uiso   1.00
Cu645  Cu    0.75000   0.79821   0.83333   0.00000  Uiso   1.00
Cu646  Cu    0.75000   0.70178   0.83333   0.00000  Uiso   1.00
F647   F     0.78482   0.62786   0.91128   0.00000  Uiso   1.00
F648   F     0.88438   0.66313   0.82235   0.00000  Uiso   1.00
F649   F     0.88557   0.83529   0.81643   0.00000  Uiso   1.00
F650   F     0.61565   0.66318   0.84471   0.00000  Uiso   1.00
F651   F     0.77751   0.53134   0.91640   0.00000  Uiso   1.00
F652   F     0.67809   0.96848   0.79612   0.00000  Uiso   1.00
F653   F     0.72249   0.53135   0.75027   0.00000  Uiso   1.00
F654   F     0.82191   0.96847   0.87054   0.00000  Uiso   1.00
F655   F     0.68337   0.87166   0.78854   0.00000  Uiso   1.00
F656   F     0.71518   0.62787   0.75539   0.00000  Uiso   1.00
F657   F     0.81664   0.87165   0.87811   0.00000  Uiso   1.00
F658   F     0.52833   0.83256   0.86249   0.00000  Uiso   1.00
F659   F     0.96975   0.66377   0.80768   0.00000  Uiso   1.00
F660   F     0.97166   0.83245   0.80396   0.00000  Uiso   1.00
F661   F     0.53028   0.66387   0.85942   0.00000  Uiso   1.00
F662   F     0.61441   0.83535   0.84996   0.00000  Uiso   1.00
N663   N     0.75000   0.62934   0.83333   0.00000  Uiso   1.00
N664   N     0.75000   0.87065   0.83333   0.00000  Uiso   1.00
O665   O     0.68573   0.79071   0.83334   0.00000  Uiso   1.00
O666   O     0.81427   0.70928   0.83333   0.00000  Uiso   1.00
O667   O     0.81427   0.79071   0.83333   0.00000  Uiso   1.00
O668   O     0.68573   0.70928   0.83334   0.00000  Uiso   1.00
O669   O     0.75000   0.79071   0.76280   0.00000  Uiso   1.00
O670   O     0.75000   0.70929   0.90387   0.00000  Uiso   1.00
O671   O     0.75000   0.79071   0.90387   0.00000  Uiso   1.00
O672   O     0.75000   0.70929   0.76280   0.00000  Uiso   1.00
loop_
_geom_bond_atom_site_label_1
_geom_bond_atom_site_label_2
_geom_bond_distance
_geom_bond_site_symmetry_2
_ccdc_geom_bond_type
C1     C18     1.470   .     S
C1     O52     1.296   .     A
C1     O49     1.299   .     A
C2     C6      1.412   .     A
C2     C25     1.408   .     A
C2     F38     1.357   .     S
C3     O53     1.289   .     A
C3     O56     1.289   .     A
C3     C7      1.408   .     S
C4     C8      1.408   .     S
C4     O55     1.289   .     A
C4     O54     1.289   .     A
C5     C28     1.411   .     A
C5     C26     1.411   .     A
C5     C118    1.518   1_545 S
C6     C27     1.412   .     A
C6     C117    1.518   .     S
C7     C456    1.190   1_554 S
C8     C231    1.190   .     S
C9     C14     1.391   .     A
C9     C20     1.418   .     A
C9     F42     1.355   .     S
C10    C15     1.389   .     A
C10    C21     1.417   .     A
C10    F43     1.354   .     S
C11    F44     1.355   .     S
C11    C16     1.391   .     A
C11    C21     1.418   .     A
C12    O50     1.296   .     A
C12    C19     1.470   .     S
C12    O51     1.299   .     A
C13    C17     1.389   .     A
C13    F45     1.354   .     S
C13    C20     1.417   .     A
C14    C18     1.403   .     A
C14    F46     1.358   .     S
C15    C19     1.404   .     A
C15    F32     1.359   .     S
C16    C19     1.403   .     A
C16    F33     1.358   .     S
C17    C18     1.404   .     A
C17    F34     1.359   .     S
C20    C77     1.513   1_455 S
C21    C76     1.513   .     S
C22    N47     1.370   .     A
C22    F31     1.354   .     S
C22    C26     1.408   .     A
C23    C27     1.408   .     A
C23    F39     1.354   .     S
C23    N48     1.368   .     A
C24    F40     1.354   .     S
C24    N47     1.370   .     A
C24    C28     1.408   .     A
C25    N48     1.368   .     A
C25    F41     1.354   .     S
C26    F35     1.357   .     S
C27    F36     1.357   .     S
C28    F37     1.357   .     S
Cu29   Cu30    2.683   .     S
Cu29   O49     1.971   .     S
Cu29   O53     1.933   .     S
Cu29   N48     2.016   .     S
Cu29   O51     1.971   .     S
Cu29   O55     1.933   .     S
Cu30   O56     1.933   .     S
Cu30   O54     1.933   .     S
Cu30   O50     1.971   .     S
Cu30   N47     2.016   .     S
Cu30   O52     1.971   .     S
C57    C74     1.470   .     S
C57    O108    1.296   .     A
C57    O105    1.299   .     A
C58    C62     1.412   .     A
C58    C81     1.408   .     A
C58    F94     1.357   .     S
C59    O109    1.289   .     A
C59    O112    1.289   .     A
C59    C63     1.408   .     S
C60    C64     1.408   .     S
C60    O111    1.289   .     A
C60    O110    1.289   .     A
C61    C84     1.411   .     A
C61    C82     1.411   .     A
C61    C174    1.518   1_545 S
C62    C83     1.412   .     A
C62    C173    1.518   .     S
C63    C512    1.190   1_554 S
C64    C287    1.190   .     S
C65    C70     1.391   .     A
C65    C76     1.418   .     A
C65    F98     1.355   .     S
C66    C71     1.389   .     A
C66    C77     1.417   .     A
C66    F99     1.354   .     S
C67    F100    1.355   .     S
C67    C72     1.391   .     A
C67    C77     1.418   .     A
C68    O106    1.296   .     A
C68    C75     1.470   .     S
C68    O107    1.299   .     A
C69    C73     1.389   .     A
C69    F101    1.354   .     S
C69    C76     1.417   .     A
C70    C74     1.403   .     A
C70    F102    1.358   .     S
C71    C75     1.404   .     A
C71    F88     1.359   .     S
C72    C75     1.403   .     A
C72    F89     1.358   .     S
C73    C74     1.404   .     A
C73    F90     1.359   .     S
C77    C20     1.513   1_655 S
C78    N103    1.370   .     A
C78    F87     1.354   .     S
C78    C82     1.408   .     A
C79    C83     1.408   .     A
C79    F95     1.354   .     S
C79    N104    1.368   .     A
C80    F96     1.354   .     S
C80    N103    1.370   .     A
C80    C84     1.408   .     A
C81    N104    1.368   .     A
C81    F97     1.354   .     S
C82    F91     1.357   .     S
C83    F92     1.357   .     S
C84    F93     1.357   .     S
Cu85   Cu86    2.683   .     S
Cu85   O105    1.971   .     S
Cu85   O109    1.933   .     S
Cu85   N104    2.016   .     S
Cu85   O107    1.971   .     S
Cu85   O111    1.933   .     S
Cu86   O112    1.933   .     S
Cu86   O110    1.933   .     S
Cu86   O106    1.971   .     S
Cu86   N103    2.016   .     S
Cu86   O108    1.971   .     S
C113   C130    1.470   .     S
C113   O164    1.296   .     A
C113   O161    1.299   .     A
C114   C118    1.412   .     A
C114   C137    1.408   .     A
C114   F150    1.357   .     S
C115   O165    1.289   .     A
C115   O168    1.289   .     A
C115   C119    1.408   .     S
C116   C120    1.408   .     S
C116   O167    1.289   .     A
C116   O166    1.289   .     A
C117   C140    1.411   .     A
C117   C138    1.411   .     A
C118   C139    1.412   .     A
C118   C5      1.518   1_565 S
C119   C568    1.190   1_554 S
C120   C343    1.190   .     S
C121   C126    1.391   .     A
C121   C132    1.418   .     A
C121   F154    1.355   .     S
C122   C127    1.389   .     A
C122   C133    1.417   .     A
C122   F155    1.354   .     S
C123   F156    1.355   .     S
C123   C128    1.391   .     A
C123   C133    1.418   .     A
C124   O162    1.296   .     A
C124   C131    1.470   .     S
C124   O163    1.299   .     A
C125   C129    1.389   .     A
C125   F157    1.354   .     S
C125   C132    1.417   .     A
C126   C130    1.403   .     A
C126   F158    1.358   .     S
C127   C131    1.404   .     A
C127   F144    1.359   .     S
C128   C131    1.403   .     A
C128   F145    1.358   .     S
C129   C130    1.404   .     A
C129   F146    1.359   .     S
C132   C189    1.513   1_455 S
C133   C188    1.513   .     S
C134   N159    1.370   .     A
C134   F143    1.354   .     S
C134   C138    1.408   .     A
C135   C139    1.408   .     A
C135   F151    1.354   .     S
C135   N160    1.368   .     A
C136   F152    1.354   .     S
C136   N159    1.370   .     A
C136   C140    1.408   .     A
C137   N160    1.368   .     A
C137   F153    1.354   .     S
C138   F147    1.357   .     S
C139   F148    1.357   .     S
C140   F149    1.357   .     S
Cu141  Cu142   2.683   .     S
Cu141  O161    1.971   .     S
Cu141  O165    1.933   .     S
Cu141  N160    2.016   .     S
Cu141  O163    1.971   .     S
Cu141  O167    1.933   .     S
Cu142  O168    1.933   .     S
Cu142  O166    1.933   .     S
Cu142  O162    1.971   .     S
Cu142  N159    2.016   .     S
Cu142  O164    1.971   .     S
C169   C186    1.470   .     S
C169   O220    1.296   .     A
C169   O217    1.299   .     A
C170   C174    1.412   .     A
C170   C193    1.408   .     A
C170   F206    1.357   .     S
C171   O221    1.289   .     A
C171   O224    1.289   .     A
C171   C175    1.408   .     S
C172   C176    1.408   .     S
C172   O223    1.289   .     A
C172   O222    1.289   .     A
C173   C196    1.411   .     A
C173   C194    1.411   .     A
C174   C195    1.412   .     A
C174   C61     1.518   1_565 S
C175   C624    1.190   1_554 S
C176   C399    1.190   .     S
C177   C182    1.391   .     A
C177   C188    1.418   .     A
C177   F210    1.355   .     S
C178   C183    1.389   .     A
C178   C189    1.417   .     A
C178   F211    1.354   .     S
C179   F212    1.355   .     S
C179   C184    1.391   .     A
C179   C189    1.418   .     A
C180   O218    1.296   .     A
C180   C187    1.470   .     S
C180   O219    1.299   .     A
C181   C185    1.389   .     A
C181   F213    1.354   .     S
C181   C188    1.417   .     A
C182   C186    1.403   .     A
C182   F214    1.358   .     S
C183   C187    1.404   .     A
C183   F200    1.359   .     S
C184   C187    1.403   .     A
C184   F201    1.358   .     S
C185   C186    1.404   .     A
C185   F202    1.359   .     S
C189   C132    1.513   1_655 S
C190   N215    1.370   .     A
C190   F199    1.354   .     S
C190   C194    1.408   .     A
C191   C195    1.408   .     A
C191   F207    1.354   .     S
C191   N216    1.368   .     A
C192   F208    1.354   .     S
C192   N215    1.370   .     A
C192   C196    1.408   .     A
C193   N216    1.368   .     A
C193   F209    1.354   .     S
C194   F203    1.357   .     S
C195   F204    1.357   .     S
C196   F205    1.357   .     S
Cu197  Cu198   2.683   .     S
Cu197  O217    1.971   .     S
Cu197  O221    1.933   .     S
Cu197  N216    2.016   .     S
Cu197  O219    1.971   .     S
Cu197  O223    1.933   .     S
Cu198  O224    1.933   .     S
Cu198  O222    1.933   .     S
Cu198  O218    1.971   .     S
Cu198  N215    2.016   .     S
Cu198  O220    1.971   .     S
C225   C242    1.470   .     S
C225   O276    1.296   .     A
C225   O273    1.299   .     A
C226   C230    1.412   .     A
C226   C249    1.408   .     A
C226   F262    1.357   .     S
C227   O277    1.289   .     A
C227   O280    1.289   .     A
C227   C231    1.408   .     S
C228   C232    1.408   .     S
C228   O279    1.289   .     A
C228   O278    1.289   .     A
C229   C252    1.411   .     A
C229   C250    1.411   .     A
C229   C342    1.518   1_545 S
C230   C251    1.412   .     A
C230   C341    1.518   .     S
C232   C455    1.190   .     S
C233   C238    1.391   .     A
C233   C244    1.418   .     A
C233   F266    1.355   .     S
C234   C239    1.389   .     A
C234   C245    1.417   .     A
C234   F267    1.354   .     S
C235   F268    1.355   .     S
C235   C240    1.391   .     A
C235   C245    1.418   .     A
C236   O274    1.296   .     A
C236   C243    1.470   .     S
C236   O275    1.299   .     A
C237   C241    1.389   .     A
C237   F269    1.354   .     S
C237   C244    1.417   .     A
C238   C242    1.403   .     A
C238   F270    1.358   .     S
C239   C243    1.404   .     A
C239   F256    1.359   .     S
C240   C243    1.403   .     A
C240   F257    1.358   .     S
C241   C242    1.404   .     A
C241   F258    1.359   .     S
C244   C301    1.513   1_455 S
C245   C300    1.513   .     S
C246   N271    1.370   .     A
C246   F255    1.354   .     S
C246   C250    1.408   .     A
C247   C251    1.408   .     A
C247   F263    1.354   .     S
C247   N272    1.368   .     A
C248   F264    1.354   .     S
C248   N271    1.370   .     A
C248   C252    1.408   .     A
C249   N272    1.368   .     A
C249   F265    1.354   .     S
C250   F259    1.357   .     S
C251   F260    1.357   .     S
C252   F261    1.357   .     S
Cu253  Cu254   2.683   .     S
Cu253  O273    1.971   .     S
Cu253  O277    1.933   .     S
Cu253  N272    2.016   .     S
Cu253  O275    1.971   .     S
Cu253  O279    1.933   .     S
Cu254  O280    1.933   .     S
Cu254  O278    1.933   .     S
Cu254  O274    1.971   .     S
Cu254  N271    2.016   .     S
Cu254  O276    1.971   .     S
C281   C298    1.470   .     S
C281   O332    1.296   .     A
C281   O329    1.299   .     A
C282   C286    1.412   .     A
C282   C305    1.408   .     A
C282   F318    1.357   .     S
C283   O333    1.289   .     A
C283   O336    1.289   .     A
C283   C287    1.408   .     S
C284   C288    1.408   .     S
C284   O335    1.289   .     A
C284   O334    1.289   .     A
C285   C308    1.411   .     A
C285   C306    1.411   .     A
C285   C398    1.518   1_545 S
C286   C307    1.412   .     A
C286   C397    1.518   .     S
C288   C511    1.190   .     S
C289   C294    1.391   .     A
C289   C300    1.418   .     A
C289   F322    1.355   .     S
C290   C295    1.389   .     A
C290   C301    1.417   .     A
C290   F323    1.354   .     S
C291   F324    1.355   .     S
C291   C296    1.391   .     A
C291   C301    1.418   .     A
C292   O330    1.296   .     A
C292   C299    1.470   .     S
C292   O331    1.299   .     A
C293   C297    1.389   .     A
C293   F325    1.354   .     S
C293   C300    1.417   .     A
C294   C298    1.403   .     A
C294   F326    1.358   .     S
C295   C299    1.404   .     A
C295   F312    1.359   .     S
C296   C299    1.403   .     A
C296   F313    1.358   .     S
C297   C298    1.404   .     A
C297   F314    1.359   .     S
C301   C244    1.513   1_655 S
C302   N327    1.370   .     A
C302   F311    1.354   .     S
C302   C306    1.408   .     A
C303   C307    1.408   .     A
C303   F319    1.354   .     S
C303   N328    1.368   .     A
C304   F320    1.354   .     S
C304   N327    1.370   .     A
C304   C308    1.408   .     A
C305   N328    1.368   .     A
C305   F321    1.354   .     S
C306   F315    1.357   .     S
C307   F316    1.357   .     S
C308   F317    1.357   .     S
Cu309  Cu310   2.683   .     S
Cu309  O329    1.971   .     S
Cu309  O333    1.933   .     S
Cu309  N328    2.016   .     S
Cu309  O331    1.971   .     S
Cu309  O335    1.933   .     S
Cu310  O336    1.933   .     S
Cu310  O334    1.933   .     S
Cu310  O330    1.971   .     S
Cu310  N327    2.016   .     S
Cu310  O332    1.971   .     S
C337   C354    1.470   .     S
C337   O388    1.296   .     A
C337   O385    1.299   .     A
C338   C342    1.412   .     A
C338   C361    1.408   .     A
C338   F374    1.357   .     S
C339   O389    1.289   .     A
C339   O392    1.289   .     A
C339   C343    1.408   .     S
C340   C344    1.408   .     S
C340   O391    1.289   .     A
C340   O390    1.289   .     A
C341   C364    1.411   .     A
C341   C362    1.411   .     A
C342   C363    1.412   .     A
C342   C229    1.518   1_565 S
C344   C567    1.190   .     S
C345   C350    1.391   .     A
C345   C356    1.418   .     A
C345   F378    1.355   .     S
C346   C351    1.389   .     A
C346   C357    1.417   .     A
C346   F379    1.354   .     S
C347   F380    1.355   .     S
C347   C352    1.391   .     A
C347   C357    1.418   .     A
C348   O386    1.296   .     A
C348   C355    1.470   .     S
C348   O387    1.299   .     A
C349   C353    1.389   .     A
C349   F381    1.354   .     S
C349   C356    1.417   .     A
C350   C354    1.403   .     A
C350   F382    1.358   .     S
C351   C355    1.404   .     A
C351   F368    1.359   .     S
C352   C355    1.403   .     A
C352   F369    1.358   .     S
C353   C354    1.404   .     A
C353   F370    1.359   .     S
C356   C413    1.513   1_455 S
C357   C412    1.513   .     S
C358   N383    1.370   .     A
C358   F367    1.354   .     S
C358   C362    1.408   .     A
C359   C363    1.408   .     A
C359   F375    1.354   .     S
C359   N384    1.368   .     A
C360   F376    1.354   .     S
C360   N383    1.370   .     A
C360   C364    1.408   .     A
C361   N384    1.368   .     A
C361   F377    1.354   .     S
C362   F371    1.357   .     S
C363   F372    1.357   .     S
C364   F373    1.357   .     S
Cu365  Cu366   2.683   .     S
Cu365  O385    1.971   .     S
Cu365  O389    1.933   .     S
Cu365  N384    2.016   .     S
Cu365  O387    1.971   .     S
Cu365  O391    1.933   .     S
Cu366  O392    1.933   .     S
Cu366  O390    1.933   .     S
Cu366  O386    1.971   .     S
Cu366  N383    2.016   .     S
Cu366  O388    1.971   .     S
C393   C410    1.470   .     S
C393   O444    1.296   .     A
C393   O441    1.299   .     A
C394   C398    1.412   .     A
C394   C417    1.408   .     A
C394   F430    1.357   .     S
C395   O445    1.289   .     A
C395   O448    1.289   .     A
C395   C399    1.408   .     S
C396   C400    1.408   .     S
C396   O447    1.289   .     A
C396   O446    1.289   .     A
C397   C420    1.411   .     A
C397   C418    1.411   .     A
C398   C419    1.412   .     A
C398   C285    1.518   1_565 S
C400   C623    1.190   .     S
C401   C406    1.391   .     A
C401   C412    1.418   .     A
C401   F434    1.355   .     S
C402   C407    1.389   .     A
C402   C413    1.417   .     A
C402   F435    1.354   .     S
C403   F436    1.355   .     S
C403   C408    1.391   .     A
C403   C413    1.418   .     A
C404   O442    1.296   .     A
C404   C411    1.470   .     S
C404   O443    1.299   .     A
C405   C409    1.389   .     A
C405   F437    1.354   .     S
C405   C412    1.417   .     A
C406   C410    1.403   .     A
C406   F438    1.358   .     S
C407   C411    1.404   .     A
C407   F424    1.359   .     S
C408   C411    1.403   .     A
C408   F425    1.358   .     S
C409   C410    1.404   .     A
C409   F426    1.359   .     S
C413   C356    1.513   1_655 S
C414   N439    1.370   .     A
C414   F423    1.354   .     S
C414   C418    1.408   .     A
C415   C419    1.408   .     A
C415   F431    1.354   .     S
C415   N440    1.368   .     A
C416   F432    1.354   .     S
C416   N439    1.370   .     A
C416   C420    1.408   .     A
C417   N440    1.368   .     A
C417   F433    1.354   .     S
C418   F427    1.357   .     S
C419   F428    1.357   .     S
C420   F429    1.357   .     S
Cu421  Cu422   2.683   .     S
Cu421  O441    1.971   .     S
Cu421  O445    1.933   .     S
Cu421  N440    2.016   .     S
Cu421  O443    1.971   .     S
Cu421  O447    1.933   .     S
Cu422  O448    1.933   .     S
Cu422  O446    1.933   .     S
Cu422  O442    1.971   .     S
Cu422  N439    2.016   .     S
Cu422  O444    1.971   .     S
C449   C466    1.470   .     S
C449   O500    1.296   .     A
C449   O497    1.299   .     A
C450   C454    1.412   .     A
C450   C473    1.408   .     A
C450   F486    1.357   .     S
C451   O501    1.289   .     A
C451   O504    1.289   .     A
C451   C455    1.408   .     S
C452   C456    1.408   .     S
C452   O503    1.289   .     A
C452   O502    1.289   .     A
C453   C476    1.411   .     A
C453   C474    1.411   .     A
C453   C566    1.518   1_545 S
C454   C475    1.412   .     A
C454   C565    1.518   .     S
C456   C7      1.190   1_556 S
C457   C462    1.391   .     A
C457   C468    1.418   .     A
C457   F490    1.355   .     S
C458   C463    1.389   .     A
C458   C469    1.417   .     A
C458   F491    1.354   .     S
C459   F492    1.355   .     S
C459   C464    1.391   .     A
C459   C469    1.418   .     A
C460   O498    1.296   .     A
C460   C467    1.470   .     S
C460   O499    1.299   .     A
C461   C465    1.389   .     A
C461   F493    1.354   .     S
C461   C468    1.417   .     A
C462   C466    1.403   .     A
C462   F494    1.358   .     S
C463   C467    1.404   .     A
C463   F480    1.359   .     S
C464   C467    1.403   .     A
C464   F481    1.358   .     S
C465   C466    1.404   .     A
C465   F482    1.359   .     S
C468   C525    1.513   1_455 S
C469   C524    1.513   .     S
C470   N495    1.370   .     A
C470   F479    1.354   .     S
C470   C474    1.408   .     A
C471   C475    1.408   .     A
C471   F487    1.354   .     S
C471   N496    1.368   .     A
C472   F488    1.354   .     S
C472   N495    1.370   .     A
C472   C476    1.408   .     A
C473   N496    1.368   .     A
C473   F489    1.354   .     S
C474   F483    1.357   .     S
C475   F484    1.357   .     S
C476   F485    1.357   .     S
Cu477  Cu478   2.683   .     S
Cu477  O497    1.971   .     S
Cu477  O501    1.933   .     S
Cu477  N496    2.016   .     S
Cu477  O499    1.971   .     S
Cu477  O503    1.933   .     S
Cu478  O504    1.933   .     S
Cu478  O502    1.933   .     S
Cu478  O498    1.971   .     S
Cu478  N495    2.016   .     S
Cu478  O500    1.971   .     S
C505   C522    1.470   .     S
C505   O556    1.296   .     A
C505   O553    1.299   .     A
C506   C510    1.412   .     A
C506   C529    1.408   .     A
C506   F542    1.357   .     S
C507   O557    1.289   .     A
C507   O560    1.289   .     A
C507   C511    1.408   .     S
C508   C512    1.408   .     S
C508   O559    1.289   .     A
C508   O558    1.289   .     A
C509   C532    1.411   .     A
C509   C530    1.411   .     A
C509   C622    1.518   1_545 S
C510   C531    1.412   .     A
C510   C621    1.518   .     S
C512   C63     1.190   1_556 S
C513   C518    1.391   .     A
C513   C524    1.418   .     A
C513   F546    1.355   .     S
C514   C519    1.389   .     A
C514   C525    1.417   .     A
C514   F547    1.354   .     S
C515   F548    1.355   .     S
C515   C520    1.391   .     A
C515   C525    1.418   .     A
C516   O554    1.296   .     A
C516   C523    1.470   .     S
C516   O555    1.299   .     A
C517   C521    1.389   .     A
C517   F549    1.354   .     S
C517   C524    1.417   .     A
C518   C522    1.403   .     A
C518   F550    1.358   .     S
C519   C523    1.404   .     A
C519   F536    1.359   .     S
C520   C523    1.403   .     A
C520   F537    1.358   .     S
C521   C522    1.404   .     A
C521   F538    1.359   .     S
C525   C468    1.513   1_655 S
C526   N551    1.370   .     A
C526   F535    1.354   .     S
C526   C530    1.408   .     A
C527   C531    1.408   .     A
C527   F543    1.354   .     S
C527   N552    1.368   .     A
C528   F544    1.354   .     S
C528   N551    1.370   .     A
C528   C532    1.408   .     A
C529   N552    1.368   .     A
C529   F545    1.354   .     S
C530   F539    1.357   .     S
C531   F540    1.357   .     S
C532   F541    1.357   .     S
Cu533  Cu534   2.683   .     S
Cu533  O553    1.971   .     S
Cu533  O557    1.933   .     S
Cu533  N552    2.016   .     S
Cu533  O555    1.971   .     S
Cu533  O559    1.933   .     S
Cu534  O560    1.933   .     S
Cu534  O558    1.933   .     S
Cu534  O554    1.971   .     S
Cu534  N551    2.016   .     S
Cu534  O556    1.971   .     S
C561   C578    1.470   .     S
C561   O612    1.296   .     A
C561   O609    1.299   .     A
C562   C566    1.412   .     A
C562   C585    1.408   .     A
C562   F598    1.357   .     S
C563   O613    1.289   .     A
C563   O616    1.289   .     A
C563   C567    1.408   .     S
C564   C568    1.408   .     S
C564   O615    1.289   .     A
C564   O614    1.289   .     A
C565   C588    1.411   .     A
C565   C586    1.411   .     A
C566   C587    1.412   .     A
C566   C453    1.518   1_565 S
C568   C119    1.190   1_556 S
C569   C574    1.391   .     A
C569   C580    1.418   .     A
C569   F602    1.355   .     S
C570   C575    1.389   .     A
C570   C581    1.417   .     A
C570   F603    1.354   .     S
C571   F604    1.355   .     S
C571   C576    1.391   .     A
C571   C581    1.418   .     A
C572   O610    1.296   .     A
C572   C579    1.470   .     S
C572   O611    1.299   .     A
C573   C577    1.389   .     A
C573   F605    1.354   .     S
C573   C580    1.417   .     A
C574   C578    1.403   .     A
C574   F606    1.358   .     S
C575   C579    1.404   .     A
C575   F592    1.359   .     S
C576   C579    1.403   .     A
C576   F593    1.358   .     S
C577   C578    1.404   .     A
C577   F594    1.359   .     S
C580   C637    1.513   1_455 S
C581   C636    1.513   .     S
C582   N607    1.370   .     A
C582   F591    1.354   .     S
C582   C586    1.408   .     A
C583   C587    1.408   .     A
C583   F599    1.354   .     S
C583   N608    1.368   .     A
C584   F600    1.354   .     S
C584   N607    1.370   .     A
C584   C588    1.408   .     A
C585   N608    1.368   .     A
C585   F601    1.354   .     S
C586   F595    1.357   .     S
C587   F596    1.357   .     S
C588   F597    1.357   .     S
Cu589  Cu590   2.683   .     S
Cu589  O609    1.971   .     S
Cu589  O613    1.933   .     S
Cu589  N608    2.016   .     S
Cu589  O611    1.971   .     S
Cu589  O615    1.933   .     S
Cu590  O616    1.933   .     S
Cu590  O614    1.933   .     S
Cu590  O610    1.971   .     S
Cu590  N607    2.016   .     S
Cu590  O612    1.971   .     S
C617   C634    1.470   .     S
C617   O668    1.296   .     A
C617   O665    1.299   .     A
C618   C622    1.412   .     A
C618   C641    1.408   .     A
C618   F654    1.357   .     S
C619   O669    1.289   .     A
C619   O672    1.289   .     A
C619   C623    1.408   .     S
C620   C624    1.408   .     S
C620   O671    1.289   .     A
C620   O670    1.289   .     A
C621   C644    1.411   .     A
C621   C642    1.411   .     A
C622   C643    1.412   .     A
C622   C509    1.518   1_565 S
C624   C175    1.190   1_556 S
C625   C630    1.391   .     A
C625   C636    1.418   .     A
C625   F658    1.355   .     S
C626   C631    1.389   .     A
C626   C637    1.417   .     A
C626   F659    1.354   .     S
C627   F660    1.355   .     S
C627   C632    1.391   .     A
C627   C637    1.418   .     A
C628   O666    1.296   .     A
C628   C635    1.470   .     S
C628   O667    1.299   .     A
C629   C633    1.389   .     A
C629   F661    1.354   .     S
C629   C636    1.417   .     A
C630   C634    1.403   .     A
C630   F662    1.358   .     S
C631   C635    1.404   .     A
C631   F648    1.359   .     S
C632   C635    1.403   .     A
C632   F649    1.358   .     S
C633   C634    1.404   .     A
C633   F650    1.359   .     S
C637   C580    1.513   1_655 S
C638   N663    1.370   .     A
C638   F647    1.354   .     S
C638   C642    1.408   .     A
C639   C643    1.408   .     A
C639   F655    1.354   .     S
C639   N664    1.368   .     A
C640   F656    1.354   .     S
C640   N663    1.370   .     A
C640   C644    1.408   .     A
C641   N664    1.368   .     A
C641   F657    1.354   .     S
C642   F651    1.357   .     S
C643   F652    1.357   .     S
C644   F653    1.357   .     S
Cu645  Cu646   2.683   .     S
Cu645  O665    1.971   .     S
Cu645  O669    1.933   .     S
Cu645  N664    2.016   .     S
Cu645  O667    1.971   .     S
Cu645  O671    1.933   .     S
Cu646  O672    1.933   .     S
Cu646  O670    1.933   .     S
Cu646  O666    1.971   .     S
Cu646  N663    2.016   .     S
Cu646  O668    1.971   .     S
