data_str_m2_o10_o17_pcu_sym.150
_audit_creation_date              2020-01-03
_audit_creation_method            'Materials Studio'
_symmetry_space_group_name_H-M    'P1'
_symmetry_Int_Tables_number       1
_symmetry_cell_setting            triclinic
loop_
_symmetry_equiv_pos_as_xyz
  x,y,z
_cell_length_a                    30.1236
_cell_length_b                    26.1348
_cell_length_c                    22.4844
_cell_angle_alpha                 102.7432
_cell_angle_beta                  93.8723
_cell_angle_gamma                 91.7544
loop_
_atom_site_label
_atom_site_type_symbol
_atom_site_fract_x
_atom_site_fract_y
_atom_site_fract_z
_atom_site_U_iso_or_equiv
_atom_site_adp_type
_atom_site_occupancy
C1     C     0.25218   0.06696   0.15127   0.00000  Uiso   1.00
C2     C     0.25242   0.26645   0.18206   0.00000  Uiso   1.00
C3     C     0.01618   0.07635   0.10706   0.00000  Uiso   1.00
C4     C     0.48254   0.25797   0.22370   0.00000  Uiso   1.00
C5     C     0.25906   0.01134   0.14415   0.00000  Uiso   1.00
C6     C     0.25165   0.32226   0.19095   0.00000  Uiso   1.00
C7     C     0.16452   0.16595   0.16761   0.00000  Uiso   1.00
C8     C     0.33525   0.16710   0.16569   0.00000  Uiso   1.00
C9     C     0.40892   0.21416   0.19358   0.00000  Uiso   1.00
C10    C     0.09004   0.11948   0.13920   0.00000  Uiso   1.00
C11    C     0.38324   0.16890   0.16377   0.00000  Uiso   1.00
C12    C     0.11611   0.16443   0.16943   0.00000  Uiso   1.00
C13    C     0.40320   0.12407   0.13369   0.00000  Uiso   1.00
C14    C     0.09593   0.20936   0.19933   0.00000  Uiso   1.00
C15    C     0.44957   0.12245   0.13441   0.00000  Uiso   1.00
C16    C     0.04942   0.21173   0.19695   0.00000  Uiso   1.00
C17    C     0.47609   0.16763   0.16472   0.00000  Uiso   1.00
C18    C     0.02288   0.16669   0.16634   0.00000  Uiso   1.00
C19    C     0.45577   0.21358   0.19406   0.00000  Uiso   1.00
C20    C     0.04313   0.12058   0.13742   0.00000  Uiso   1.00
C21    C     0.46950   0.07607   0.10638   0.00000  Uiso   1.00
C22    C     0.02932   0.25851   0.22392   0.00000  Uiso   1.00
Cu23   Cu    0.25500   0.17246   0.22813   0.00000  Uiso   1.00
Cu24   Cu    0.24499   0.16087   0.10521   0.00000  Uiso   1.00
H25    H     0.38215   0.08994   0.11120   0.00000  Uiso   1.00
H26    H     0.11694   0.24279   0.22371   0.00000  Uiso   1.00
H27    H     0.03146   0.04183   0.08304   0.00000  Uiso   1.00
H28    H     0.46675   0.29231   0.24716   0.00000  Uiso   1.00
H29    H     0.21212   0.13081   0.31754   0.00000  Uiso   1.00
H30    H     0.28814   0.20210   0.01577   0.00000  Uiso   1.00
N31    N     0.23744   0.15214   0.01284   0.00000  Uiso   1.00
N32    N     0.26255   0.18119   0.32049   0.00000  Uiso   1.00
O33    O     0.25325   0.09538   0.20659   0.00000  Uiso   1.00
O34    O     0.24674   0.23796   0.12674   0.00000  Uiso   1.00
O35    O     0.24480   0.08559   0.10279   0.00000  Uiso   1.00
O36    O     0.25520   0.24774   0.23055   0.00000  Uiso   1.00
O37    O     0.18935   0.17155   0.21857   0.00000  Uiso   1.00
O38    O     0.31064   0.16179   0.11476   0.00000  Uiso   1.00
O39    O     0.18090   0.16176   0.11477   0.00000  Uiso   1.00
O40    O     0.31910   0.17157   0.21857   0.00000  Uiso   1.00
C41    C     0.38678   0.26224   0.22302   0.00000  Uiso   1.00
C42    C     0.37740   0.30119   0.19048   0.00000  Uiso   1.00
C43    C     0.36154   0.01577   0.22028   0.00000  Uiso   1.00
C44    C     0.35432   0.02470   0.28239   0.00000  Uiso   1.00
C45    C     0.36273   0.31892   0.31463   0.00000  Uiso   1.00
C46    C     0.37886   0.27110   0.28511   0.00000  Uiso   1.00
H47    H     0.38298   0.29476   0.14248   0.00000  Uiso   1.00
H48    H     0.35481   0.04597   0.19526   0.00000  Uiso   1.00
H49    H     0.34207   0.06181   0.30546   0.00000  Uiso   1.00
H50    H     0.35738   0.32593   0.02946   0.00000  Uiso   1.00
H51    H     0.38600   0.24137   0.31072   0.00000  Uiso   1.00
C52    C     0.11135   0.06984   0.11403   0.00000  Uiso   1.00
C53    C     0.11702   0.05492   0.05142   0.00000  Uiso   1.00
C54    C     0.12822   0.00366   0.02595   0.00000  Uiso   1.00
C55    C     0.13620   0.30132   0.06287   0.00000  Uiso   1.00
C56    C     0.13193   0.31659   0.12549   0.00000  Uiso   1.00
C57    C     0.11850   0.03360   0.15080   0.00000  Uiso   1.00
H58    H     0.11069   0.08217   0.02226   0.00000  Uiso   1.00
H59    H     0.12993   0.32453   0.31073   0.00000  Uiso   1.00
H60    H     0.14540   0.26186   0.04289   0.00000  Uiso   1.00
H61    H     0.13822   0.28908   0.15403   0.00000  Uiso   1.00
H62    H     0.11287   0.04418   0.19876   0.00000  Uiso   1.00
O63    O     0.44208   0.03299   0.07553   0.00000  Uiso   1.00
C64    C     0.46090   0.31757   0.07648   0.00000  Uiso   1.00
H65    H     0.47740   0.31673   0.12194   0.00000  Uiso   1.00
H66    H     0.48410   0.30726   0.03979   0.00000  Uiso   1.00
H67    H     0.43396   0.28648   0.06670   0.00000  Uiso   1.00
O68    O     0.05688   0.30246   0.25178   0.00000  Uiso   1.00
C69    C     0.03560   0.01733   0.25862   0.00000  Uiso   1.00
H70    H     0.01435   0.02305   0.29781   0.00000  Uiso   1.00
H71    H     0.01656   0.02091   0.21579   0.00000  Uiso   1.00
H72    H     0.06120   0.04990   0.26955   0.00000  Uiso   1.00
O73    O     0.28279   0.31749   0.09704   0.00000  Uiso   1.00
C74    C     0.26227   0.31867   0.03957   0.00000  Uiso   1.00
H75    H     0.27357   0.02132   0.02556   0.00000  Uiso   1.00
H76    H     0.22538   0.31388   0.03780   0.00000  Uiso   1.00
H77    H     0.27404   0.28565   0.00591   0.00000  Uiso   1.00
O78    O     0.24753   0.01793   0.24960   0.00000  Uiso   1.00
C79    C     0.20223   0.02004   0.26019   0.00000  Uiso   1.00
H80    H     0.18551   0.31355   0.25003   0.00000  Uiso   1.00
H81    H     0.18560   0.04587   0.23372   0.00000  Uiso   1.00
H82    H     0.19951   0.03848   0.30895   0.00000  Uiso   1.00
C83    C     0.75218   0.06696   0.15127   0.00000  Uiso   1.00
C84    C     0.75242   0.26645   0.18206   0.00000  Uiso   1.00
C85    C     0.51618   0.07635   0.10706   0.00000  Uiso   1.00
C86    C     0.98254   0.25797   0.22370   0.00000  Uiso   1.00
C87    C     0.75906   0.01134   0.14415   0.00000  Uiso   1.00
C88    C     0.75165   0.32226   0.19095   0.00000  Uiso   1.00
C89    C     0.66452   0.16595   0.16761   0.00000  Uiso   1.00
C90    C     0.83525   0.16710   0.16569   0.00000  Uiso   1.00
C91    C     0.90892   0.21416   0.19358   0.00000  Uiso   1.00
C92    C     0.59004   0.11948   0.13920   0.00000  Uiso   1.00
C93    C     0.88324   0.16890   0.16377   0.00000  Uiso   1.00
C94    C     0.61611   0.16443   0.16943   0.00000  Uiso   1.00
C95    C     0.90320   0.12407   0.13369   0.00000  Uiso   1.00
C96    C     0.59593   0.20936   0.19933   0.00000  Uiso   1.00
C97    C     0.94957   0.12245   0.13441   0.00000  Uiso   1.00
C98    C     0.54942   0.21173   0.19695   0.00000  Uiso   1.00
C99    C     0.97609   0.16763   0.16472   0.00000  Uiso   1.00
C100   C     0.52288   0.16669   0.16634   0.00000  Uiso   1.00
C101   C     0.95577   0.21358   0.19406   0.00000  Uiso   1.00
C102   C     0.54313   0.12058   0.13742   0.00000  Uiso   1.00
C103   C     0.96950   0.07607   0.10638   0.00000  Uiso   1.00
C104   C     0.52932   0.25851   0.22392   0.00000  Uiso   1.00
Cu105  Cu    0.75500   0.17246   0.22813   0.00000  Uiso   1.00
Cu106  Cu    0.74499   0.16087   0.10521   0.00000  Uiso   1.00
H107   H     0.88215   0.08994   0.11120   0.00000  Uiso   1.00
H108   H     0.61694   0.24279   0.22371   0.00000  Uiso   1.00
H109   H     0.53146   0.04183   0.08304   0.00000  Uiso   1.00
H110   H     0.96675   0.29231   0.24716   0.00000  Uiso   1.00
H111   H     0.71212   0.13081   0.31754   0.00000  Uiso   1.00
H112   H     0.78814   0.20210   0.01577   0.00000  Uiso   1.00
N113   N     0.73744   0.15214   0.01284   0.00000  Uiso   1.00
N114   N     0.76255   0.18119   0.32049   0.00000  Uiso   1.00
O115   O     0.75325   0.09538   0.20659   0.00000  Uiso   1.00
O116   O     0.74674   0.23796   0.12674   0.00000  Uiso   1.00
O117   O     0.74480   0.08559   0.10279   0.00000  Uiso   1.00
O118   O     0.75520   0.24774   0.23055   0.00000  Uiso   1.00
O119   O     0.68935   0.17155   0.21857   0.00000  Uiso   1.00
O120   O     0.81064   0.16179   0.11476   0.00000  Uiso   1.00
O121   O     0.68090   0.16176   0.11477   0.00000  Uiso   1.00
O122   O     0.81910   0.17157   0.21857   0.00000  Uiso   1.00
C123   C     0.88678   0.26224   0.22302   0.00000  Uiso   1.00
C124   C     0.87740   0.30119   0.19048   0.00000  Uiso   1.00
C125   C     0.86154   0.01577   0.22028   0.00000  Uiso   1.00
C126   C     0.85432   0.02470   0.28239   0.00000  Uiso   1.00
C127   C     0.86273   0.31892   0.31463   0.00000  Uiso   1.00
C128   C     0.87886   0.27110   0.28511   0.00000  Uiso   1.00
H129   H     0.88298   0.29476   0.14248   0.00000  Uiso   1.00
H130   H     0.85481   0.04597   0.19526   0.00000  Uiso   1.00
H131   H     0.84207   0.06181   0.30546   0.00000  Uiso   1.00
H132   H     0.85738   0.32593   0.02946   0.00000  Uiso   1.00
H133   H     0.88600   0.24137   0.31072   0.00000  Uiso   1.00
C134   C     0.61135   0.06984   0.11403   0.00000  Uiso   1.00
C135   C     0.61702   0.05492   0.05142   0.00000  Uiso   1.00
C136   C     0.62822   0.00366   0.02595   0.00000  Uiso   1.00
C137   C     0.63620   0.30132   0.06287   0.00000  Uiso   1.00
C138   C     0.63193   0.31659   0.12549   0.00000  Uiso   1.00
C139   C     0.61850   0.03360   0.15080   0.00000  Uiso   1.00
H140   H     0.61069   0.08217   0.02226   0.00000  Uiso   1.00
H141   H     0.62993   0.32453   0.31073   0.00000  Uiso   1.00
H142   H     0.64540   0.26186   0.04289   0.00000  Uiso   1.00
H143   H     0.63822   0.28908   0.15403   0.00000  Uiso   1.00
H144   H     0.61287   0.04418   0.19876   0.00000  Uiso   1.00
O145   O     0.94208   0.03299   0.07553   0.00000  Uiso   1.00
C146   C     0.96090   0.31757   0.07648   0.00000  Uiso   1.00
H147   H     0.97740   0.31673   0.12194   0.00000  Uiso   1.00
H148   H     0.98410   0.30726   0.03979   0.00000  Uiso   1.00
H149   H     0.93396   0.28648   0.06670   0.00000  Uiso   1.00
O150   O     0.55688   0.30246   0.25178   0.00000  Uiso   1.00
C151   C     0.53560   0.01733   0.25862   0.00000  Uiso   1.00
H152   H     0.51435   0.02305   0.29781   0.00000  Uiso   1.00
H153   H     0.51656   0.02091   0.21579   0.00000  Uiso   1.00
H154   H     0.56120   0.04990   0.26955   0.00000  Uiso   1.00
O155   O     0.78279   0.31749   0.09704   0.00000  Uiso   1.00
C156   C     0.76227   0.31867   0.03957   0.00000  Uiso   1.00
H157   H     0.77357   0.02132   0.02556   0.00000  Uiso   1.00
H158   H     0.72538   0.31388   0.03780   0.00000  Uiso   1.00
H159   H     0.77404   0.28565   0.00591   0.00000  Uiso   1.00
O160   O     0.74753   0.01793   0.24960   0.00000  Uiso   1.00
C161   C     0.70223   0.02004   0.26019   0.00000  Uiso   1.00
H162   H     0.68551   0.31355   0.25003   0.00000  Uiso   1.00
H163   H     0.68560   0.04587   0.23372   0.00000  Uiso   1.00
H164   H     0.69951   0.03848   0.30895   0.00000  Uiso   1.00
C165   C     0.25218   0.40029   0.15127   0.00000  Uiso   1.00
C166   C     0.25242   0.59979   0.18206   0.00000  Uiso   1.00
C167   C     0.01618   0.40968   0.10706   0.00000  Uiso   1.00
C168   C     0.48254   0.59131   0.22370   0.00000  Uiso   1.00
C169   C     0.25906   0.34467   0.14415   0.00000  Uiso   1.00
C170   C     0.25165   0.65560   0.19095   0.00000  Uiso   1.00
C171   C     0.16452   0.49928   0.16761   0.00000  Uiso   1.00
C172   C     0.33525   0.50043   0.16569   0.00000  Uiso   1.00
C173   C     0.40892   0.54749   0.19358   0.00000  Uiso   1.00
C174   C     0.09004   0.45281   0.13920   0.00000  Uiso   1.00
C175   C     0.38324   0.50223   0.16377   0.00000  Uiso   1.00
C176   C     0.11611   0.49777   0.16943   0.00000  Uiso   1.00
C177   C     0.40320   0.45740   0.13369   0.00000  Uiso   1.00
C178   C     0.09593   0.54269   0.19933   0.00000  Uiso   1.00
C179   C     0.44957   0.45578   0.13441   0.00000  Uiso   1.00
C180   C     0.04942   0.54507   0.19695   0.00000  Uiso   1.00
C181   C     0.47609   0.50096   0.16472   0.00000  Uiso   1.00
C182   C     0.02288   0.50002   0.16634   0.00000  Uiso   1.00
C183   C     0.45577   0.54691   0.19406   0.00000  Uiso   1.00
C184   C     0.04313   0.45391   0.13742   0.00000  Uiso   1.00
C185   C     0.46950   0.40941   0.10638   0.00000  Uiso   1.00
C186   C     0.02932   0.59185   0.22392   0.00000  Uiso   1.00
Cu187  Cu    0.25500   0.50579   0.22813   0.00000  Uiso   1.00
Cu188  Cu    0.24499   0.49421   0.10521   0.00000  Uiso   1.00
H189   H     0.38215   0.42327   0.11120   0.00000  Uiso   1.00
H190   H     0.11694   0.57612   0.22371   0.00000  Uiso   1.00
H191   H     0.03146   0.37517   0.08304   0.00000  Uiso   1.00
H192   H     0.46675   0.62565   0.24716   0.00000  Uiso   1.00
H193   H     0.21212   0.46414   0.31754   0.00000  Uiso   1.00
H194   H     0.28814   0.53543   0.01577   0.00000  Uiso   1.00
N195   N     0.23744   0.48547   0.01284   0.00000  Uiso   1.00
N196   N     0.26255   0.51453   0.32049   0.00000  Uiso   1.00
O197   O     0.25325   0.42871   0.20659   0.00000  Uiso   1.00
O198   O     0.24674   0.57129   0.12674   0.00000  Uiso   1.00
O199   O     0.24480   0.41892   0.10279   0.00000  Uiso   1.00
O200   O     0.25520   0.58108   0.23055   0.00000  Uiso   1.00
O201   O     0.18935   0.50488   0.21857   0.00000  Uiso   1.00
O202   O     0.31064   0.49512   0.11476   0.00000  Uiso   1.00
O203   O     0.18090   0.49510   0.11477   0.00000  Uiso   1.00
O204   O     0.31910   0.50490   0.21857   0.00000  Uiso   1.00
C205   C     0.38678   0.59558   0.22302   0.00000  Uiso   1.00
C206   C     0.37740   0.63453   0.19048   0.00000  Uiso   1.00
C207   C     0.36154   0.34911   0.22028   0.00000  Uiso   1.00
C208   C     0.35432   0.35803   0.28239   0.00000  Uiso   1.00
C209   C     0.36273   0.65225   0.31463   0.00000  Uiso   1.00
C210   C     0.37886   0.60444   0.28511   0.00000  Uiso   1.00
H211   H     0.38298   0.62809   0.14248   0.00000  Uiso   1.00
H212   H     0.35481   0.37930   0.19526   0.00000  Uiso   1.00
H213   H     0.34207   0.39515   0.30546   0.00000  Uiso   1.00
H214   H     0.35738   0.65926   0.02946   0.00000  Uiso   1.00
H215   H     0.38600   0.57470   0.31072   0.00000  Uiso   1.00
C216   C     0.11135   0.40317   0.11403   0.00000  Uiso   1.00
C217   C     0.11702   0.38825   0.05142   0.00000  Uiso   1.00
C218   C     0.12822   0.33699   0.02595   0.00000  Uiso   1.00
C219   C     0.13620   0.63466   0.06287   0.00000  Uiso   1.00
C220   C     0.13193   0.64992   0.12549   0.00000  Uiso   1.00
C221   C     0.11850   0.36693   0.15080   0.00000  Uiso   1.00
H222   H     0.11069   0.41550   0.02226   0.00000  Uiso   1.00
H223   H     0.12993   0.65787   0.31073   0.00000  Uiso   1.00
H224   H     0.14540   0.59520   0.04289   0.00000  Uiso   1.00
H225   H     0.13822   0.62241   0.15403   0.00000  Uiso   1.00
H226   H     0.11287   0.37751   0.19876   0.00000  Uiso   1.00
O227   O     0.44208   0.36632   0.07553   0.00000  Uiso   1.00
C228   C     0.46090   0.65090   0.07648   0.00000  Uiso   1.00
H229   H     0.47740   0.65007   0.12194   0.00000  Uiso   1.00
H230   H     0.48410   0.64059   0.03979   0.00000  Uiso   1.00
H231   H     0.43396   0.61981   0.06670   0.00000  Uiso   1.00
O232   O     0.05688   0.63579   0.25178   0.00000  Uiso   1.00
C233   C     0.03560   0.35067   0.25862   0.00000  Uiso   1.00
H234   H     0.01435   0.35638   0.29781   0.00000  Uiso   1.00
H235   H     0.01656   0.35425   0.21579   0.00000  Uiso   1.00
H236   H     0.06120   0.38323   0.26955   0.00000  Uiso   1.00
O237   O     0.28279   0.65082   0.09704   0.00000  Uiso   1.00
C238   C     0.26227   0.65200   0.03957   0.00000  Uiso   1.00
H239   H     0.27357   0.35465   0.02556   0.00000  Uiso   1.00
H240   H     0.22538   0.64721   0.03780   0.00000  Uiso   1.00
H241   H     0.27404   0.61899   0.00591   0.00000  Uiso   1.00
O242   O     0.24753   0.35126   0.24960   0.00000  Uiso   1.00
C243   C     0.20223   0.35337   0.26019   0.00000  Uiso   1.00
H244   H     0.18551   0.64688   0.25003   0.00000  Uiso   1.00
H245   H     0.18560   0.37921   0.23372   0.00000  Uiso   1.00
H246   H     0.19951   0.37182   0.30895   0.00000  Uiso   1.00
C247   C     0.75218   0.40029   0.15127   0.00000  Uiso   1.00
C248   C     0.75242   0.59979   0.18206   0.00000  Uiso   1.00
C249   C     0.51618   0.40968   0.10706   0.00000  Uiso   1.00
C250   C     0.98254   0.59131   0.22370   0.00000  Uiso   1.00
C251   C     0.75906   0.34467   0.14415   0.00000  Uiso   1.00
C252   C     0.75165   0.65560   0.19095   0.00000  Uiso   1.00
C253   C     0.66452   0.49928   0.16761   0.00000  Uiso   1.00
C254   C     0.83525   0.50043   0.16569   0.00000  Uiso   1.00
C255   C     0.90892   0.54749   0.19358   0.00000  Uiso   1.00
C256   C     0.59004   0.45281   0.13920   0.00000  Uiso   1.00
C257   C     0.88324   0.50223   0.16377   0.00000  Uiso   1.00
C258   C     0.61611   0.49777   0.16943   0.00000  Uiso   1.00
C259   C     0.90320   0.45740   0.13369   0.00000  Uiso   1.00
C260   C     0.59593   0.54269   0.19933   0.00000  Uiso   1.00
C261   C     0.94957   0.45578   0.13441   0.00000  Uiso   1.00
C262   C     0.54942   0.54507   0.19695   0.00000  Uiso   1.00
C263   C     0.97609   0.50096   0.16472   0.00000  Uiso   1.00
C264   C     0.52288   0.50002   0.16634   0.00000  Uiso   1.00
C265   C     0.95577   0.54691   0.19406   0.00000  Uiso   1.00
C266   C     0.54313   0.45391   0.13742   0.00000  Uiso   1.00
C267   C     0.96950   0.40941   0.10638   0.00000  Uiso   1.00
C268   C     0.52932   0.59185   0.22392   0.00000  Uiso   1.00
Cu269  Cu    0.75500   0.50579   0.22813   0.00000  Uiso   1.00
Cu270  Cu    0.74499   0.49421   0.10521   0.00000  Uiso   1.00
H271   H     0.88215   0.42327   0.11120   0.00000  Uiso   1.00
H272   H     0.61694   0.57612   0.22371   0.00000  Uiso   1.00
H273   H     0.53146   0.37517   0.08304   0.00000  Uiso   1.00
H274   H     0.96675   0.62565   0.24716   0.00000  Uiso   1.00
H275   H     0.71212   0.46414   0.31754   0.00000  Uiso   1.00
H276   H     0.78814   0.53543   0.01577   0.00000  Uiso   1.00
N277   N     0.73744   0.48547   0.01284   0.00000  Uiso   1.00
N278   N     0.76255   0.51453   0.32049   0.00000  Uiso   1.00
O279   O     0.75325   0.42871   0.20659   0.00000  Uiso   1.00
O280   O     0.74674   0.57129   0.12674   0.00000  Uiso   1.00
O281   O     0.74480   0.41892   0.10279   0.00000  Uiso   1.00
O282   O     0.75520   0.58108   0.23055   0.00000  Uiso   1.00
O283   O     0.68935   0.50488   0.21857   0.00000  Uiso   1.00
O284   O     0.81064   0.49512   0.11476   0.00000  Uiso   1.00
O285   O     0.68090   0.49510   0.11477   0.00000  Uiso   1.00
O286   O     0.81910   0.50490   0.21857   0.00000  Uiso   1.00
C287   C     0.88678   0.59558   0.22302   0.00000  Uiso   1.00
C288   C     0.87740   0.63453   0.19048   0.00000  Uiso   1.00
C289   C     0.86154   0.34911   0.22028   0.00000  Uiso   1.00
C290   C     0.85432   0.35803   0.28239   0.00000  Uiso   1.00
C291   C     0.86273   0.65225   0.31463   0.00000  Uiso   1.00
C292   C     0.87886   0.60444   0.28511   0.00000  Uiso   1.00
H293   H     0.88298   0.62809   0.14248   0.00000  Uiso   1.00
H294   H     0.85481   0.37930   0.19526   0.00000  Uiso   1.00
H295   H     0.84207   0.39515   0.30546   0.00000  Uiso   1.00
H296   H     0.85738   0.65926   0.02946   0.00000  Uiso   1.00
H297   H     0.88600   0.57470   0.31072   0.00000  Uiso   1.00
C298   C     0.61135   0.40317   0.11403   0.00000  Uiso   1.00
C299   C     0.61702   0.38825   0.05142   0.00000  Uiso   1.00
C300   C     0.62822   0.33699   0.02595   0.00000  Uiso   1.00
C301   C     0.63620   0.63466   0.06287   0.00000  Uiso   1.00
C302   C     0.63193   0.64992   0.12549   0.00000  Uiso   1.00
C303   C     0.61850   0.36693   0.15080   0.00000  Uiso   1.00
H304   H     0.61069   0.41550   0.02226   0.00000  Uiso   1.00
H305   H     0.62993   0.65787   0.31073   0.00000  Uiso   1.00
H306   H     0.64540   0.59520   0.04289   0.00000  Uiso   1.00
H307   H     0.63822   0.62241   0.15403   0.00000  Uiso   1.00
H308   H     0.61287   0.37751   0.19876   0.00000  Uiso   1.00
O309   O     0.94208   0.36632   0.07553   0.00000  Uiso   1.00
C310   C     0.96090   0.65090   0.07648   0.00000  Uiso   1.00
H311   H     0.97740   0.65007   0.12194   0.00000  Uiso   1.00
H312   H     0.98410   0.64059   0.03979   0.00000  Uiso   1.00
H313   H     0.93396   0.61981   0.06670   0.00000  Uiso   1.00
O314   O     0.55688   0.63579   0.25178   0.00000  Uiso   1.00
C315   C     0.53560   0.35067   0.25862   0.00000  Uiso   1.00
H316   H     0.51435   0.35638   0.29781   0.00000  Uiso   1.00
H317   H     0.51656   0.35425   0.21579   0.00000  Uiso   1.00
H318   H     0.56120   0.38323   0.26955   0.00000  Uiso   1.00
O319   O     0.78279   0.65082   0.09704   0.00000  Uiso   1.00
C320   C     0.76227   0.65200   0.03957   0.00000  Uiso   1.00
H321   H     0.77357   0.35465   0.02556   0.00000  Uiso   1.00
H322   H     0.72538   0.64721   0.03780   0.00000  Uiso   1.00
H323   H     0.77404   0.61899   0.00591   0.00000  Uiso   1.00
O324   O     0.74753   0.35126   0.24960   0.00000  Uiso   1.00
C325   C     0.70223   0.35337   0.26019   0.00000  Uiso   1.00
H326   H     0.68551   0.64688   0.25003   0.00000  Uiso   1.00
H327   H     0.68560   0.37921   0.23372   0.00000  Uiso   1.00
H328   H     0.69951   0.37182   0.30895   0.00000  Uiso   1.00
C329   C     0.25218   0.73362   0.15127   0.00000  Uiso   1.00
C330   C     0.25242   0.93312   0.18206   0.00000  Uiso   1.00
C331   C     0.01618   0.74302   0.10706   0.00000  Uiso   1.00
C332   C     0.48254   0.92464   0.22370   0.00000  Uiso   1.00
C333   C     0.25906   0.67801   0.14415   0.00000  Uiso   1.00
C334   C     0.25165   0.98893   0.19095   0.00000  Uiso   1.00
C335   C     0.16452   0.83262   0.16761   0.00000  Uiso   1.00
C336   C     0.33525   0.83377   0.16569   0.00000  Uiso   1.00
C337   C     0.40892   0.88083   0.19358   0.00000  Uiso   1.00
C338   C     0.09004   0.78615   0.13920   0.00000  Uiso   1.00
C339   C     0.38324   0.83557   0.16377   0.00000  Uiso   1.00
C340   C     0.11611   0.83110   0.16943   0.00000  Uiso   1.00
C341   C     0.40320   0.79074   0.13369   0.00000  Uiso   1.00
C342   C     0.09593   0.87603   0.19933   0.00000  Uiso   1.00
C343   C     0.44957   0.78911   0.13441   0.00000  Uiso   1.00
C344   C     0.04942   0.87840   0.19695   0.00000  Uiso   1.00
C345   C     0.47609   0.83430   0.16472   0.00000  Uiso   1.00
C346   C     0.02288   0.83336   0.16634   0.00000  Uiso   1.00
C347   C     0.45577   0.88024   0.19406   0.00000  Uiso   1.00
C348   C     0.04313   0.78725   0.13742   0.00000  Uiso   1.00
C349   C     0.46950   0.74274   0.10638   0.00000  Uiso   1.00
C350   C     0.02932   0.92518   0.22392   0.00000  Uiso   1.00
Cu351  Cu    0.25500   0.83913   0.22813   0.00000  Uiso   1.00
Cu352  Cu    0.24499   0.82754   0.10521   0.00000  Uiso   1.00
H353   H     0.38215   0.75660   0.11120   0.00000  Uiso   1.00
H354   H     0.11694   0.90945   0.22371   0.00000  Uiso   1.00
H355   H     0.03146   0.70850   0.08304   0.00000  Uiso   1.00
H356   H     0.46675   0.95898   0.24716   0.00000  Uiso   1.00
H357   H     0.21212   0.79747   0.31754   0.00000  Uiso   1.00
H358   H     0.28814   0.86876   0.01577   0.00000  Uiso   1.00
N359   N     0.23744   0.81881   0.01284   0.00000  Uiso   1.00
N360   N     0.26255   0.84786   0.32049   0.00000  Uiso   1.00
O361   O     0.25325   0.76204   0.20659   0.00000  Uiso   1.00
O362   O     0.24674   0.90462   0.12674   0.00000  Uiso   1.00
O363   O     0.24480   0.75226   0.10279   0.00000  Uiso   1.00
O364   O     0.25520   0.91441   0.23055   0.00000  Uiso   1.00
O365   O     0.18935   0.83821   0.21857   0.00000  Uiso   1.00
O366   O     0.31064   0.82845   0.11476   0.00000  Uiso   1.00
O367   O     0.18090   0.82843   0.11477   0.00000  Uiso   1.00
O368   O     0.31910   0.83824   0.21857   0.00000  Uiso   1.00
C369   C     0.38678   0.92891   0.22302   0.00000  Uiso   1.00
C370   C     0.37740   0.96786   0.19048   0.00000  Uiso   1.00
C371   C     0.36154   0.68244   0.22028   0.00000  Uiso   1.00
C372   C     0.35432   0.69137   0.28239   0.00000  Uiso   1.00
C373   C     0.36273   0.98559   0.31463   0.00000  Uiso   1.00
C374   C     0.37886   0.93777   0.28511   0.00000  Uiso   1.00
H375   H     0.38298   0.96143   0.14248   0.00000  Uiso   1.00
H376   H     0.35481   0.71263   0.19526   0.00000  Uiso   1.00
H377   H     0.34207   0.72848   0.30546   0.00000  Uiso   1.00
H378   H     0.35738   0.99259   0.02946   0.00000  Uiso   1.00
H379   H     0.38600   0.90803   0.31072   0.00000  Uiso   1.00
C380   C     0.11135   0.73651   0.11403   0.00000  Uiso   1.00
C381   C     0.11702   0.72159   0.05142   0.00000  Uiso   1.00
C382   C     0.12822   0.67033   0.02595   0.00000  Uiso   1.00
C383   C     0.13620   0.96799   0.06287   0.00000  Uiso   1.00
C384   C     0.13193   0.98326   0.12549   0.00000  Uiso   1.00
C385   C     0.11850   0.70027   0.15080   0.00000  Uiso   1.00
H386   H     0.11069   0.74883   0.02226   0.00000  Uiso   1.00
H387   H     0.12993   0.99120   0.31073   0.00000  Uiso   1.00
H388   H     0.14540   0.92853   0.04289   0.00000  Uiso   1.00
H389   H     0.13822   0.95574   0.15403   0.00000  Uiso   1.00
H390   H     0.11287   0.71085   0.19876   0.00000  Uiso   1.00
O391   O     0.44208   0.69965   0.07553   0.00000  Uiso   1.00
C392   C     0.46090   0.98424   0.07648   0.00000  Uiso   1.00
H393   H     0.47740   0.98340   0.12194   0.00000  Uiso   1.00
H394   H     0.48410   0.97393   0.03979   0.00000  Uiso   1.00
H395   H     0.43396   0.95315   0.06670   0.00000  Uiso   1.00
O396   O     0.05688   0.96912   0.25178   0.00000  Uiso   1.00
C397   C     0.03560   0.68400   0.25862   0.00000  Uiso   1.00
H398   H     0.01435   0.68972   0.29781   0.00000  Uiso   1.00
H399   H     0.01656   0.68758   0.21579   0.00000  Uiso   1.00
H400   H     0.06120   0.71657   0.26955   0.00000  Uiso   1.00
O401   O     0.28279   0.98416   0.09704   0.00000  Uiso   1.00
C402   C     0.26227   0.98534   0.03957   0.00000  Uiso   1.00
H403   H     0.27357   0.68799   0.02556   0.00000  Uiso   1.00
H404   H     0.22538   0.98055   0.03780   0.00000  Uiso   1.00
H405   H     0.27404   0.95232   0.00591   0.00000  Uiso   1.00
O406   O     0.24753   0.68460   0.24960   0.00000  Uiso   1.00
C407   C     0.20223   0.68671   0.26019   0.00000  Uiso   1.00
H408   H     0.18551   0.98021   0.25003   0.00000  Uiso   1.00
H409   H     0.18560   0.71254   0.23372   0.00000  Uiso   1.00
H410   H     0.19951   0.70515   0.30895   0.00000  Uiso   1.00
C411   C     0.75218   0.73362   0.15127   0.00000  Uiso   1.00
C412   C     0.75242   0.93312   0.18206   0.00000  Uiso   1.00
C413   C     0.51618   0.74302   0.10706   0.00000  Uiso   1.00
C414   C     0.98254   0.92464   0.22370   0.00000  Uiso   1.00
C415   C     0.75906   0.67801   0.14415   0.00000  Uiso   1.00
C416   C     0.75165   0.98893   0.19095   0.00000  Uiso   1.00
C417   C     0.66452   0.83262   0.16761   0.00000  Uiso   1.00
C418   C     0.83525   0.83377   0.16569   0.00000  Uiso   1.00
C419   C     0.90892   0.88083   0.19358   0.00000  Uiso   1.00
C420   C     0.59004   0.78615   0.13920   0.00000  Uiso   1.00
C421   C     0.88324   0.83557   0.16377   0.00000  Uiso   1.00
C422   C     0.61611   0.83110   0.16943   0.00000  Uiso   1.00
C423   C     0.90320   0.79074   0.13369   0.00000  Uiso   1.00
C424   C     0.59593   0.87603   0.19933   0.00000  Uiso   1.00
C425   C     0.94957   0.78911   0.13441   0.00000  Uiso   1.00
C426   C     0.54942   0.87840   0.19695   0.00000  Uiso   1.00
C427   C     0.97609   0.83430   0.16472   0.00000  Uiso   1.00
C428   C     0.52288   0.83336   0.16634   0.00000  Uiso   1.00
C429   C     0.95577   0.88024   0.19406   0.00000  Uiso   1.00
C430   C     0.54313   0.78725   0.13742   0.00000  Uiso   1.00
C431   C     0.96950   0.74274   0.10638   0.00000  Uiso   1.00
C432   C     0.52932   0.92518   0.22392   0.00000  Uiso   1.00
Cu433  Cu    0.75500   0.83913   0.22813   0.00000  Uiso   1.00
Cu434  Cu    0.74499   0.82754   0.10521   0.00000  Uiso   1.00
H435   H     0.88215   0.75660   0.11120   0.00000  Uiso   1.00
H436   H     0.61694   0.90945   0.22371   0.00000  Uiso   1.00
H437   H     0.53146   0.70850   0.08304   0.00000  Uiso   1.00
H438   H     0.96675   0.95898   0.24716   0.00000  Uiso   1.00
H439   H     0.71212   0.79747   0.31754   0.00000  Uiso   1.00
H440   H     0.78814   0.86876   0.01577   0.00000  Uiso   1.00
N441   N     0.73744   0.81881   0.01284   0.00000  Uiso   1.00
N442   N     0.76255   0.84786   0.32049   0.00000  Uiso   1.00
O443   O     0.75325   0.76204   0.20659   0.00000  Uiso   1.00
O444   O     0.74674   0.90462   0.12674   0.00000  Uiso   1.00
O445   O     0.74480   0.75226   0.10279   0.00000  Uiso   1.00
O446   O     0.75520   0.91441   0.23055   0.00000  Uiso   1.00
O447   O     0.68935   0.83821   0.21857   0.00000  Uiso   1.00
O448   O     0.81064   0.82845   0.11476   0.00000  Uiso   1.00
O449   O     0.68090   0.82843   0.11477   0.00000  Uiso   1.00
O450   O     0.81910   0.83824   0.21857   0.00000  Uiso   1.00
C451   C     0.88678   0.92891   0.22302   0.00000  Uiso   1.00
C452   C     0.87740   0.96786   0.19048   0.00000  Uiso   1.00
C453   C     0.86154   0.68244   0.22028   0.00000  Uiso   1.00
C454   C     0.85432   0.69137   0.28239   0.00000  Uiso   1.00
C455   C     0.86273   0.98559   0.31463   0.00000  Uiso   1.00
C456   C     0.87886   0.93777   0.28511   0.00000  Uiso   1.00
H457   H     0.88298   0.96143   0.14248   0.00000  Uiso   1.00
H458   H     0.85481   0.71263   0.19526   0.00000  Uiso   1.00
H459   H     0.84207   0.72848   0.30546   0.00000  Uiso   1.00
H460   H     0.85738   0.99259   0.02946   0.00000  Uiso   1.00
H461   H     0.88600   0.90803   0.31072   0.00000  Uiso   1.00
C462   C     0.61135   0.73651   0.11403   0.00000  Uiso   1.00
C463   C     0.61702   0.72159   0.05142   0.00000  Uiso   1.00
C464   C     0.62822   0.67033   0.02595   0.00000  Uiso   1.00
C465   C     0.63620   0.96799   0.06287   0.00000  Uiso   1.00
C466   C     0.63193   0.98326   0.12549   0.00000  Uiso   1.00
C467   C     0.61850   0.70027   0.15080   0.00000  Uiso   1.00
H468   H     0.61069   0.74883   0.02226   0.00000  Uiso   1.00
H469   H     0.62993   0.99120   0.31073   0.00000  Uiso   1.00
H470   H     0.64540   0.92853   0.04289   0.00000  Uiso   1.00
H471   H     0.63822   0.95574   0.15403   0.00000  Uiso   1.00
H472   H     0.61287   0.71085   0.19876   0.00000  Uiso   1.00
O473   O     0.94208   0.69965   0.07553   0.00000  Uiso   1.00
C474   C     0.96090   0.98424   0.07648   0.00000  Uiso   1.00
H475   H     0.97740   0.98340   0.12194   0.00000  Uiso   1.00
H476   H     0.98410   0.97393   0.03979   0.00000  Uiso   1.00
H477   H     0.93396   0.95315   0.06670   0.00000  Uiso   1.00
O478   O     0.55688   0.96912   0.25178   0.00000  Uiso   1.00
C479   C     0.53560   0.68400   0.25862   0.00000  Uiso   1.00
H480   H     0.51435   0.68972   0.29781   0.00000  Uiso   1.00
H481   H     0.51656   0.68758   0.21579   0.00000  Uiso   1.00
H482   H     0.56120   0.71657   0.26955   0.00000  Uiso   1.00
O483   O     0.78279   0.98416   0.09704   0.00000  Uiso   1.00
C484   C     0.76227   0.98534   0.03957   0.00000  Uiso   1.00
H485   H     0.77357   0.68799   0.02556   0.00000  Uiso   1.00
H486   H     0.72538   0.98055   0.03780   0.00000  Uiso   1.00
H487   H     0.77404   0.95232   0.00591   0.00000  Uiso   1.00
O488   O     0.74753   0.68460   0.24960   0.00000  Uiso   1.00
C489   C     0.70223   0.68671   0.26019   0.00000  Uiso   1.00
H490   H     0.68551   0.98021   0.25003   0.00000  Uiso   1.00
H491   H     0.68560   0.71254   0.23372   0.00000  Uiso   1.00
H492   H     0.69951   0.70515   0.30895   0.00000  Uiso   1.00
C493   C     0.25218   0.06696   0.48460   0.00000  Uiso   1.00
C494   C     0.25242   0.26645   0.51539   0.00000  Uiso   1.00
C495   C     0.01618   0.07635   0.44039   0.00000  Uiso   1.00
C496   C     0.48254   0.25797   0.55703   0.00000  Uiso   1.00
C497   C     0.25906   0.01134   0.47748   0.00000  Uiso   1.00
C498   C     0.25165   0.32226   0.52428   0.00000  Uiso   1.00
C499   C     0.16452   0.16595   0.50094   0.00000  Uiso   1.00
C500   C     0.33525   0.16710   0.49903   0.00000  Uiso   1.00
C501   C     0.40892   0.21416   0.52692   0.00000  Uiso   1.00
C502   C     0.09004   0.11948   0.47254   0.00000  Uiso   1.00
C503   C     0.38324   0.16890   0.49710   0.00000  Uiso   1.00
C504   C     0.11611   0.16443   0.50276   0.00000  Uiso   1.00
C505   C     0.40320   0.12407   0.46703   0.00000  Uiso   1.00
C506   C     0.09593   0.20936   0.53267   0.00000  Uiso   1.00
C507   C     0.44957   0.12245   0.46774   0.00000  Uiso   1.00
C508   C     0.04942   0.21173   0.53029   0.00000  Uiso   1.00
C509   C     0.47609   0.16763   0.49805   0.00000  Uiso   1.00
C510   C     0.02288   0.16669   0.49967   0.00000  Uiso   1.00
C511   C     0.45577   0.21358   0.52740   0.00000  Uiso   1.00
C512   C     0.04313   0.12058   0.47076   0.00000  Uiso   1.00
C513   C     0.46950   0.07607   0.43971   0.00000  Uiso   1.00
C514   C     0.02932   0.25851   0.55725   0.00000  Uiso   1.00
Cu515  Cu    0.25500   0.17246   0.56146   0.00000  Uiso   1.00
Cu516  Cu    0.24499   0.16087   0.43854   0.00000  Uiso   1.00
H517   H     0.38215   0.08994   0.44453   0.00000  Uiso   1.00
H518   H     0.11694   0.24279   0.55704   0.00000  Uiso   1.00
H519   H     0.03146   0.04183   0.41638   0.00000  Uiso   1.00
H520   H     0.46675   0.29231   0.58049   0.00000  Uiso   1.00
H521   H     0.21212   0.13081   0.65087   0.00000  Uiso   1.00
H522   H     0.28814   0.20210   0.34910   0.00000  Uiso   1.00
N523   N     0.23744   0.15214   0.34617   0.00000  Uiso   1.00
N524   N     0.26255   0.18119   0.65383   0.00000  Uiso   1.00
O525   O     0.25325   0.09538   0.53992   0.00000  Uiso   1.00
O526   O     0.24674   0.23796   0.46008   0.00000  Uiso   1.00
O527   O     0.24480   0.08559   0.43612   0.00000  Uiso   1.00
O528   O     0.25520   0.24774   0.56388   0.00000  Uiso   1.00
O529   O     0.18935   0.17155   0.55191   0.00000  Uiso   1.00
O530   O     0.31064   0.16179   0.44809   0.00000  Uiso   1.00
O531   O     0.18090   0.16176   0.44810   0.00000  Uiso   1.00
O532   O     0.31910   0.17157   0.55190   0.00000  Uiso   1.00
C533   C     0.38678   0.26224   0.55636   0.00000  Uiso   1.00
C534   C     0.37740   0.30119   0.52381   0.00000  Uiso   1.00
C535   C     0.36154   0.01577   0.55361   0.00000  Uiso   1.00
C536   C     0.35432   0.02470   0.61572   0.00000  Uiso   1.00
C537   C     0.36273   0.31892   0.64797   0.00000  Uiso   1.00
C538   C     0.37886   0.27110   0.61844   0.00000  Uiso   1.00
H539   H     0.38298   0.29476   0.47581   0.00000  Uiso   1.00
H540   H     0.35481   0.04597   0.52860   0.00000  Uiso   1.00
H541   H     0.34207   0.06181   0.63879   0.00000  Uiso   1.00
H542   H     0.35738   0.32593   0.36279   0.00000  Uiso   1.00
H543   H     0.38600   0.24137   0.64405   0.00000  Uiso   1.00
C544   C     0.11135   0.06984   0.44736   0.00000  Uiso   1.00
C545   C     0.11702   0.05492   0.38476   0.00000  Uiso   1.00
C546   C     0.12822   0.00366   0.35929   0.00000  Uiso   1.00
C547   C     0.13620   0.30132   0.39620   0.00000  Uiso   1.00
C548   C     0.13193   0.31659   0.45883   0.00000  Uiso   1.00
C549   C     0.11850   0.03360   0.48413   0.00000  Uiso   1.00
H550   H     0.11069   0.08217   0.35559   0.00000  Uiso   1.00
H551   H     0.12993   0.32453   0.64406   0.00000  Uiso   1.00
H552   H     0.14540   0.26186   0.37622   0.00000  Uiso   1.00
H553   H     0.13822   0.28908   0.48736   0.00000  Uiso   1.00
H554   H     0.11287   0.04418   0.53209   0.00000  Uiso   1.00
O555   O     0.44208   0.03299   0.40886   0.00000  Uiso   1.00
C556   C     0.46090   0.31757   0.40981   0.00000  Uiso   1.00
H557   H     0.47740   0.31673   0.45528   0.00000  Uiso   1.00
H558   H     0.48410   0.30726   0.37312   0.00000  Uiso   1.00
H559   H     0.43396   0.28648   0.40003   0.00000  Uiso   1.00
O560   O     0.05688   0.30246   0.58511   0.00000  Uiso   1.00
C561   C     0.03560   0.01733   0.59195   0.00000  Uiso   1.00
H562   H     0.01435   0.02305   0.63114   0.00000  Uiso   1.00
H563   H     0.01656   0.02091   0.54912   0.00000  Uiso   1.00
H564   H     0.06120   0.04990   0.60288   0.00000  Uiso   1.00
O565   O     0.28279   0.31749   0.43037   0.00000  Uiso   1.00
C566   C     0.26227   0.31867   0.37290   0.00000  Uiso   1.00
H567   H     0.27357   0.02132   0.35889   0.00000  Uiso   1.00
H568   H     0.22538   0.31388   0.37113   0.00000  Uiso   1.00
H569   H     0.27404   0.28565   0.33924   0.00000  Uiso   1.00
O570   O     0.24753   0.01793   0.58294   0.00000  Uiso   1.00
C571   C     0.20223   0.02004   0.59353   0.00000  Uiso   1.00
H572   H     0.18551   0.31355   0.58337   0.00000  Uiso   1.00
H573   H     0.18560   0.04587   0.56705   0.00000  Uiso   1.00
H574   H     0.19951   0.03848   0.64228   0.00000  Uiso   1.00
C575   C     0.75218   0.06696   0.48460   0.00000  Uiso   1.00
C576   C     0.75242   0.26645   0.51539   0.00000  Uiso   1.00
C577   C     0.51618   0.07635   0.44039   0.00000  Uiso   1.00
C578   C     0.98254   0.25797   0.55703   0.00000  Uiso   1.00
C579   C     0.75906   0.01134   0.47748   0.00000  Uiso   1.00
C580   C     0.75165   0.32226   0.52428   0.00000  Uiso   1.00
C581   C     0.66452   0.16595   0.50094   0.00000  Uiso   1.00
C582   C     0.83525   0.16710   0.49903   0.00000  Uiso   1.00
C583   C     0.90892   0.21416   0.52692   0.00000  Uiso   1.00
C584   C     0.59004   0.11948   0.47254   0.00000  Uiso   1.00
C585   C     0.88324   0.16890   0.49710   0.00000  Uiso   1.00
C586   C     0.61611   0.16443   0.50276   0.00000  Uiso   1.00
C587   C     0.90320   0.12407   0.46703   0.00000  Uiso   1.00
C588   C     0.59593   0.20936   0.53267   0.00000  Uiso   1.00
C589   C     0.94957   0.12245   0.46774   0.00000  Uiso   1.00
C590   C     0.54942   0.21173   0.53029   0.00000  Uiso   1.00
C591   C     0.97609   0.16763   0.49805   0.00000  Uiso   1.00
C592   C     0.52288   0.16669   0.49967   0.00000  Uiso   1.00
C593   C     0.95577   0.21358   0.52740   0.00000  Uiso   1.00
C594   C     0.54313   0.12058   0.47076   0.00000  Uiso   1.00
C595   C     0.96950   0.07607   0.43971   0.00000  Uiso   1.00
C596   C     0.52932   0.25851   0.55725   0.00000  Uiso   1.00
Cu597  Cu    0.75500   0.17246   0.56146   0.00000  Uiso   1.00
Cu598  Cu    0.74499   0.16087   0.43854   0.00000  Uiso   1.00
H599   H     0.88215   0.08994   0.44453   0.00000  Uiso   1.00
H600   H     0.61694   0.24279   0.55704   0.00000  Uiso   1.00
H601   H     0.53146   0.04183   0.41638   0.00000  Uiso   1.00
H602   H     0.96675   0.29231   0.58049   0.00000  Uiso   1.00
H603   H     0.71212   0.13081   0.65087   0.00000  Uiso   1.00
H604   H     0.78814   0.20210   0.34910   0.00000  Uiso   1.00
N605   N     0.73744   0.15214   0.34617   0.00000  Uiso   1.00
N606   N     0.76255   0.18119   0.65383   0.00000  Uiso   1.00
O607   O     0.75325   0.09538   0.53992   0.00000  Uiso   1.00
O608   O     0.74674   0.23796   0.46008   0.00000  Uiso   1.00
O609   O     0.74480   0.08559   0.43612   0.00000  Uiso   1.00
O610   O     0.75520   0.24774   0.56388   0.00000  Uiso   1.00
O611   O     0.68935   0.17155   0.55191   0.00000  Uiso   1.00
O612   O     0.81064   0.16179   0.44809   0.00000  Uiso   1.00
O613   O     0.68090   0.16176   0.44810   0.00000  Uiso   1.00
O614   O     0.81910   0.17157   0.55190   0.00000  Uiso   1.00
C615   C     0.88678   0.26224   0.55636   0.00000  Uiso   1.00
C616   C     0.87740   0.30119   0.52381   0.00000  Uiso   1.00
C617   C     0.86154   0.01577   0.55361   0.00000  Uiso   1.00
C618   C     0.85432   0.02470   0.61572   0.00000  Uiso   1.00
C619   C     0.86273   0.31892   0.64797   0.00000  Uiso   1.00
C620   C     0.87886   0.27110   0.61844   0.00000  Uiso   1.00
H621   H     0.88298   0.29476   0.47581   0.00000  Uiso   1.00
H622   H     0.85481   0.04597   0.52860   0.00000  Uiso   1.00
H623   H     0.84207   0.06181   0.63879   0.00000  Uiso   1.00
H624   H     0.85738   0.32593   0.36279   0.00000  Uiso   1.00
H625   H     0.88600   0.24137   0.64405   0.00000  Uiso   1.00
C626   C     0.61135   0.06984   0.44736   0.00000  Uiso   1.00
C627   C     0.61702   0.05492   0.38476   0.00000  Uiso   1.00
C628   C     0.62822   0.00366   0.35929   0.00000  Uiso   1.00
C629   C     0.63620   0.30132   0.39620   0.00000  Uiso   1.00
C630   C     0.63193   0.31659   0.45883   0.00000  Uiso   1.00
C631   C     0.61850   0.03360   0.48413   0.00000  Uiso   1.00
H632   H     0.61069   0.08217   0.35559   0.00000  Uiso   1.00
H633   H     0.62993   0.32453   0.64406   0.00000  Uiso   1.00
H634   H     0.64540   0.26186   0.37622   0.00000  Uiso   1.00
H635   H     0.63822   0.28908   0.48736   0.00000  Uiso   1.00
H636   H     0.61287   0.04418   0.53209   0.00000  Uiso   1.00
O637   O     0.94208   0.03299   0.40886   0.00000  Uiso   1.00
C638   C     0.96090   0.31757   0.40981   0.00000  Uiso   1.00
H639   H     0.97740   0.31673   0.45528   0.00000  Uiso   1.00
H640   H     0.98410   0.30726   0.37312   0.00000  Uiso   1.00
H641   H     0.93396   0.28648   0.40003   0.00000  Uiso   1.00
O642   O     0.55688   0.30246   0.58511   0.00000  Uiso   1.00
C643   C     0.53560   0.01733   0.59195   0.00000  Uiso   1.00
H644   H     0.51435   0.02305   0.63114   0.00000  Uiso   1.00
H645   H     0.51656   0.02091   0.54912   0.00000  Uiso   1.00
H646   H     0.56120   0.04990   0.60288   0.00000  Uiso   1.00
O647   O     0.78279   0.31749   0.43037   0.00000  Uiso   1.00
C648   C     0.76227   0.31867   0.37290   0.00000  Uiso   1.00
H649   H     0.77357   0.02132   0.35889   0.00000  Uiso   1.00
H650   H     0.72538   0.31388   0.37113   0.00000  Uiso   1.00
H651   H     0.77404   0.28565   0.33924   0.00000  Uiso   1.00
O652   O     0.74753   0.01793   0.58294   0.00000  Uiso   1.00
C653   C     0.70223   0.02004   0.59353   0.00000  Uiso   1.00
H654   H     0.68551   0.31355   0.58337   0.00000  Uiso   1.00
H655   H     0.68560   0.04587   0.56705   0.00000  Uiso   1.00
H656   H     0.69951   0.03848   0.64228   0.00000  Uiso   1.00
C657   C     0.25218   0.40029   0.48460   0.00000  Uiso   1.00
C658   C     0.25242   0.59979   0.51539   0.00000  Uiso   1.00
C659   C     0.01618   0.40968   0.44039   0.00000  Uiso   1.00
C660   C     0.48254   0.59131   0.55703   0.00000  Uiso   1.00
C661   C     0.25906   0.34467   0.47748   0.00000  Uiso   1.00
C662   C     0.25165   0.65560   0.52428   0.00000  Uiso   1.00
C663   C     0.16452   0.49928   0.50094   0.00000  Uiso   1.00
C664   C     0.33525   0.50043   0.49903   0.00000  Uiso   1.00
C665   C     0.40892   0.54749   0.52692   0.00000  Uiso   1.00
C666   C     0.09004   0.45281   0.47254   0.00000  Uiso   1.00
C667   C     0.38324   0.50223   0.49710   0.00000  Uiso   1.00
C668   C     0.11611   0.49777   0.50276   0.00000  Uiso   1.00
C669   C     0.40320   0.45740   0.46703   0.00000  Uiso   1.00
C670   C     0.09593   0.54269   0.53267   0.00000  Uiso   1.00
C671   C     0.44957   0.45578   0.46774   0.00000  Uiso   1.00
C672   C     0.04942   0.54507   0.53029   0.00000  Uiso   1.00
C673   C     0.47609   0.50096   0.49805   0.00000  Uiso   1.00
C674   C     0.02288   0.50002   0.49967   0.00000  Uiso   1.00
C675   C     0.45577   0.54691   0.52740   0.00000  Uiso   1.00
C676   C     0.04313   0.45391   0.47076   0.00000  Uiso   1.00
C677   C     0.46950   0.40941   0.43971   0.00000  Uiso   1.00
C678   C     0.02932   0.59185   0.55725   0.00000  Uiso   1.00
Cu679  Cu    0.25500   0.50579   0.56146   0.00000  Uiso   1.00
Cu680  Cu    0.24499   0.49421   0.43854   0.00000  Uiso   1.00
H681   H     0.38215   0.42327   0.44453   0.00000  Uiso   1.00
H682   H     0.11694   0.57612   0.55704   0.00000  Uiso   1.00
H683   H     0.03146   0.37517   0.41638   0.00000  Uiso   1.00
H684   H     0.46675   0.62565   0.58049   0.00000  Uiso   1.00
H685   H     0.21212   0.46414   0.65087   0.00000  Uiso   1.00
H686   H     0.28814   0.53543   0.34910   0.00000  Uiso   1.00
N687   N     0.23744   0.48547   0.34617   0.00000  Uiso   1.00
N688   N     0.26255   0.51453   0.65383   0.00000  Uiso   1.00
O689   O     0.25325   0.42871   0.53992   0.00000  Uiso   1.00
O690   O     0.24674   0.57129   0.46008   0.00000  Uiso   1.00
O691   O     0.24480   0.41892   0.43612   0.00000  Uiso   1.00
O692   O     0.25520   0.58108   0.56388   0.00000  Uiso   1.00
O693   O     0.18935   0.50488   0.55191   0.00000  Uiso   1.00
O694   O     0.31064   0.49512   0.44809   0.00000  Uiso   1.00
O695   O     0.18090   0.49510   0.44810   0.00000  Uiso   1.00
O696   O     0.31910   0.50490   0.55190   0.00000  Uiso   1.00
C697   C     0.38678   0.59558   0.55636   0.00000  Uiso   1.00
C698   C     0.37740   0.63453   0.52381   0.00000  Uiso   1.00
C699   C     0.36154   0.34911   0.55361   0.00000  Uiso   1.00
C700   C     0.35432   0.35803   0.61572   0.00000  Uiso   1.00
C701   C     0.36273   0.65225   0.64797   0.00000  Uiso   1.00
C702   C     0.37886   0.60444   0.61844   0.00000  Uiso   1.00
H703   H     0.38298   0.62809   0.47581   0.00000  Uiso   1.00
H704   H     0.35481   0.37930   0.52860   0.00000  Uiso   1.00
H705   H     0.34207   0.39515   0.63879   0.00000  Uiso   1.00
H706   H     0.35738   0.65926   0.36279   0.00000  Uiso   1.00
H707   H     0.38600   0.57470   0.64405   0.00000  Uiso   1.00
C708   C     0.11135   0.40317   0.44736   0.00000  Uiso   1.00
C709   C     0.11702   0.38825   0.38476   0.00000  Uiso   1.00
C710   C     0.12822   0.33699   0.35929   0.00000  Uiso   1.00
C711   C     0.13620   0.63466   0.39620   0.00000  Uiso   1.00
C712   C     0.13193   0.64992   0.45883   0.00000  Uiso   1.00
C713   C     0.11850   0.36693   0.48413   0.00000  Uiso   1.00
H714   H     0.11069   0.41550   0.35559   0.00000  Uiso   1.00
H715   H     0.12993   0.65787   0.64406   0.00000  Uiso   1.00
H716   H     0.14540   0.59520   0.37622   0.00000  Uiso   1.00
H717   H     0.13822   0.62241   0.48736   0.00000  Uiso   1.00
H718   H     0.11287   0.37751   0.53209   0.00000  Uiso   1.00
O719   O     0.44208   0.36632   0.40886   0.00000  Uiso   1.00
C720   C     0.46090   0.65090   0.40981   0.00000  Uiso   1.00
H721   H     0.47740   0.65007   0.45528   0.00000  Uiso   1.00
H722   H     0.48410   0.64059   0.37312   0.00000  Uiso   1.00
H723   H     0.43396   0.61981   0.40003   0.00000  Uiso   1.00
O724   O     0.05688   0.63579   0.58511   0.00000  Uiso   1.00
C725   C     0.03560   0.35067   0.59195   0.00000  Uiso   1.00
H726   H     0.01435   0.35638   0.63114   0.00000  Uiso   1.00
H727   H     0.01656   0.35425   0.54912   0.00000  Uiso   1.00
H728   H     0.06120   0.38323   0.60288   0.00000  Uiso   1.00
O729   O     0.28279   0.65082   0.43037   0.00000  Uiso   1.00
C730   C     0.26227   0.65200   0.37290   0.00000  Uiso   1.00
H731   H     0.27357   0.35465   0.35889   0.00000  Uiso   1.00
H732   H     0.22538   0.64721   0.37113   0.00000  Uiso   1.00
H733   H     0.27404   0.61899   0.33924   0.00000  Uiso   1.00
O734   O     0.24753   0.35126   0.58294   0.00000  Uiso   1.00
C735   C     0.20223   0.35337   0.59353   0.00000  Uiso   1.00
H736   H     0.18551   0.64688   0.58337   0.00000  Uiso   1.00
H737   H     0.18560   0.37921   0.56705   0.00000  Uiso   1.00
H738   H     0.19951   0.37182   0.64228   0.00000  Uiso   1.00
C739   C     0.75218   0.40029   0.48460   0.00000  Uiso   1.00
C740   C     0.75242   0.59979   0.51539   0.00000  Uiso   1.00
C741   C     0.51618   0.40968   0.44039   0.00000  Uiso   1.00
C742   C     0.98254   0.59131   0.55703   0.00000  Uiso   1.00
C743   C     0.75906   0.34467   0.47748   0.00000  Uiso   1.00
C744   C     0.75165   0.65560   0.52428   0.00000  Uiso   1.00
C745   C     0.66452   0.49928   0.50094   0.00000  Uiso   1.00
C746   C     0.83525   0.50043   0.49903   0.00000  Uiso   1.00
C747   C     0.90892   0.54749   0.52692   0.00000  Uiso   1.00
C748   C     0.59004   0.45281   0.47254   0.00000  Uiso   1.00
C749   C     0.88324   0.50223   0.49710   0.00000  Uiso   1.00
C750   C     0.61611   0.49777   0.50276   0.00000  Uiso   1.00
C751   C     0.90320   0.45740   0.46703   0.00000  Uiso   1.00
C752   C     0.59593   0.54269   0.53267   0.00000  Uiso   1.00
C753   C     0.94957   0.45578   0.46774   0.00000  Uiso   1.00
C754   C     0.54942   0.54507   0.53029   0.00000  Uiso   1.00
C755   C     0.97609   0.50096   0.49805   0.00000  Uiso   1.00
C756   C     0.52288   0.50002   0.49967   0.00000  Uiso   1.00
C757   C     0.95577   0.54691   0.52740   0.00000  Uiso   1.00
C758   C     0.54313   0.45391   0.47076   0.00000  Uiso   1.00
C759   C     0.96950   0.40941   0.43971   0.00000  Uiso   1.00
C760   C     0.52932   0.59185   0.55725   0.00000  Uiso   1.00
Cu761  Cu    0.75500   0.50579   0.56146   0.00000  Uiso   1.00
Cu762  Cu    0.74499   0.49421   0.43854   0.00000  Uiso   1.00
H763   H     0.88215   0.42327   0.44453   0.00000  Uiso   1.00
H764   H     0.61694   0.57612   0.55704   0.00000  Uiso   1.00
H765   H     0.53146   0.37517   0.41638   0.00000  Uiso   1.00
H766   H     0.96675   0.62565   0.58049   0.00000  Uiso   1.00
H767   H     0.71212   0.46414   0.65087   0.00000  Uiso   1.00
H768   H     0.78814   0.53543   0.34910   0.00000  Uiso   1.00
N769   N     0.73744   0.48547   0.34617   0.00000  Uiso   1.00
N770   N     0.76255   0.51453   0.65383   0.00000  Uiso   1.00
O771   O     0.75325   0.42871   0.53992   0.00000  Uiso   1.00
O772   O     0.74674   0.57129   0.46008   0.00000  Uiso   1.00
O773   O     0.74480   0.41892   0.43612   0.00000  Uiso   1.00
O774   O     0.75520   0.58108   0.56388   0.00000  Uiso   1.00
O775   O     0.68935   0.50488   0.55191   0.00000  Uiso   1.00
O776   O     0.81064   0.49512   0.44809   0.00000  Uiso   1.00
O777   O     0.68090   0.49510   0.44810   0.00000  Uiso   1.00
O778   O     0.81910   0.50490   0.55190   0.00000  Uiso   1.00
C779   C     0.88678   0.59558   0.55636   0.00000  Uiso   1.00
C780   C     0.87740   0.63453   0.52381   0.00000  Uiso   1.00
C781   C     0.86154   0.34911   0.55361   0.00000  Uiso   1.00
C782   C     0.85432   0.35803   0.61572   0.00000  Uiso   1.00
C783   C     0.86273   0.65225   0.64797   0.00000  Uiso   1.00
C784   C     0.87886   0.60444   0.61844   0.00000  Uiso   1.00
H785   H     0.88298   0.62809   0.47581   0.00000  Uiso   1.00
H786   H     0.85481   0.37930   0.52860   0.00000  Uiso   1.00
H787   H     0.84207   0.39515   0.63879   0.00000  Uiso   1.00
H788   H     0.85738   0.65926   0.36279   0.00000  Uiso   1.00
H789   H     0.88600   0.57470   0.64405   0.00000  Uiso   1.00
C790   C     0.61135   0.40317   0.44736   0.00000  Uiso   1.00
C791   C     0.61702   0.38825   0.38476   0.00000  Uiso   1.00
C792   C     0.62822   0.33699   0.35929   0.00000  Uiso   1.00
C793   C     0.63620   0.63466   0.39620   0.00000  Uiso   1.00
C794   C     0.63193   0.64992   0.45883   0.00000  Uiso   1.00
C795   C     0.61850   0.36693   0.48413   0.00000  Uiso   1.00
H796   H     0.61069   0.41550   0.35559   0.00000  Uiso   1.00
H797   H     0.62993   0.65787   0.64406   0.00000  Uiso   1.00
H798   H     0.64540   0.59520   0.37622   0.00000  Uiso   1.00
H799   H     0.63822   0.62241   0.48736   0.00000  Uiso   1.00
H800   H     0.61287   0.37751   0.53209   0.00000  Uiso   1.00
O801   O     0.94208   0.36632   0.40886   0.00000  Uiso   1.00
C802   C     0.96090   0.65090   0.40981   0.00000  Uiso   1.00
H803   H     0.97740   0.65007   0.45528   0.00000  Uiso   1.00
H804   H     0.98410   0.64059   0.37312   0.00000  Uiso   1.00
H805   H     0.93396   0.61981   0.40003   0.00000  Uiso   1.00
O806   O     0.55688   0.63579   0.58511   0.00000  Uiso   1.00
C807   C     0.53560   0.35067   0.59195   0.00000  Uiso   1.00
H808   H     0.51435   0.35638   0.63114   0.00000  Uiso   1.00
H809   H     0.51656   0.35425   0.54912   0.00000  Uiso   1.00
H810   H     0.56120   0.38323   0.60288   0.00000  Uiso   1.00
O811   O     0.78279   0.65082   0.43037   0.00000  Uiso   1.00
C812   C     0.76227   0.65200   0.37290   0.00000  Uiso   1.00
H813   H     0.77357   0.35465   0.35889   0.00000  Uiso   1.00
H814   H     0.72538   0.64721   0.37113   0.00000  Uiso   1.00
H815   H     0.77404   0.61899   0.33924   0.00000  Uiso   1.00
O816   O     0.74753   0.35126   0.58294   0.00000  Uiso   1.00
C817   C     0.70223   0.35337   0.59353   0.00000  Uiso   1.00
H818   H     0.68551   0.64688   0.58337   0.00000  Uiso   1.00
H819   H     0.68560   0.37921   0.56705   0.00000  Uiso   1.00
H820   H     0.69951   0.37182   0.64228   0.00000  Uiso   1.00
C821   C     0.25218   0.73362   0.48460   0.00000  Uiso   1.00
C822   C     0.25242   0.93312   0.51539   0.00000  Uiso   1.00
C823   C     0.01618   0.74302   0.44039   0.00000  Uiso   1.00
C824   C     0.48254   0.92464   0.55703   0.00000  Uiso   1.00
C825   C     0.25906   0.67801   0.47748   0.00000  Uiso   1.00
C826   C     0.25165   0.98893   0.52428   0.00000  Uiso   1.00
C827   C     0.16452   0.83262   0.50094   0.00000  Uiso   1.00
C828   C     0.33525   0.83377   0.49903   0.00000  Uiso   1.00
C829   C     0.40892   0.88083   0.52692   0.00000  Uiso   1.00
C830   C     0.09004   0.78615   0.47254   0.00000  Uiso   1.00
C831   C     0.38324   0.83557   0.49710   0.00000  Uiso   1.00
C832   C     0.11611   0.83110   0.50276   0.00000  Uiso   1.00
C833   C     0.40320   0.79074   0.46703   0.00000  Uiso   1.00
C834   C     0.09593   0.87603   0.53267   0.00000  Uiso   1.00
C835   C     0.44957   0.78911   0.46774   0.00000  Uiso   1.00
C836   C     0.04942   0.87840   0.53029   0.00000  Uiso   1.00
C837   C     0.47609   0.83430   0.49805   0.00000  Uiso   1.00
C838   C     0.02288   0.83336   0.49967   0.00000  Uiso   1.00
C839   C     0.45577   0.88024   0.52740   0.00000  Uiso   1.00
C840   C     0.04313   0.78725   0.47076   0.00000  Uiso   1.00
C841   C     0.46950   0.74274   0.43971   0.00000  Uiso   1.00
C842   C     0.02932   0.92518   0.55725   0.00000  Uiso   1.00
Cu843  Cu    0.25500   0.83913   0.56146   0.00000  Uiso   1.00
Cu844  Cu    0.24499   0.82754   0.43854   0.00000  Uiso   1.00
H845   H     0.38215   0.75660   0.44453   0.00000  Uiso   1.00
H846   H     0.11694   0.90945   0.55704   0.00000  Uiso   1.00
H847   H     0.03146   0.70850   0.41638   0.00000  Uiso   1.00
H848   H     0.46675   0.95898   0.58049   0.00000  Uiso   1.00
H849   H     0.21212   0.79747   0.65087   0.00000  Uiso   1.00
H850   H     0.28814   0.86876   0.34910   0.00000  Uiso   1.00
N851   N     0.23744   0.81881   0.34617   0.00000  Uiso   1.00
N852   N     0.26255   0.84786   0.65383   0.00000  Uiso   1.00
O853   O     0.25325   0.76204   0.53992   0.00000  Uiso   1.00
O854   O     0.24674   0.90462   0.46008   0.00000  Uiso   1.00
O855   O     0.24480   0.75226   0.43612   0.00000  Uiso   1.00
O856   O     0.25520   0.91441   0.56388   0.00000  Uiso   1.00
O857   O     0.18935   0.83821   0.55191   0.00000  Uiso   1.00
O858   O     0.31064   0.82845   0.44809   0.00000  Uiso   1.00
O859   O     0.18090   0.82843   0.44810   0.00000  Uiso   1.00
O860   O     0.31910   0.83824   0.55190   0.00000  Uiso   1.00
C861   C     0.38678   0.92891   0.55636   0.00000  Uiso   1.00
C862   C     0.37740   0.96786   0.52381   0.00000  Uiso   1.00
C863   C     0.36154   0.68244   0.55361   0.00000  Uiso   1.00
C864   C     0.35432   0.69137   0.61572   0.00000  Uiso   1.00
C865   C     0.36273   0.98559   0.64797   0.00000  Uiso   1.00
C866   C     0.37886   0.93777   0.61844   0.00000  Uiso   1.00
H867   H     0.38298   0.96143   0.47581   0.00000  Uiso   1.00
H868   H     0.35481   0.71263   0.52860   0.00000  Uiso   1.00
H869   H     0.34207   0.72848   0.63879   0.00000  Uiso   1.00
H870   H     0.35738   0.99259   0.36279   0.00000  Uiso   1.00
H871   H     0.38600   0.90803   0.64405   0.00000  Uiso   1.00
C872   C     0.11135   0.73651   0.44736   0.00000  Uiso   1.00
C873   C     0.11702   0.72159   0.38476   0.00000  Uiso   1.00
C874   C     0.12822   0.67033   0.35929   0.00000  Uiso   1.00
C875   C     0.13620   0.96799   0.39620   0.00000  Uiso   1.00
C876   C     0.13193   0.98326   0.45883   0.00000  Uiso   1.00
C877   C     0.11850   0.70027   0.48413   0.00000  Uiso   1.00
H878   H     0.11069   0.74883   0.35559   0.00000  Uiso   1.00
H879   H     0.12993   0.99120   0.64406   0.00000  Uiso   1.00
H880   H     0.14540   0.92853   0.37622   0.00000  Uiso   1.00
H881   H     0.13822   0.95574   0.48736   0.00000  Uiso   1.00
H882   H     0.11287   0.71085   0.53209   0.00000  Uiso   1.00
O883   O     0.44208   0.69965   0.40886   0.00000  Uiso   1.00
C884   C     0.46090   0.98424   0.40981   0.00000  Uiso   1.00
H885   H     0.47740   0.98340   0.45528   0.00000  Uiso   1.00
H886   H     0.48410   0.97393   0.37312   0.00000  Uiso   1.00
H887   H     0.43396   0.95315   0.40003   0.00000  Uiso   1.00
O888   O     0.05688   0.96912   0.58511   0.00000  Uiso   1.00
C889   C     0.03560   0.68400   0.59195   0.00000  Uiso   1.00
H890   H     0.01435   0.68972   0.63114   0.00000  Uiso   1.00
H891   H     0.01656   0.68758   0.54912   0.00000  Uiso   1.00
H892   H     0.06120   0.71657   0.60288   0.00000  Uiso   1.00
O893   O     0.28279   0.98416   0.43037   0.00000  Uiso   1.00
C894   C     0.26227   0.98534   0.37290   0.00000  Uiso   1.00
H895   H     0.27357   0.68799   0.35889   0.00000  Uiso   1.00
H896   H     0.22538   0.98055   0.37113   0.00000  Uiso   1.00
H897   H     0.27404   0.95232   0.33924   0.00000  Uiso   1.00
O898   O     0.24753   0.68460   0.58294   0.00000  Uiso   1.00
C899   C     0.20223   0.68671   0.59353   0.00000  Uiso   1.00
H900   H     0.18551   0.98021   0.58337   0.00000  Uiso   1.00
H901   H     0.18560   0.71254   0.56705   0.00000  Uiso   1.00
H902   H     0.19951   0.70515   0.64228   0.00000  Uiso   1.00
C903   C     0.75218   0.73362   0.48460   0.00000  Uiso   1.00
C904   C     0.75242   0.93312   0.51539   0.00000  Uiso   1.00
C905   C     0.51618   0.74302   0.44039   0.00000  Uiso   1.00
C906   C     0.98254   0.92464   0.55703   0.00000  Uiso   1.00
C907   C     0.75906   0.67801   0.47748   0.00000  Uiso   1.00
C908   C     0.75165   0.98893   0.52428   0.00000  Uiso   1.00
C909   C     0.66452   0.83262   0.50094   0.00000  Uiso   1.00
C910   C     0.83525   0.83377   0.49903   0.00000  Uiso   1.00
C911   C     0.90892   0.88083   0.52692   0.00000  Uiso   1.00
C912   C     0.59004   0.78615   0.47254   0.00000  Uiso   1.00
C913   C     0.88324   0.83557   0.49710   0.00000  Uiso   1.00
C914   C     0.61611   0.83110   0.50276   0.00000  Uiso   1.00
C915   C     0.90320   0.79074   0.46703   0.00000  Uiso   1.00
C916   C     0.59593   0.87603   0.53267   0.00000  Uiso   1.00
C917   C     0.94957   0.78911   0.46774   0.00000  Uiso   1.00
C918   C     0.54942   0.87840   0.53029   0.00000  Uiso   1.00
C919   C     0.97609   0.83430   0.49805   0.00000  Uiso   1.00
C920   C     0.52288   0.83336   0.49967   0.00000  Uiso   1.00
C921   C     0.95577   0.88024   0.52740   0.00000  Uiso   1.00
C922   C     0.54313   0.78725   0.47076   0.00000  Uiso   1.00
C923   C     0.96950   0.74274   0.43971   0.00000  Uiso   1.00
C924   C     0.52932   0.92518   0.55725   0.00000  Uiso   1.00
Cu925  Cu    0.75500   0.83913   0.56146   0.00000  Uiso   1.00
Cu926  Cu    0.74499   0.82754   0.43854   0.00000  Uiso   1.00
H927   H     0.88215   0.75660   0.44453   0.00000  Uiso   1.00
H928   H     0.61694   0.90945   0.55704   0.00000  Uiso   1.00
H929   H     0.53146   0.70850   0.41638   0.00000  Uiso   1.00
H930   H     0.96675   0.95898   0.58049   0.00000  Uiso   1.00
H931   H     0.71212   0.79747   0.65087   0.00000  Uiso   1.00
H932   H     0.78814   0.86876   0.34910   0.00000  Uiso   1.00
N933   N     0.73744   0.81881   0.34617   0.00000  Uiso   1.00
N934   N     0.76255   0.84786   0.65383   0.00000  Uiso   1.00
O935   O     0.75325   0.76204   0.53992   0.00000  Uiso   1.00
O936   O     0.74674   0.90462   0.46008   0.00000  Uiso   1.00
O937   O     0.74480   0.75226   0.43612   0.00000  Uiso   1.00
O938   O     0.75520   0.91441   0.56388   0.00000  Uiso   1.00
O939   O     0.68935   0.83821   0.55191   0.00000  Uiso   1.00
O940   O     0.81064   0.82845   0.44809   0.00000  Uiso   1.00
O941   O     0.68090   0.82843   0.44810   0.00000  Uiso   1.00
O942   O     0.81910   0.83824   0.55190   0.00000  Uiso   1.00
C943   C     0.88678   0.92891   0.55636   0.00000  Uiso   1.00
C944   C     0.87740   0.96786   0.52381   0.00000  Uiso   1.00
C945   C     0.86154   0.68244   0.55361   0.00000  Uiso   1.00
C946   C     0.85432   0.69137   0.61572   0.00000  Uiso   1.00
C947   C     0.86273   0.98559   0.64797   0.00000  Uiso   1.00
C948   C     0.87886   0.93777   0.61844   0.00000  Uiso   1.00
H949   H     0.88298   0.96143   0.47581   0.00000  Uiso   1.00
H950   H     0.85481   0.71263   0.52860   0.00000  Uiso   1.00
H951   H     0.84207   0.72848   0.63879   0.00000  Uiso   1.00
H952   H     0.85738   0.99259   0.36279   0.00000  Uiso   1.00
H953   H     0.88600   0.90803   0.64405   0.00000  Uiso   1.00
C954   C     0.61135   0.73651   0.44736   0.00000  Uiso   1.00
C955   C     0.61702   0.72159   0.38476   0.00000  Uiso   1.00
C956   C     0.62822   0.67033   0.35929   0.00000  Uiso   1.00
C957   C     0.63620   0.96799   0.39620   0.00000  Uiso   1.00
C958   C     0.63193   0.98326   0.45883   0.00000  Uiso   1.00
C959   C     0.61850   0.70027   0.48413   0.00000  Uiso   1.00
H960   H     0.61069   0.74883   0.35559   0.00000  Uiso   1.00
H961   H     0.62993   0.99120   0.64406   0.00000  Uiso   1.00
H962   H     0.64540   0.92853   0.37622   0.00000  Uiso   1.00
H963   H     0.63822   0.95574   0.48736   0.00000  Uiso   1.00
H964   H     0.61287   0.71085   0.53209   0.00000  Uiso   1.00
O965   O     0.94208   0.69965   0.40886   0.00000  Uiso   1.00
C966   C     0.96090   0.98424   0.40981   0.00000  Uiso   1.00
H967   H     0.97740   0.98340   0.45528   0.00000  Uiso   1.00
H968   H     0.98410   0.97393   0.37312   0.00000  Uiso   1.00
H969   H     0.93396   0.95315   0.40003   0.00000  Uiso   1.00
O970   O     0.55688   0.96912   0.58511   0.00000  Uiso   1.00
C971   C     0.53560   0.68400   0.59195   0.00000  Uiso   1.00
H972   H     0.51435   0.68972   0.63114   0.00000  Uiso   1.00
H973   H     0.51656   0.68758   0.54912   0.00000  Uiso   1.00
H974   H     0.56120   0.71657   0.60288   0.00000  Uiso   1.00
O975   O     0.78279   0.98416   0.43037   0.00000  Uiso   1.00
C976   C     0.76227   0.98534   0.37290   0.00000  Uiso   1.00
H977   H     0.77357   0.68799   0.35889   0.00000  Uiso   1.00
H978   H     0.72538   0.98055   0.37113   0.00000  Uiso   1.00
H979   H     0.77404   0.95232   0.33924   0.00000  Uiso   1.00
O980   O     0.74753   0.68460   0.58294   0.00000  Uiso   1.00
C981   C     0.70223   0.68671   0.59353   0.00000  Uiso   1.00
H982   H     0.68551   0.98021   0.58337   0.00000  Uiso   1.00
H983   H     0.68560   0.71254   0.56705   0.00000  Uiso   1.00
H984   H     0.69951   0.70515   0.64228   0.00000  Uiso   1.00
C985   C     0.25218   0.06696   0.81793   0.00000  Uiso   1.00
C986   C     0.25242   0.26645   0.84872   0.00000  Uiso   1.00
C987   C     0.01618   0.07635   0.77372   0.00000  Uiso   1.00
C988   C     0.48254   0.25797   0.89037   0.00000  Uiso   1.00
C989   C     0.25906   0.01134   0.81082   0.00000  Uiso   1.00
C990   C     0.25165   0.32226   0.85761   0.00000  Uiso   1.00
C991   C     0.16452   0.16595   0.83428   0.00000  Uiso   1.00
C992   C     0.33525   0.16710   0.83236   0.00000  Uiso   1.00
C993   C     0.40892   0.21416   0.86025   0.00000  Uiso   1.00
C994   C     0.09004   0.11948   0.80587   0.00000  Uiso   1.00
C995   C     0.38324   0.16890   0.83043   0.00000  Uiso   1.00
C996   C     0.11611   0.16443   0.83610   0.00000  Uiso   1.00
C997   C     0.40320   0.12407   0.80036   0.00000  Uiso   1.00
C998   C     0.09593   0.20936   0.86600   0.00000  Uiso   1.00
C999   C     0.44957   0.12245   0.80107   0.00000  Uiso   1.00
C1000  C     0.04942   0.21173   0.86362   0.00000  Uiso   1.00
C1001  C     0.47609   0.16763   0.83139   0.00000  Uiso   1.00
C1002  C     0.02288   0.16669   0.83301   0.00000  Uiso   1.00
C1003  C     0.45577   0.21358   0.86073   0.00000  Uiso   1.00
C1004  C     0.04313   0.12058   0.80409   0.00000  Uiso   1.00
C1005  C     0.46950   0.07607   0.77305   0.00000  Uiso   1.00
C1006  C     0.02932   0.25851   0.89058   0.00000  Uiso   1.00
Cu1007 Cu    0.25500   0.17246   0.89479   0.00000  Uiso   1.00
Cu1008 Cu    0.24499   0.16087   0.77187   0.00000  Uiso   1.00
H1009  H     0.38215   0.08994   0.77787   0.00000  Uiso   1.00
H1010  H     0.11694   0.24279   0.89037   0.00000  Uiso   1.00
H1011  H     0.03146   0.04183   0.74971   0.00000  Uiso   1.00
H1012  H     0.46675   0.29231   0.91383   0.00000  Uiso   1.00
H1013  H     0.21212   0.13081   0.98421   0.00000  Uiso   1.00
H1014  H     0.28814   0.20210   0.68243   0.00000  Uiso   1.00
N1015  N     0.23744   0.15214   0.67951   0.00000  Uiso   1.00
N1016  N     0.26255   0.18119   0.98716   0.00000  Uiso   1.00
O1017  O     0.25325   0.09538   0.87326   0.00000  Uiso   1.00
O1018  O     0.24674   0.23796   0.79341   0.00000  Uiso   1.00
O1019  O     0.24480   0.08559   0.76945   0.00000  Uiso   1.00
O1020  O     0.25520   0.24774   0.89721   0.00000  Uiso   1.00
O1021  O     0.18935   0.17155   0.88524   0.00000  Uiso   1.00
O1022  O     0.31064   0.16179   0.78143   0.00000  Uiso   1.00
O1023  O     0.18090   0.16176   0.78143   0.00000  Uiso   1.00
O1024  O     0.31910   0.17157   0.88523   0.00000  Uiso   1.00
C1025  C     0.38678   0.26224   0.88969   0.00000  Uiso   1.00
C1026  C     0.37740   0.30119   0.85714   0.00000  Uiso   1.00
C1027  C     0.36154   0.01577   0.88695   0.00000  Uiso   1.00
C1028  C     0.35432   0.02470   0.94906   0.00000  Uiso   1.00
C1029  C     0.36273   0.31892   0.98130   0.00000  Uiso   1.00
C1030  C     0.37886   0.27110   0.95178   0.00000  Uiso   1.00
H1031  H     0.38298   0.29476   0.80914   0.00000  Uiso   1.00
H1032  H     0.35481   0.04597   0.86193   0.00000  Uiso   1.00
H1033  H     0.34207   0.06181   0.97212   0.00000  Uiso   1.00
H1034  H     0.35738   0.32593   0.69612   0.00000  Uiso   1.00
H1035  H     0.38600   0.24137   0.97738   0.00000  Uiso   1.00
C1036  C     0.11135   0.06984   0.78070   0.00000  Uiso   1.00
C1037  C     0.11702   0.05492   0.71809   0.00000  Uiso   1.00
C1038  C     0.12822   0.00366   0.69262   0.00000  Uiso   1.00
C1039  C     0.13620   0.30132   0.72953   0.00000  Uiso   1.00
C1040  C     0.13193   0.31659   0.79216   0.00000  Uiso   1.00
C1041  C     0.11850   0.03360   0.81746   0.00000  Uiso   1.00
H1042  H     0.11069   0.08217   0.68892   0.00000  Uiso   1.00
H1043  H     0.12993   0.32453   0.97740   0.00000  Uiso   1.00
H1044  H     0.14540   0.26186   0.70956   0.00000  Uiso   1.00
H1045  H     0.13822   0.28908   0.82070   0.00000  Uiso   1.00
H1046  H     0.11287   0.04418   0.86542   0.00000  Uiso   1.00
O1047  O     0.44208   0.03299   0.74220   0.00000  Uiso   1.00
C1048  C     0.46090   0.31757   0.74315   0.00000  Uiso   1.00
H1049  H     0.47740   0.31673   0.78861   0.00000  Uiso   1.00
H1050  H     0.48410   0.30726   0.70646   0.00000  Uiso   1.00
H1051  H     0.43396   0.28648   0.73336   0.00000  Uiso   1.00
O1052  O     0.05688   0.30246   0.91844   0.00000  Uiso   1.00
C1053  C     0.03560   0.01733   0.92529   0.00000  Uiso   1.00
H1054  H     0.01435   0.02305   0.96448   0.00000  Uiso   1.00
H1055  H     0.01656   0.02091   0.88245   0.00000  Uiso   1.00
H1056  H     0.06120   0.04990   0.93622   0.00000  Uiso   1.00
O1057  O     0.28279   0.31749   0.76370   0.00000  Uiso   1.00
C1058  C     0.26227   0.31867   0.70623   0.00000  Uiso   1.00
H1059  H     0.27357   0.02132   0.69222   0.00000  Uiso   1.00
H1060  H     0.22538   0.31388   0.70447   0.00000  Uiso   1.00
H1061  H     0.27404   0.28565   0.67257   0.00000  Uiso   1.00
O1062  O     0.24753   0.01793   0.91627   0.00000  Uiso   1.00
C1063  C     0.20223   0.02004   0.92686   0.00000  Uiso   1.00
H1064  H     0.18551   0.31355   0.91670   0.00000  Uiso   1.00
H1065  H     0.18560   0.04587   0.90039   0.00000  Uiso   1.00
H1066  H     0.19951   0.03848   0.97562   0.00000  Uiso   1.00
C1067  C     0.75218   0.06696   0.81793   0.00000  Uiso   1.00
C1068  C     0.75242   0.26645   0.84872   0.00000  Uiso   1.00
C1069  C     0.51618   0.07635   0.77372   0.00000  Uiso   1.00
C1070  C     0.98254   0.25797   0.89037   0.00000  Uiso   1.00
C1071  C     0.75906   0.01134   0.81082   0.00000  Uiso   1.00
C1072  C     0.75165   0.32226   0.85761   0.00000  Uiso   1.00
C1073  C     0.66452   0.16595   0.83428   0.00000  Uiso   1.00
C1074  C     0.83525   0.16710   0.83236   0.00000  Uiso   1.00
C1075  C     0.90892   0.21416   0.86025   0.00000  Uiso   1.00
C1076  C     0.59004   0.11948   0.80587   0.00000  Uiso   1.00
C1077  C     0.88324   0.16890   0.83043   0.00000  Uiso   1.00
C1078  C     0.61611   0.16443   0.83610   0.00000  Uiso   1.00
C1079  C     0.90320   0.12407   0.80036   0.00000  Uiso   1.00
C1080  C     0.59593   0.20936   0.86600   0.00000  Uiso   1.00
C1081  C     0.94957   0.12245   0.80107   0.00000  Uiso   1.00
C1082  C     0.54942   0.21173   0.86362   0.00000  Uiso   1.00
C1083  C     0.97609   0.16763   0.83139   0.00000  Uiso   1.00
C1084  C     0.52288   0.16669   0.83301   0.00000  Uiso   1.00
C1085  C     0.95577   0.21358   0.86073   0.00000  Uiso   1.00
C1086  C     0.54313   0.12058   0.80409   0.00000  Uiso   1.00
C1087  C     0.96950   0.07607   0.77305   0.00000  Uiso   1.00
C1088  C     0.52932   0.25851   0.89058   0.00000  Uiso   1.00
Cu1089 Cu    0.75500   0.17246   0.89479   0.00000  Uiso   1.00
Cu1090 Cu    0.74499   0.16087   0.77187   0.00000  Uiso   1.00
H1091  H     0.88215   0.08994   0.77787   0.00000  Uiso   1.00
H1092  H     0.61694   0.24279   0.89037   0.00000  Uiso   1.00
H1093  H     0.53146   0.04183   0.74971   0.00000  Uiso   1.00
H1094  H     0.96675   0.29231   0.91383   0.00000  Uiso   1.00
H1095  H     0.71212   0.13081   0.98421   0.00000  Uiso   1.00
H1096  H     0.78814   0.20210   0.68243   0.00000  Uiso   1.00
N1097  N     0.73744   0.15214   0.67951   0.00000  Uiso   1.00
N1098  N     0.76255   0.18119   0.98716   0.00000  Uiso   1.00
O1099  O     0.75325   0.09538   0.87326   0.00000  Uiso   1.00
O1100  O     0.74674   0.23796   0.79341   0.00000  Uiso   1.00
O1101  O     0.74480   0.08559   0.76945   0.00000  Uiso   1.00
O1102  O     0.75520   0.24774   0.89721   0.00000  Uiso   1.00
O1103  O     0.68935   0.17155   0.88524   0.00000  Uiso   1.00
O1104  O     0.81064   0.16179   0.78143   0.00000  Uiso   1.00
O1105  O     0.68090   0.16176   0.78143   0.00000  Uiso   1.00
O1106  O     0.81910   0.17157   0.88523   0.00000  Uiso   1.00
C1107  C     0.88678   0.26224   0.88969   0.00000  Uiso   1.00
C1108  C     0.87740   0.30119   0.85714   0.00000  Uiso   1.00
C1109  C     0.86154   0.01577   0.88695   0.00000  Uiso   1.00
C1110  C     0.85432   0.02470   0.94906   0.00000  Uiso   1.00
C1111  C     0.86273   0.31892   0.98130   0.00000  Uiso   1.00
C1112  C     0.87886   0.27110   0.95178   0.00000  Uiso   1.00
H1113  H     0.88298   0.29476   0.80914   0.00000  Uiso   1.00
H1114  H     0.85481   0.04597   0.86193   0.00000  Uiso   1.00
H1115  H     0.84207   0.06181   0.97212   0.00000  Uiso   1.00
H1116  H     0.85738   0.32593   0.69612   0.00000  Uiso   1.00
H1117  H     0.88600   0.24137   0.97738   0.00000  Uiso   1.00
C1118  C     0.61135   0.06984   0.78070   0.00000  Uiso   1.00
C1119  C     0.61702   0.05492   0.71809   0.00000  Uiso   1.00
C1120  C     0.62822   0.00366   0.69262   0.00000  Uiso   1.00
C1121  C     0.63620   0.30132   0.72953   0.00000  Uiso   1.00
C1122  C     0.63193   0.31659   0.79216   0.00000  Uiso   1.00
C1123  C     0.61850   0.03360   0.81746   0.00000  Uiso   1.00
H1124  H     0.61069   0.08217   0.68892   0.00000  Uiso   1.00
H1125  H     0.62993   0.32453   0.97740   0.00000  Uiso   1.00
H1126  H     0.64540   0.26186   0.70956   0.00000  Uiso   1.00
H1127  H     0.63822   0.28908   0.82070   0.00000  Uiso   1.00
H1128  H     0.61287   0.04418   0.86542   0.00000  Uiso   1.00
O1129  O     0.94208   0.03299   0.74220   0.00000  Uiso   1.00
C1130  C     0.96090   0.31757   0.74315   0.00000  Uiso   1.00
H1131  H     0.97740   0.31673   0.78861   0.00000  Uiso   1.00
H1132  H     0.98410   0.30726   0.70646   0.00000  Uiso   1.00
H1133  H     0.93396   0.28648   0.73336   0.00000  Uiso   1.00
O1134  O     0.55688   0.30246   0.91844   0.00000  Uiso   1.00
C1135  C     0.53560   0.01733   0.92529   0.00000  Uiso   1.00
H1136  H     0.51435   0.02305   0.96448   0.00000  Uiso   1.00
H1137  H     0.51656   0.02091   0.88245   0.00000  Uiso   1.00
H1138  H     0.56120   0.04990   0.93622   0.00000  Uiso   1.00
O1139  O     0.78279   0.31749   0.76370   0.00000  Uiso   1.00
C1140  C     0.76227   0.31867   0.70623   0.00000  Uiso   1.00
H1141  H     0.77357   0.02132   0.69222   0.00000  Uiso   1.00
H1142  H     0.72538   0.31388   0.70447   0.00000  Uiso   1.00
H1143  H     0.77404   0.28565   0.67257   0.00000  Uiso   1.00
O1144  O     0.74753   0.01793   0.91627   0.00000  Uiso   1.00
C1145  C     0.70223   0.02004   0.92686   0.00000  Uiso   1.00
H1146  H     0.68551   0.31355   0.91670   0.00000  Uiso   1.00
H1147  H     0.68560   0.04587   0.90039   0.00000  Uiso   1.00
H1148  H     0.69951   0.03848   0.97562   0.00000  Uiso   1.00
C1149  C     0.25218   0.40029   0.81793   0.00000  Uiso   1.00
C1150  C     0.25242   0.59979   0.84872   0.00000  Uiso   1.00
C1151  C     0.01618   0.40968   0.77372   0.00000  Uiso   1.00
C1152  C     0.48254   0.59131   0.89037   0.00000  Uiso   1.00
C1153  C     0.25906   0.34467   0.81082   0.00000  Uiso   1.00
C1154  C     0.25165   0.65560   0.85761   0.00000  Uiso   1.00
C1155  C     0.16452   0.49928   0.83428   0.00000  Uiso   1.00
C1156  C     0.33525   0.50043   0.83236   0.00000  Uiso   1.00
C1157  C     0.40892   0.54749   0.86025   0.00000  Uiso   1.00
C1158  C     0.09004   0.45281   0.80587   0.00000  Uiso   1.00
C1159  C     0.38324   0.50223   0.83043   0.00000  Uiso   1.00
C1160  C     0.11611   0.49777   0.83610   0.00000  Uiso   1.00
C1161  C     0.40320   0.45740   0.80036   0.00000  Uiso   1.00
C1162  C     0.09593   0.54269   0.86600   0.00000  Uiso   1.00
C1163  C     0.44957   0.45578   0.80107   0.00000  Uiso   1.00
C1164  C     0.04942   0.54507   0.86362   0.00000  Uiso   1.00
C1165  C     0.47609   0.50096   0.83139   0.00000  Uiso   1.00
C1166  C     0.02288   0.50002   0.83301   0.00000  Uiso   1.00
C1167  C     0.45577   0.54691   0.86073   0.00000  Uiso   1.00
C1168  C     0.04313   0.45391   0.80409   0.00000  Uiso   1.00
C1169  C     0.46950   0.40941   0.77305   0.00000  Uiso   1.00
C1170  C     0.02932   0.59185   0.89058   0.00000  Uiso   1.00
Cu1171 Cu    0.25500   0.50579   0.89479   0.00000  Uiso   1.00
Cu1172 Cu    0.24499   0.49421   0.77187   0.00000  Uiso   1.00
H1173  H     0.38215   0.42327   0.77787   0.00000  Uiso   1.00
H1174  H     0.11694   0.57612   0.89037   0.00000  Uiso   1.00
H1175  H     0.03146   0.37517   0.74971   0.00000  Uiso   1.00
H1176  H     0.46675   0.62565   0.91383   0.00000  Uiso   1.00
H1177  H     0.21212   0.46414   0.98421   0.00000  Uiso   1.00
H1178  H     0.28814   0.53543   0.68243   0.00000  Uiso   1.00
N1179  N     0.23744   0.48547   0.67951   0.00000  Uiso   1.00
N1180  N     0.26255   0.51453   0.98716   0.00000  Uiso   1.00
O1181  O     0.25325   0.42871   0.87326   0.00000  Uiso   1.00
O1182  O     0.24674   0.57129   0.79341   0.00000  Uiso   1.00
O1183  O     0.24480   0.41892   0.76945   0.00000  Uiso   1.00
O1184  O     0.25520   0.58108   0.89721   0.00000  Uiso   1.00
O1185  O     0.18935   0.50488   0.88524   0.00000  Uiso   1.00
O1186  O     0.31064   0.49512   0.78143   0.00000  Uiso   1.00
O1187  O     0.18090   0.49510   0.78143   0.00000  Uiso   1.00
O1188  O     0.31910   0.50490   0.88523   0.00000  Uiso   1.00
C1189  C     0.38678   0.59558   0.88969   0.00000  Uiso   1.00
C1190  C     0.37740   0.63453   0.85714   0.00000  Uiso   1.00
C1191  C     0.36154   0.34911   0.88695   0.00000  Uiso   1.00
C1192  C     0.35432   0.35803   0.94906   0.00000  Uiso   1.00
C1193  C     0.36273   0.65225   0.98130   0.00000  Uiso   1.00
C1194  C     0.37886   0.60444   0.95178   0.00000  Uiso   1.00
H1195  H     0.38298   0.62809   0.80914   0.00000  Uiso   1.00
H1196  H     0.35481   0.37930   0.86193   0.00000  Uiso   1.00
H1197  H     0.34207   0.39515   0.97212   0.00000  Uiso   1.00
H1198  H     0.35738   0.65926   0.69612   0.00000  Uiso   1.00
H1199  H     0.38600   0.57470   0.97738   0.00000  Uiso   1.00
C1200  C     0.11135   0.40317   0.78070   0.00000  Uiso   1.00
C1201  C     0.11702   0.38825   0.71809   0.00000  Uiso   1.00
C1202  C     0.12822   0.33699   0.69262   0.00000  Uiso   1.00
C1203  C     0.13620   0.63466   0.72953   0.00000  Uiso   1.00
C1204  C     0.13193   0.64992   0.79216   0.00000  Uiso   1.00
C1205  C     0.11850   0.36693   0.81746   0.00000  Uiso   1.00
H1206  H     0.11069   0.41550   0.68892   0.00000  Uiso   1.00
H1207  H     0.12993   0.65787   0.97740   0.00000  Uiso   1.00
H1208  H     0.14540   0.59520   0.70956   0.00000  Uiso   1.00
H1209  H     0.13822   0.62241   0.82070   0.00000  Uiso   1.00
H1210  H     0.11287   0.37751   0.86542   0.00000  Uiso   1.00
O1211  O     0.44208   0.36632   0.74220   0.00000  Uiso   1.00
C1212  C     0.46090   0.65090   0.74315   0.00000  Uiso   1.00
H1213  H     0.47740   0.65007   0.78861   0.00000  Uiso   1.00
H1214  H     0.48410   0.64059   0.70646   0.00000  Uiso   1.00
H1215  H     0.43396   0.61981   0.73336   0.00000  Uiso   1.00
O1216  O     0.05688   0.63579   0.91844   0.00000  Uiso   1.00
C1217  C     0.03560   0.35067   0.92529   0.00000  Uiso   1.00
H1218  H     0.01435   0.35638   0.96448   0.00000  Uiso   1.00
H1219  H     0.01656   0.35425   0.88245   0.00000  Uiso   1.00
H1220  H     0.06120   0.38323   0.93622   0.00000  Uiso   1.00
O1221  O     0.28279   0.65082   0.76370   0.00000  Uiso   1.00
C1222  C     0.26227   0.65200   0.70623   0.00000  Uiso   1.00
H1223  H     0.27357   0.35465   0.69222   0.00000  Uiso   1.00
H1224  H     0.22538   0.64721   0.70447   0.00000  Uiso   1.00
H1225  H     0.27404   0.61899   0.67257   0.00000  Uiso   1.00
O1226  O     0.24753   0.35126   0.91627   0.00000  Uiso   1.00
C1227  C     0.20223   0.35337   0.92686   0.00000  Uiso   1.00
H1228  H     0.18551   0.64688   0.91670   0.00000  Uiso   1.00
H1229  H     0.18560   0.37921   0.90039   0.00000  Uiso   1.00
H1230  H     0.19951   0.37182   0.97562   0.00000  Uiso   1.00
C1231  C     0.75218   0.40029   0.81793   0.00000  Uiso   1.00
C1232  C     0.75242   0.59979   0.84872   0.00000  Uiso   1.00
C1233  C     0.51618   0.40968   0.77372   0.00000  Uiso   1.00
C1234  C     0.98254   0.59131   0.89037   0.00000  Uiso   1.00
C1235  C     0.75906   0.34467   0.81082   0.00000  Uiso   1.00
C1236  C     0.75165   0.65560   0.85761   0.00000  Uiso   1.00
C1237  C     0.66452   0.49928   0.83428   0.00000  Uiso   1.00
C1238  C     0.83525   0.50043   0.83236   0.00000  Uiso   1.00
C1239  C     0.90892   0.54749   0.86025   0.00000  Uiso   1.00
C1240  C     0.59004   0.45281   0.80587   0.00000  Uiso   1.00
C1241  C     0.88324   0.50223   0.83043   0.00000  Uiso   1.00
C1242  C     0.61611   0.49777   0.83610   0.00000  Uiso   1.00
C1243  C     0.90320   0.45740   0.80036   0.00000  Uiso   1.00
C1244  C     0.59593   0.54269   0.86600   0.00000  Uiso   1.00
C1245  C     0.94957   0.45578   0.80107   0.00000  Uiso   1.00
C1246  C     0.54942   0.54507   0.86362   0.00000  Uiso   1.00
C1247  C     0.97609   0.50096   0.83139   0.00000  Uiso   1.00
C1248  C     0.52288   0.50002   0.83301   0.00000  Uiso   1.00
C1249  C     0.95577   0.54691   0.86073   0.00000  Uiso   1.00
C1250  C     0.54313   0.45391   0.80409   0.00000  Uiso   1.00
C1251  C     0.96950   0.40941   0.77305   0.00000  Uiso   1.00
C1252  C     0.52932   0.59185   0.89058   0.00000  Uiso   1.00
Cu1253 Cu    0.75500   0.50579   0.89479   0.00000  Uiso   1.00
Cu1254 Cu    0.74499   0.49421   0.77187   0.00000  Uiso   1.00
H1255  H     0.88215   0.42327   0.77787   0.00000  Uiso   1.00
H1256  H     0.61694   0.57612   0.89037   0.00000  Uiso   1.00
H1257  H     0.53146   0.37517   0.74971   0.00000  Uiso   1.00
H1258  H     0.96675   0.62565   0.91383   0.00000  Uiso   1.00
H1259  H     0.71212   0.46414   0.98421   0.00000  Uiso   1.00
H1260  H     0.78814   0.53543   0.68243   0.00000  Uiso   1.00
N1261  N     0.73744   0.48547   0.67951   0.00000  Uiso   1.00
N1262  N     0.76255   0.51453   0.98716   0.00000  Uiso   1.00
O1263  O     0.75325   0.42871   0.87326   0.00000  Uiso   1.00
O1264  O     0.74674   0.57129   0.79341   0.00000  Uiso   1.00
O1265  O     0.74480   0.41892   0.76945   0.00000  Uiso   1.00
O1266  O     0.75520   0.58108   0.89721   0.00000  Uiso   1.00
O1267  O     0.68935   0.50488   0.88524   0.00000  Uiso   1.00
O1268  O     0.81064   0.49512   0.78143   0.00000  Uiso   1.00
O1269  O     0.68090   0.49510   0.78143   0.00000  Uiso   1.00
O1270  O     0.81910   0.50490   0.88523   0.00000  Uiso   1.00
C1271  C     0.88678   0.59558   0.88969   0.00000  Uiso   1.00
C1272  C     0.87740   0.63453   0.85714   0.00000  Uiso   1.00
C1273  C     0.86154   0.34911   0.88695   0.00000  Uiso   1.00
C1274  C     0.85432   0.35803   0.94906   0.00000  Uiso   1.00
C1275  C     0.86273   0.65225   0.98130   0.00000  Uiso   1.00
C1276  C     0.87886   0.60444   0.95178   0.00000  Uiso   1.00
H1277  H     0.88298   0.62809   0.80914   0.00000  Uiso   1.00
H1278  H     0.85481   0.37930   0.86193   0.00000  Uiso   1.00
H1279  H     0.84207   0.39515   0.97212   0.00000  Uiso   1.00
H1280  H     0.85738   0.65926   0.69612   0.00000  Uiso   1.00
H1281  H     0.88600   0.57470   0.97738   0.00000  Uiso   1.00
C1282  C     0.61135   0.40317   0.78070   0.00000  Uiso   1.00
C1283  C     0.61702   0.38825   0.71809   0.00000  Uiso   1.00
C1284  C     0.62822   0.33699   0.69262   0.00000  Uiso   1.00
C1285  C     0.63620   0.63466   0.72953   0.00000  Uiso   1.00
C1286  C     0.63193   0.64992   0.79216   0.00000  Uiso   1.00
C1287  C     0.61850   0.36693   0.81746   0.00000  Uiso   1.00
H1288  H     0.61069   0.41550   0.68892   0.00000  Uiso   1.00
H1289  H     0.62993   0.65787   0.97740   0.00000  Uiso   1.00
H1290  H     0.64540   0.59520   0.70956   0.00000  Uiso   1.00
H1291  H     0.63822   0.62241   0.82070   0.00000  Uiso   1.00
H1292  H     0.61287   0.37751   0.86542   0.00000  Uiso   1.00
O1293  O     0.94208   0.36632   0.74220   0.00000  Uiso   1.00
C1294  C     0.96090   0.65090   0.74315   0.00000  Uiso   1.00
H1295  H     0.97740   0.65007   0.78861   0.00000  Uiso   1.00
H1296  H     0.98410   0.64059   0.70646   0.00000  Uiso   1.00
H1297  H     0.93396   0.61981   0.73336   0.00000  Uiso   1.00
O1298  O     0.55688   0.63579   0.91844   0.00000  Uiso   1.00
C1299  C     0.53560   0.35067   0.92529   0.00000  Uiso   1.00
H1300  H     0.51435   0.35638   0.96448   0.00000  Uiso   1.00
H1301  H     0.51656   0.35425   0.88245   0.00000  Uiso   1.00
H1302  H     0.56120   0.38323   0.93622   0.00000  Uiso   1.00
O1303  O     0.78279   0.65082   0.76370   0.00000  Uiso   1.00
C1304  C     0.76227   0.65200   0.70623   0.00000  Uiso   1.00
H1305  H     0.77357   0.35465   0.69222   0.00000  Uiso   1.00
H1306  H     0.72538   0.64721   0.70447   0.00000  Uiso   1.00
H1307  H     0.77404   0.61899   0.67257   0.00000  Uiso   1.00
O1308  O     0.74753   0.35126   0.91627   0.00000  Uiso   1.00
C1309  C     0.70223   0.35337   0.92686   0.00000  Uiso   1.00
H1310  H     0.68551   0.64688   0.91670   0.00000  Uiso   1.00
H1311  H     0.68560   0.37921   0.90039   0.00000  Uiso   1.00
H1312  H     0.69951   0.37182   0.97562   0.00000  Uiso   1.00
C1313  C     0.25218   0.73362   0.81793   0.00000  Uiso   1.00
C1314  C     0.25242   0.93312   0.84872   0.00000  Uiso   1.00
C1315  C     0.01618   0.74302   0.77372   0.00000  Uiso   1.00
C1316  C     0.48254   0.92464   0.89037   0.00000  Uiso   1.00
C1317  C     0.25906   0.67801   0.81082   0.00000  Uiso   1.00
C1318  C     0.25165   0.98893   0.85761   0.00000  Uiso   1.00
C1319  C     0.16452   0.83262   0.83428   0.00000  Uiso   1.00
C1320  C     0.33525   0.83377   0.83236   0.00000  Uiso   1.00
C1321  C     0.40892   0.88083   0.86025   0.00000  Uiso   1.00
C1322  C     0.09004   0.78615   0.80587   0.00000  Uiso   1.00
C1323  C     0.38324   0.83557   0.83043   0.00000  Uiso   1.00
C1324  C     0.11611   0.83110   0.83610   0.00000  Uiso   1.00
C1325  C     0.40320   0.79074   0.80036   0.00000  Uiso   1.00
C1326  C     0.09593   0.87603   0.86600   0.00000  Uiso   1.00
C1327  C     0.44957   0.78911   0.80107   0.00000  Uiso   1.00
C1328  C     0.04942   0.87840   0.86362   0.00000  Uiso   1.00
C1329  C     0.47609   0.83430   0.83139   0.00000  Uiso   1.00
C1330  C     0.02288   0.83336   0.83301   0.00000  Uiso   1.00
C1331  C     0.45577   0.88024   0.86073   0.00000  Uiso   1.00
C1332  C     0.04313   0.78725   0.80409   0.00000  Uiso   1.00
C1333  C     0.46950   0.74274   0.77305   0.00000  Uiso   1.00
C1334  C     0.02932   0.92518   0.89058   0.00000  Uiso   1.00
Cu1335 Cu    0.25500   0.83913   0.89479   0.00000  Uiso   1.00
Cu1336 Cu    0.24499   0.82754   0.77187   0.00000  Uiso   1.00
H1337  H     0.38215   0.75660   0.77787   0.00000  Uiso   1.00
H1338  H     0.11694   0.90945   0.89037   0.00000  Uiso   1.00
H1339  H     0.03146   0.70850   0.74971   0.00000  Uiso   1.00
H1340  H     0.46675   0.95898   0.91383   0.00000  Uiso   1.00
H1341  H     0.21212   0.79747   0.98421   0.00000  Uiso   1.00
H1342  H     0.28814   0.86876   0.68243   0.00000  Uiso   1.00
N1343  N     0.23744   0.81881   0.67951   0.00000  Uiso   1.00
N1344  N     0.26255   0.84786   0.98716   0.00000  Uiso   1.00
O1345  O     0.25325   0.76204   0.87326   0.00000  Uiso   1.00
O1346  O     0.24674   0.90462   0.79341   0.00000  Uiso   1.00
O1347  O     0.24480   0.75226   0.76945   0.00000  Uiso   1.00
O1348  O     0.25520   0.91441   0.89721   0.00000  Uiso   1.00
O1349  O     0.18935   0.83821   0.88524   0.00000  Uiso   1.00
O1350  O     0.31064   0.82845   0.78143   0.00000  Uiso   1.00
O1351  O     0.18090   0.82843   0.78143   0.00000  Uiso   1.00
O1352  O     0.31910   0.83824   0.88523   0.00000  Uiso   1.00
C1353  C     0.38678   0.92891   0.88969   0.00000  Uiso   1.00
C1354  C     0.37740   0.96786   0.85714   0.00000  Uiso   1.00
C1355  C     0.36154   0.68244   0.88695   0.00000  Uiso   1.00
C1356  C     0.35432   0.69137   0.94906   0.00000  Uiso   1.00
C1357  C     0.36273   0.98559   0.98130   0.00000  Uiso   1.00
C1358  C     0.37886   0.93777   0.95178   0.00000  Uiso   1.00
H1359  H     0.38298   0.96143   0.80914   0.00000  Uiso   1.00
H1360  H     0.35481   0.71263   0.86193   0.00000  Uiso   1.00
H1361  H     0.34207   0.72848   0.97212   0.00000  Uiso   1.00
H1362  H     0.35738   0.99259   0.69612   0.00000  Uiso   1.00
H1363  H     0.38600   0.90803   0.97738   0.00000  Uiso   1.00
C1364  C     0.11135   0.73651   0.78070   0.00000  Uiso   1.00
C1365  C     0.11702   0.72159   0.71809   0.00000  Uiso   1.00
C1366  C     0.12822   0.67033   0.69262   0.00000  Uiso   1.00
C1367  C     0.13620   0.96799   0.72953   0.00000  Uiso   1.00
C1368  C     0.13193   0.98326   0.79216   0.00000  Uiso   1.00
C1369  C     0.11850   0.70027   0.81746   0.00000  Uiso   1.00
H1370  H     0.11069   0.74883   0.68892   0.00000  Uiso   1.00
H1371  H     0.12993   0.99120   0.97740   0.00000  Uiso   1.00
H1372  H     0.14540   0.92853   0.70956   0.00000  Uiso   1.00
H1373  H     0.13822   0.95574   0.82070   0.00000  Uiso   1.00
H1374  H     0.11287   0.71085   0.86542   0.00000  Uiso   1.00
O1375  O     0.44208   0.69965   0.74220   0.00000  Uiso   1.00
C1376  C     0.46090   0.98424   0.74315   0.00000  Uiso   1.00
H1377  H     0.47740   0.98340   0.78861   0.00000  Uiso   1.00
H1378  H     0.48410   0.97393   0.70646   0.00000  Uiso   1.00
H1379  H     0.43396   0.95315   0.73336   0.00000  Uiso   1.00
O1380  O     0.05688   0.96912   0.91844   0.00000  Uiso   1.00
C1381  C     0.03560   0.68400   0.92529   0.00000  Uiso   1.00
H1382  H     0.01435   0.68972   0.96448   0.00000  Uiso   1.00
H1383  H     0.01656   0.68758   0.88245   0.00000  Uiso   1.00
H1384  H     0.06120   0.71657   0.93622   0.00000  Uiso   1.00
O1385  O     0.28279   0.98416   0.76370   0.00000  Uiso   1.00
C1386  C     0.26227   0.98534   0.70623   0.00000  Uiso   1.00
H1387  H     0.27357   0.68799   0.69222   0.00000  Uiso   1.00
H1388  H     0.22538   0.98055   0.70447   0.00000  Uiso   1.00
H1389  H     0.27404   0.95232   0.67257   0.00000  Uiso   1.00
O1390  O     0.24753   0.68460   0.91627   0.00000  Uiso   1.00
C1391  C     0.20223   0.68671   0.92686   0.00000  Uiso   1.00
H1392  H     0.18551   0.98021   0.91670   0.00000  Uiso   1.00
H1393  H     0.18560   0.71254   0.90039   0.00000  Uiso   1.00
H1394  H     0.19951   0.70515   0.97562   0.00000  Uiso   1.00
C1395  C     0.75218   0.73362   0.81793   0.00000  Uiso   1.00
C1396  C     0.75242   0.93312   0.84872   0.00000  Uiso   1.00
C1397  C     0.51618   0.74302   0.77372   0.00000  Uiso   1.00
C1398  C     0.98254   0.92464   0.89037   0.00000  Uiso   1.00
C1399  C     0.75906   0.67801   0.81082   0.00000  Uiso   1.00
C1400  C     0.75165   0.98893   0.85761   0.00000  Uiso   1.00
C1401  C     0.66452   0.83262   0.83428   0.00000  Uiso   1.00
C1402  C     0.83525   0.83377   0.83236   0.00000  Uiso   1.00
C1403  C     0.90892   0.88083   0.86025   0.00000  Uiso   1.00
C1404  C     0.59004   0.78615   0.80587   0.00000  Uiso   1.00
C1405  C     0.88324   0.83557   0.83043   0.00000  Uiso   1.00
C1406  C     0.61611   0.83110   0.83610   0.00000  Uiso   1.00
C1407  C     0.90320   0.79074   0.80036   0.00000  Uiso   1.00
C1408  C     0.59593   0.87603   0.86600   0.00000  Uiso   1.00
C1409  C     0.94957   0.78911   0.80107   0.00000  Uiso   1.00
C1410  C     0.54942   0.87840   0.86362   0.00000  Uiso   1.00
C1411  C     0.97609   0.83430   0.83139   0.00000  Uiso   1.00
C1412  C     0.52288   0.83336   0.83301   0.00000  Uiso   1.00
C1413  C     0.95577   0.88024   0.86073   0.00000  Uiso   1.00
C1414  C     0.54313   0.78725   0.80409   0.00000  Uiso   1.00
C1415  C     0.96950   0.74274   0.77305   0.00000  Uiso   1.00
C1416  C     0.52932   0.92518   0.89058   0.00000  Uiso   1.00
Cu1417 Cu    0.75500   0.83913   0.89479   0.00000  Uiso   1.00
Cu1418 Cu    0.74499   0.82754   0.77187   0.00000  Uiso   1.00
H1419  H     0.88215   0.75660   0.77787   0.00000  Uiso   1.00
H1420  H     0.61694   0.90945   0.89037   0.00000  Uiso   1.00
H1421  H     0.53146   0.70850   0.74971   0.00000  Uiso   1.00
H1422  H     0.96675   0.95898   0.91383   0.00000  Uiso   1.00
H1423  H     0.71212   0.79747   0.98421   0.00000  Uiso   1.00
H1424  H     0.78814   0.86876   0.68243   0.00000  Uiso   1.00
N1425  N     0.73744   0.81881   0.67951   0.00000  Uiso   1.00
N1426  N     0.76255   0.84786   0.98716   0.00000  Uiso   1.00
O1427  O     0.75325   0.76204   0.87326   0.00000  Uiso   1.00
O1428  O     0.74674   0.90462   0.79341   0.00000  Uiso   1.00
O1429  O     0.74480   0.75226   0.76945   0.00000  Uiso   1.00
O1430  O     0.75520   0.91441   0.89721   0.00000  Uiso   1.00
O1431  O     0.68935   0.83821   0.88524   0.00000  Uiso   1.00
O1432  O     0.81064   0.82845   0.78143   0.00000  Uiso   1.00
O1433  O     0.68090   0.82843   0.78143   0.00000  Uiso   1.00
O1434  O     0.81910   0.83824   0.88523   0.00000  Uiso   1.00
C1435  C     0.88678   0.92891   0.88969   0.00000  Uiso   1.00
C1436  C     0.87740   0.96786   0.85714   0.00000  Uiso   1.00
C1437  C     0.86154   0.68244   0.88695   0.00000  Uiso   1.00
C1438  C     0.85432   0.69137   0.94906   0.00000  Uiso   1.00
C1439  C     0.86273   0.98559   0.98130   0.00000  Uiso   1.00
C1440  C     0.87886   0.93777   0.95178   0.00000  Uiso   1.00
H1441  H     0.88298   0.96143   0.80914   0.00000  Uiso   1.00
H1442  H     0.85481   0.71263   0.86193   0.00000  Uiso   1.00
H1443  H     0.84207   0.72848   0.97212   0.00000  Uiso   1.00
H1444  H     0.85738   0.99259   0.69612   0.00000  Uiso   1.00
H1445  H     0.88600   0.90803   0.97738   0.00000  Uiso   1.00
C1446  C     0.61135   0.73651   0.78070   0.00000  Uiso   1.00
C1447  C     0.61702   0.72159   0.71809   0.00000  Uiso   1.00
C1448  C     0.62822   0.67033   0.69262   0.00000  Uiso   1.00
C1449  C     0.63620   0.96799   0.72953   0.00000  Uiso   1.00
C1450  C     0.63193   0.98326   0.79216   0.00000  Uiso   1.00
C1451  C     0.61850   0.70027   0.81746   0.00000  Uiso   1.00
H1452  H     0.61069   0.74883   0.68892   0.00000  Uiso   1.00
H1453  H     0.62993   0.99120   0.97740   0.00000  Uiso   1.00
H1454  H     0.64540   0.92853   0.70956   0.00000  Uiso   1.00
H1455  H     0.63822   0.95574   0.82070   0.00000  Uiso   1.00
H1456  H     0.61287   0.71085   0.86542   0.00000  Uiso   1.00
O1457  O     0.94208   0.69965   0.74220   0.00000  Uiso   1.00
C1458  C     0.96090   0.98424   0.74315   0.00000  Uiso   1.00
H1459  H     0.97740   0.98340   0.78861   0.00000  Uiso   1.00
H1460  H     0.98410   0.97393   0.70646   0.00000  Uiso   1.00
H1461  H     0.93396   0.95315   0.73336   0.00000  Uiso   1.00
O1462  O     0.55688   0.96912   0.91844   0.00000  Uiso   1.00
C1463  C     0.53560   0.68400   0.92529   0.00000  Uiso   1.00
H1464  H     0.51435   0.68972   0.96448   0.00000  Uiso   1.00
H1465  H     0.51656   0.68758   0.88245   0.00000  Uiso   1.00
H1466  H     0.56120   0.71657   0.93622   0.00000  Uiso   1.00
O1467  O     0.78279   0.98416   0.76370   0.00000  Uiso   1.00
C1468  C     0.76227   0.98534   0.70623   0.00000  Uiso   1.00
H1469  H     0.77357   0.68799   0.69222   0.00000  Uiso   1.00
H1470  H     0.72538   0.98055   0.70447   0.00000  Uiso   1.00
H1471  H     0.77404   0.95232   0.67257   0.00000  Uiso   1.00
O1472  O     0.74753   0.68460   0.91627   0.00000  Uiso   1.00
C1473  C     0.70223   0.68671   0.92686   0.00000  Uiso   1.00
H1474  H     0.68551   0.98021   0.91670   0.00000  Uiso   1.00
H1475  H     0.68560   0.71254   0.90039   0.00000  Uiso   1.00
H1476  H     0.69951   0.70515   0.97562   0.00000  Uiso   1.00
loop_
_geom_bond_atom_site_label_1
_geom_bond_atom_site_label_2
_geom_bond_distance
_geom_bond_site_symmetry_2
_ccdc_geom_bond_type
C1     O33     1.298   .     A
C1     C5      1.450   .     S
C1     O35     1.297   .     A
C2     O34     1.298   .     A
C2     C6      1.429   .     S
C2     O36     1.288   .     A
C3     C20     1.408   .     A
C3     H27     1.078   .     S
C3     C103    1.405   1_455 S
C4     C19     1.403   .     A
C4     H28     1.078   .     S
C4     C104    1.408   .     S
C5     C334    1.340   1_545 S
C5     O401    1.393   1_545 S
C6     C169    1.340   .     S
C6     O242    1.384   .     S
C7     C12     1.461   .     S
C7     O37     1.303   .     A
C7     O39     1.301   .     A
C8     O38     1.300   .     A
C8     C11     1.449   .     S
C8     O40     1.298   .     A
C9     C19     1.411   .     A
C9     C11     1.404   .     A
C9     C41     1.485   .     S
C10    C52     1.480   .     S
C10    C20     1.412   .     A
C10    C12     1.406   .     A
C11    C13     1.393   .     A
C12    C14     1.397   .     A
C13    H25     1.085   .     S
C13    C15     1.398   .     A
C14    H26     1.083   .     S
C14    C16     1.402   .     A
C15    C17     1.418   .     A
C15    C21     1.409   .     A
C16    C22     1.413   .     A
C16    C18     1.418   .     A
C17    C19     1.415   .     A
C17    C100    1.409   .     S
C18    C20     1.414   .     A
C18    C99     1.409   1_455 S
C21    O63     1.397   .     S
C21    C85     1.405   .     S
C22    O68     1.398   .     S
C22    C86     1.408   1_455 S
Cu23   O40     1.957   .     S
Cu23   O33     1.964   .     S
Cu23   O37     1.974   .     S
Cu23   Cu24    2.708   .     S
Cu23   N32     2.035   .     S
Cu23   O36     1.956   .     S
Cu24   O39     1.957   .     S
Cu24   O38     1.974   .     S
Cu24   O35     1.956   .     S
Cu24   O34     1.964   .     S
Cu24   N31     2.035   .     S
H29    N523    1.028   .     S
H30    N1016   1.029   1_554 S
N31    H1013   1.028   1_554 S
N31    N1016   1.304   1_554 S
N32    N523    1.304   .     S
N32    H522    1.029   .     S
C41    C42     1.404   .     A
C41    C46     1.402   .     A
C42    H47     1.081   .     S
C42    C207    1.398   .     S
C43    H48     1.082   .     S
C43    C44     1.397   .     A
C43    C370    1.398   1_545 S
C44    H49     1.083   .     S
C44    C373    1.397   1_545 S
C45    C46     1.398   .     A
C45    C208    1.397   .     S
C45    H542    1.082   .     S
C46    H51     1.083   .     S
H50    C1029   1.082   1_554 S
C52    C53     1.399   .     A
C52    C57     1.400   .     A
C53    C54     1.397   .     A
C53    H58     1.082   .     S
C54    C383    1.394   1_545 S
C54    H1371   1.073   1_544 S
C55    C56     1.392   .     A
C55    H60     1.083   .     S
C55    C218    1.394   .     S
C56    H61     1.077   .     S
C56    C221    1.397   .     S
C57    H62     1.079   .     S
C57    C384    1.397   1_545 S
H59    C710    1.073   .     S
O63    C392    1.414   1_545 S
C64    H67     1.106   .     S
C64    H66     1.110   .     S
C64    H65     1.111   .     S
C64    O227    1.414   .     S
O68    C233    1.414   .     S
C69    H71     1.111   .     S
C69    H72     1.105   .     S
C69    H70     1.110   .     S
C69    O396    1.414   1_545 S
O73    C74     1.401   .     S
O73    C169    1.393   .     S
C74    H76     1.111   .     S
C74    H77     1.100   .     S
C74    H239    1.107   .     S
H75    C402    1.107   1_545 S
O78    C79     1.402   .     S
O78    C334    1.384   1_545 S
C79    H81     1.104   .     S
C79    H82     1.106   .     S
C79    H408    1.112   1_545 S
H80    C243    1.112   .     S
C83    O115    1.298   .     A
C83    C87     1.450   .     S
C83    O117    1.297   .     A
C84    O116    1.298   .     A
C84    C88     1.429   .     S
C84    O118    1.288   .     A
C85    C102    1.408   .     A
C85    H109    1.078   .     S
C86    C101    1.403   .     A
C86    H110    1.078   .     S
C86    C22     1.408   1_655 S
C87    C416    1.340   1_545 S
C87    O483    1.393   1_545 S
C88    C251    1.340   .     S
C88    O324    1.384   .     S
C89    C94     1.461   .     S
C89    O119    1.303   .     A
C89    O121    1.301   .     A
C90    O120    1.300   .     A
C90    C93     1.449   .     S
C90    O122    1.298   .     A
C91    C101    1.411   .     A
C91    C93     1.404   .     A
C91    C123    1.485   .     S
C92    C134    1.480   .     S
C92    C102    1.412   .     A
C92    C94     1.406   .     A
C93    C95     1.393   .     A
C94    C96     1.397   .     A
C95    H107    1.085   .     S
C95    C97     1.398   .     A
C96    H108    1.083   .     S
C96    C98     1.402   .     A
C97    C99     1.418   .     A
C97    C103    1.409   .     A
C98    C104    1.413   .     A
C98    C100    1.418   .     A
C99    C101    1.415   .     A
C99    C18     1.409   1_655 S
C100   C102    1.414   .     A
C103   O145    1.397   .     S
C103   C3      1.405   1_655 S
C104   O150    1.398   .     S
Cu105  O122    1.957   .     S
Cu105  O115    1.964   .     S
Cu105  O119    1.974   .     S
Cu105  Cu106   2.708   .     S
Cu105  N114    2.035   .     S
Cu105  O118    1.956   .     S
Cu106  O121    1.957   .     S
Cu106  O120    1.974   .     S
Cu106  O117    1.956   .     S
Cu106  O116    1.964   .     S
Cu106  N113    2.035   .     S
H111   N605    1.028   .     S
H112   N1098   1.029   1_554 S
N113   H1095   1.028   1_554 S
N113   N1098   1.304   1_554 S
N114   N605    1.304   .     S
N114   H604    1.029   .     S
C123   C124    1.404   .     A
C123   C128    1.402   .     A
C124   H129    1.081   .     S
C124   C289    1.398   .     S
C125   H130    1.082   .     S
C125   C126    1.397   .     A
C125   C452    1.398   1_545 S
C126   H131    1.083   .     S
C126   C455    1.397   1_545 S
C127   C128    1.398   .     A
C127   C290    1.397   .     S
C127   H624    1.082   .     S
C128   H133    1.083   .     S
H132   C1111   1.082   1_554 S
C134   C135    1.399   .     A
C134   C139    1.400   .     A
C135   C136    1.397   .     A
C135   H140    1.082   .     S
C136   C465    1.394   1_545 S
C136   H1453   1.073   1_544 S
C137   C138    1.392   .     A
C137   H142    1.083   .     S
C137   C300    1.394   .     S
C138   H143    1.077   .     S
C138   C303    1.397   .     S
C139   H144    1.079   .     S
C139   C466    1.397   1_545 S
H141   C792    1.073   .     S
O145   C474    1.414   1_545 S
C146   H149    1.106   .     S
C146   H148    1.110   .     S
C146   H147    1.111   .     S
C146   O309    1.414   .     S
O150   C315    1.414   .     S
C151   H153    1.111   .     S
C151   H154    1.105   .     S
C151   H152    1.110   .     S
C151   O478    1.414   1_545 S
O155   C156    1.401   .     S
O155   C251    1.393   .     S
C156   H158    1.111   .     S
C156   H159    1.100   .     S
C156   H321    1.107   .     S
H157   C484    1.107   1_545 S
O160   C161    1.402   .     S
O160   C416    1.384   1_545 S
C161   H163    1.104   .     S
C161   H164    1.106   .     S
C161   H490    1.112   1_545 S
H162   C325    1.112   .     S
C165   O197    1.298   .     A
C165   C169    1.450   .     S
C165   O199    1.297   .     A
C166   O198    1.298   .     A
C166   C170    1.429   .     S
C166   O200    1.288   .     A
C167   C184    1.408   .     A
C167   H191    1.078   .     S
C167   C267    1.405   1_455 S
C168   C183    1.403   .     A
C168   H192    1.078   .     S
C168   C268    1.408   .     S
C170   C333    1.340   .     S
C170   O406    1.384   .     S
C171   C176    1.461   .     S
C171   O201    1.303   .     A
C171   O203    1.301   .     A
C172   O202    1.300   .     A
C172   C175    1.449   .     S
C172   O204    1.298   .     A
C173   C183    1.411   .     A
C173   C175    1.404   .     A
C173   C205    1.485   .     S
C174   C216    1.480   .     S
C174   C184    1.412   .     A
C174   C176    1.406   .     A
C175   C177    1.393   .     A
C176   C178    1.397   .     A
C177   H189    1.085   .     S
C177   C179    1.398   .     A
C178   H190    1.083   .     S
C178   C180    1.402   .     A
C179   C181    1.418   .     A
C179   C185    1.409   .     A
C180   C186    1.413   .     A
C180   C182    1.418   .     A
C181   C183    1.415   .     A
C181   C264    1.409   .     S
C182   C184    1.414   .     A
C182   C263    1.409   1_455 S
C185   O227    1.397   .     S
C185   C249    1.405   .     S
C186   O232    1.398   .     S
C186   C250    1.408   1_455 S
Cu187  O204    1.957   .     S
Cu187  O197    1.964   .     S
Cu187  O201    1.974   .     S
Cu187  Cu188   2.708   .     S
Cu187  N196    2.035   .     S
Cu187  O200    1.956   .     S
Cu188  O203    1.957   .     S
Cu188  O202    1.974   .     S
Cu188  O199    1.956   .     S
Cu188  O198    1.964   .     S
Cu188  N195    2.035   .     S
H193   N687    1.028   .     S
H194   N1180   1.029   1_554 S
N195   H1177   1.028   1_554 S
N195   N1180   1.304   1_554 S
N196   N687    1.304   .     S
N196   H686    1.029   .     S
C205   C206    1.404   .     A
C205   C210    1.402   .     A
C206   H211    1.081   .     S
C206   C371    1.398   .     S
C207   H212    1.082   .     S
C207   C208    1.397   .     A
C208   H213    1.083   .     S
C209   C210    1.398   .     A
C209   C372    1.397   .     S
C209   H706    1.082   .     S
C210   H215    1.083   .     S
H214   C1193   1.082   1_554 S
C216   C217    1.399   .     A
C216   C221    1.400   .     A
C217   C218    1.397   .     A
C217   H222    1.082   .     S
C218   H1043   1.073   1_554 S
C219   C220    1.392   .     A
C219   H224    1.083   .     S
C219   C382    1.394   .     S
C220   H225    1.077   .     S
C220   C385    1.397   .     S
C221   H226    1.079   .     S
H223   C874    1.073   .     S
C228   H231    1.106   .     S
C228   H230    1.110   .     S
C228   H229    1.111   .     S
C228   O391    1.414   .     S
O232   C397    1.414   .     S
C233   H235    1.111   .     S
C233   H236    1.105   .     S
C233   H234    1.110   .     S
O237   C238    1.401   .     S
O237   C333    1.393   .     S
C238   H240    1.111   .     S
C238   H241    1.100   .     S
C238   H403    1.107   .     S
O242   C243    1.402   .     S
C243   H245    1.104   .     S
C243   H246    1.106   .     S
H244   C407    1.112   .     S
C247   O279    1.298   .     A
C247   C251    1.450   .     S
C247   O281    1.297   .     A
C248   O280    1.298   .     A
C248   C252    1.429   .     S
C248   O282    1.288   .     A
C249   C266    1.408   .     A
C249   H273    1.078   .     S
C250   C265    1.403   .     A
C250   H274    1.078   .     S
C250   C186    1.408   1_655 S
C252   C415    1.340   .     S
C252   O488    1.384   .     S
C253   C258    1.461   .     S
C253   O283    1.303   .     A
C253   O285    1.301   .     A
C254   O284    1.300   .     A
C254   C257    1.449   .     S
C254   O286    1.298   .     A
C255   C265    1.411   .     A
C255   C257    1.404   .     A
C255   C287    1.485   .     S
C256   C298    1.480   .     S
C256   C266    1.412   .     A
C256   C258    1.406   .     A
C257   C259    1.393   .     A
C258   C260    1.397   .     A
C259   H271    1.085   .     S
C259   C261    1.398   .     A
C260   H272    1.083   .     S
C260   C262    1.402   .     A
C261   C263    1.418   .     A
C261   C267    1.409   .     A
C262   C268    1.413   .     A
C262   C264    1.418   .     A
C263   C265    1.415   .     A
C263   C182    1.409   1_655 S
C264   C266    1.414   .     A
C267   O309    1.397   .     S
C267   C167    1.405   1_655 S
C268   O314    1.398   .     S
Cu269  O286    1.957   .     S
Cu269  O279    1.964   .     S
Cu269  O283    1.974   .     S
Cu269  Cu270   2.708   .     S
Cu269  N278    2.035   .     S
Cu269  O282    1.956   .     S
Cu270  O285    1.957   .     S
Cu270  O284    1.974   .     S
Cu270  O281    1.956   .     S
Cu270  O280    1.964   .     S
Cu270  N277    2.035   .     S
H275   N769    1.028   .     S
H276   N1262   1.029   1_554 S
N277   H1259   1.028   1_554 S
N277   N1262   1.304   1_554 S
N278   N769    1.304   .     S
N278   H768    1.029   .     S
C287   C288    1.404   .     A
C287   C292    1.402   .     A
C288   H293    1.081   .     S
C288   C453    1.398   .     S
C289   H294    1.082   .     S
C289   C290    1.397   .     A
C290   H295    1.083   .     S
C291   C292    1.398   .     A
C291   C454    1.397   .     S
C291   H788    1.082   .     S
C292   H297    1.083   .     S
H296   C1275   1.082   1_554 S
C298   C299    1.399   .     A
C298   C303    1.400   .     A
C299   C300    1.397   .     A
C299   H304    1.082   .     S
C300   H1125   1.073   1_554 S
C301   C302    1.392   .     A
C301   H306    1.083   .     S
C301   C464    1.394   .     S
C302   H307    1.077   .     S
C302   C467    1.397   .     S
C303   H308    1.079   .     S
H305   C956    1.073   .     S
C310   H313    1.106   .     S
C310   H312    1.110   .     S
C310   H311    1.111   .     S
C310   O473    1.414   .     S
O314   C479    1.414   .     S
C315   H317    1.111   .     S
C315   H318    1.105   .     S
C315   H316    1.110   .     S
O319   C320    1.401   .     S
O319   C415    1.393   .     S
C320   H322    1.111   .     S
C320   H323    1.100   .     S
C320   H485    1.107   .     S
O324   C325    1.402   .     S
C325   H327    1.104   .     S
C325   H328    1.106   .     S
H326   C489    1.112   .     S
C329   O361    1.298   .     A
C329   C333    1.450   .     S
C329   O363    1.297   .     A
C330   O362    1.298   .     A
C330   C334    1.429   .     S
C330   O364    1.288   .     A
C331   C348    1.408   .     A
C331   H355    1.078   .     S
C331   C431    1.405   1_455 S
C332   C347    1.403   .     A
C332   H356    1.078   .     S
C332   C432    1.408   .     S
C334   C5      1.340   1_565 S
C334   O78     1.384   1_565 S
C335   C340    1.461   .     S
C335   O365    1.303   .     A
C335   O367    1.301   .     A
C336   O366    1.300   .     A
C336   C339    1.449   .     S
C336   O368    1.298   .     A
C337   C347    1.411   .     A
C337   C339    1.404   .     A
C337   C369    1.485   .     S
C338   C380    1.480   .     S
C338   C348    1.412   .     A
C338   C340    1.406   .     A
C339   C341    1.393   .     A
C340   C342    1.397   .     A
C341   H353    1.085   .     S
C341   C343    1.398   .     A
C342   H354    1.083   .     S
C342   C344    1.402   .     A
C343   C345    1.418   .     A
C343   C349    1.409   .     A
C344   C350    1.413   .     A
C344   C346    1.418   .     A
C345   C347    1.415   .     A
C345   C428    1.409   .     S
C346   C348    1.414   .     A
C346   C427    1.409   1_455 S
C349   O391    1.397   .     S
C349   C413    1.405   .     S
C350   O396    1.398   .     S
C350   C414    1.408   1_455 S
Cu351  O368    1.957   .     S
Cu351  O361    1.964   .     S
Cu351  O365    1.974   .     S
Cu351  Cu352   2.708   .     S
Cu351  N360    2.035   .     S
Cu351  O364    1.956   .     S
Cu352  O367    1.957   .     S
Cu352  O366    1.974   .     S
Cu352  O363    1.956   .     S
Cu352  O362    1.964   .     S
Cu352  N359    2.035   .     S
H357   N851    1.028   .     S
H358   N1344   1.029   1_554 S
N359   H1341   1.028   1_554 S
N359   N1344   1.304   1_554 S
N360   N851    1.304   .     S
N360   H850    1.029   .     S
C369   C370    1.404   .     A
C369   C374    1.402   .     A
C370   H375    1.081   .     S
C370   C43     1.398   1_565 S
C371   H376    1.082   .     S
C371   C372    1.397   .     A
C372   H377    1.083   .     S
C373   C374    1.398   .     A
C373   C44     1.397   1_565 S
C373   H870    1.082   .     S
C374   H379    1.083   .     S
H378   C1357   1.082   1_554 S
C380   C381    1.399   .     A
C380   C385    1.400   .     A
C381   C382    1.397   .     A
C381   H386    1.082   .     S
C382   H1207   1.073   1_554 S
C383   C384    1.392   .     A
C383   H388    1.083   .     S
C383   C54     1.394   1_565 S
C384   H389    1.077   .     S
C384   C57     1.397   1_565 S
C385   H390    1.079   .     S
H387   C546    1.073   1_565 S
C392   H395    1.106   .     S
C392   H394    1.110   .     S
C392   H393    1.111   .     S
C392   O63     1.414   1_565 S
O396   C69     1.414   1_565 S
C397   H399    1.111   .     S
C397   H400    1.105   .     S
C397   H398    1.110   .     S
O401   C402    1.401   .     S
O401   C5      1.393   1_565 S
C402   H404    1.111   .     S
C402   H405    1.100   .     S
C402   H75     1.107   1_565 S
O406   C407    1.402   .     S
C407   H409    1.104   .     S
C407   H410    1.106   .     S
H408   C79     1.112   1_565 S
C411   O443    1.298   .     A
C411   C415    1.450   .     S
C411   O445    1.297   .     A
C412   O444    1.298   .     A
C412   C416    1.429   .     S
C412   O446    1.288   .     A
C413   C430    1.408   .     A
C413   H437    1.078   .     S
C414   C429    1.403   .     A
C414   H438    1.078   .     S
C414   C350    1.408   1_655 S
C416   C87     1.340   1_565 S
C416   O160    1.384   1_565 S
C417   C422    1.461   .     S
C417   O447    1.303   .     A
C417   O449    1.301   .     A
C418   O448    1.300   .     A
C418   C421    1.449   .     S
C418   O450    1.298   .     A
C419   C429    1.411   .     A
C419   C421    1.404   .     A
C419   C451    1.485   .     S
C420   C462    1.480   .     S
C420   C430    1.412   .     A
C420   C422    1.406   .     A
C421   C423    1.393   .     A
C422   C424    1.397   .     A
C423   H435    1.085   .     S
C423   C425    1.398   .     A
C424   H436    1.083   .     S
C424   C426    1.402   .     A
C425   C427    1.418   .     A
C425   C431    1.409   .     A
C426   C432    1.413   .     A
C426   C428    1.418   .     A
C427   C429    1.415   .     A
C427   C346    1.409   1_655 S
C428   C430    1.414   .     A
C431   O473    1.397   .     S
C431   C331    1.405   1_655 S
C432   O478    1.398   .     S
Cu433  O450    1.957   .     S
Cu433  O443    1.964   .     S
Cu433  O447    1.974   .     S
Cu433  Cu434   2.708   .     S
Cu433  N442    2.035   .     S
Cu433  O446    1.956   .     S
Cu434  O449    1.957   .     S
Cu434  O448    1.974   .     S
Cu434  O445    1.956   .     S
Cu434  O444    1.964   .     S
Cu434  N441    2.035   .     S
H439   N933    1.028   .     S
H440   N1426   1.029   1_554 S
N441   H1423   1.028   1_554 S
N441   N1426   1.304   1_554 S
N442   N933    1.304   .     S
N442   H932    1.029   .     S
C451   C452    1.404   .     A
C451   C456    1.402   .     A
C452   H457    1.081   .     S
C452   C125    1.398   1_565 S
C453   H458    1.082   .     S
C453   C454    1.397   .     A
C454   H459    1.083   .     S
C455   C456    1.398   .     A
C455   C126    1.397   1_565 S
C455   H952    1.082   .     S
C456   H461    1.083   .     S
H460   C1439   1.082   1_554 S
C462   C463    1.399   .     A
C462   C467    1.400   .     A
C463   C464    1.397   .     A
C463   H468    1.082   .     S
C464   H1289   1.073   1_554 S
C465   C466    1.392   .     A
C465   H470    1.083   .     S
C465   C136    1.394   1_565 S
C466   H471    1.077   .     S
C466   C139    1.397   1_565 S
C467   H472    1.079   .     S
H469   C628    1.073   1_565 S
C474   H477    1.106   .     S
C474   H476    1.110   .     S
C474   H475    1.111   .     S
C474   O145    1.414   1_565 S
O478   C151    1.414   1_565 S
C479   H481    1.111   .     S
C479   H482    1.105   .     S
C479   H480    1.110   .     S
O483   C484    1.401   .     S
O483   C87     1.393   1_565 S
C484   H486    1.111   .     S
C484   H487    1.100   .     S
C484   H157    1.107   1_565 S
O488   C489    1.402   .     S
C489   H491    1.104   .     S
C489   H492    1.106   .     S
H490   C161    1.112   1_565 S
C493   O525    1.298   .     A
C493   C497    1.450   .     S
C493   O527    1.297   .     A
C494   O526    1.298   .     A
C494   C498    1.429   .     S
C494   O528    1.288   .     A
C495   C512    1.408   .     A
C495   H519    1.078   .     S
C495   C595    1.405   1_455 S
C496   C511    1.403   .     A
C496   H520    1.078   .     S
C496   C596    1.408   .     S
C497   C826    1.340   1_545 S
C497   O893    1.393   1_545 S
C498   C661    1.340   .     S
C498   O734    1.384   .     S
C499   C504    1.461   .     S
C499   O529    1.303   .     A
C499   O531    1.301   .     A
C500   O530    1.300   .     A
C500   C503    1.449   .     S
C500   O532    1.298   .     A
C501   C511    1.411   .     A
C501   C503    1.404   .     A
C501   C533    1.485   .     S
C502   C544    1.480   .     S
C502   C512    1.412   .     A
C502   C504    1.406   .     A
C503   C505    1.393   .     A
C504   C506    1.397   .     A
C505   H517    1.085   .     S
C505   C507    1.398   .     A
C506   H518    1.083   .     S
C506   C508    1.402   .     A
C507   C509    1.418   .     A
C507   C513    1.409   .     A
C508   C514    1.413   .     A
C508   C510    1.418   .     A
C509   C511    1.415   .     A
C509   C592    1.409   .     S
C510   C512    1.414   .     A
C510   C591    1.409   1_455 S
C513   O555    1.397   .     S
C513   C577    1.405   .     S
C514   O560    1.398   .     S
C514   C578    1.408   1_455 S
Cu515  O532    1.957   .     S
Cu515  O525    1.964   .     S
Cu515  O529    1.974   .     S
Cu515  Cu516   2.708   .     S
Cu515  N524    2.035   .     S
Cu515  O528    1.956   .     S
Cu516  O531    1.957   .     S
Cu516  O530    1.974   .     S
Cu516  O527    1.956   .     S
Cu516  O526    1.964   .     S
Cu516  N523    2.035   .     S
H521   N1015   1.028   .     S
N524   N1015   1.304   .     S
N524   H1014   1.029   .     S
C533   C534    1.404   .     A
C533   C538    1.402   .     A
C534   H539    1.081   .     S
C534   C699    1.398   .     S
C535   H540    1.082   .     S
C535   C536    1.397   .     A
C535   C862    1.398   1_545 S
C536   H541    1.083   .     S
C536   C865    1.397   1_545 S
C537   C538    1.398   .     A
C537   C700    1.397   .     S
C537   H1034   1.082   .     S
C538   H543    1.083   .     S
C544   C545    1.399   .     A
C544   C549    1.400   .     A
C545   C546    1.397   .     A
C545   H550    1.082   .     S
C546   C875    1.394   1_545 S
C546   H387    1.073   1_545 S
C547   C548    1.392   .     A
C547   H552    1.083   .     S
C547   C710    1.394   .     S
C548   H553    1.077   .     S
C548   C713    1.397   .     S
C549   H554    1.079   .     S
C549   C876    1.397   1_545 S
H551   C1202   1.073   .     S
O555   C884    1.414   1_545 S
C556   H559    1.106   .     S
C556   H558    1.110   .     S
C556   H557    1.111   .     S
C556   O719    1.414   .     S
O560   C725    1.414   .     S
C561   H563    1.111   .     S
C561   H564    1.105   .     S
C561   H562    1.110   .     S
C561   O888    1.414   1_545 S
O565   C566    1.401   .     S
O565   C661    1.393   .     S
C566   H568    1.111   .     S
C566   H569    1.100   .     S
C566   H731    1.107   .     S
H567   C894    1.107   1_545 S
O570   C571    1.402   .     S
O570   C826    1.384   1_545 S
C571   H573    1.104   .     S
C571   H574    1.106   .     S
C571   H900    1.112   1_545 S
H572   C735    1.112   .     S
C575   O607    1.298   .     A
C575   C579    1.450   .     S
C575   O609    1.297   .     A
C576   O608    1.298   .     A
C576   C580    1.429   .     S
C576   O610    1.288   .     A
C577   C594    1.408   .     A
C577   H601    1.078   .     S
C578   C593    1.403   .     A
C578   H602    1.078   .     S
C578   C514    1.408   1_655 S
C579   C908    1.340   1_545 S
C579   O975    1.393   1_545 S
C580   C743    1.340   .     S
C580   O816    1.384   .     S
C581   C586    1.461   .     S
C581   O611    1.303   .     A
C581   O613    1.301   .     A
C582   O612    1.300   .     A
C582   C585    1.449   .     S
C582   O614    1.298   .     A
C583   C593    1.411   .     A
C583   C585    1.404   .     A
C583   C615    1.485   .     S
C584   C626    1.480   .     S
C584   C594    1.412   .     A
C584   C586    1.406   .     A
C585   C587    1.393   .     A
C586   C588    1.397   .     A
C587   H599    1.085   .     S
C587   C589    1.398   .     A
C588   H600    1.083   .     S
C588   C590    1.402   .     A
C589   C591    1.418   .     A
C589   C595    1.409   .     A
C590   C596    1.413   .     A
C590   C592    1.418   .     A
C591   C593    1.415   .     A
C591   C510    1.409   1_655 S
C592   C594    1.414   .     A
C595   O637    1.397   .     S
C595   C495    1.405   1_655 S
C596   O642    1.398   .     S
Cu597  O614    1.957   .     S
Cu597  O607    1.964   .     S
Cu597  O611    1.974   .     S
Cu597  Cu598   2.708   .     S
Cu597  N606    2.035   .     S
Cu597  O610    1.956   .     S
Cu598  O613    1.957   .     S
Cu598  O612    1.974   .     S
Cu598  O609    1.956   .     S
Cu598  O608    1.964   .     S
Cu598  N605    2.035   .     S
H603   N1097   1.028   .     S
N606   N1097   1.304   .     S
N606   H1096   1.029   .     S
C615   C616    1.404   .     A
C615   C620    1.402   .     A
C616   H621    1.081   .     S
C616   C781    1.398   .     S
C617   H622    1.082   .     S
C617   C618    1.397   .     A
C617   C944    1.398   1_545 S
C618   H623    1.083   .     S
C618   C947    1.397   1_545 S
C619   C620    1.398   .     A
C619   C782    1.397   .     S
C619   H1116   1.082   .     S
C620   H625    1.083   .     S
C626   C627    1.399   .     A
C626   C631    1.400   .     A
C627   C628    1.397   .     A
C627   H632    1.082   .     S
C628   C957    1.394   1_545 S
C628   H469    1.073   1_545 S
C629   C630    1.392   .     A
C629   H634    1.083   .     S
C629   C792    1.394   .     S
C630   H635    1.077   .     S
C630   C795    1.397   .     S
C631   H636    1.079   .     S
C631   C958    1.397   1_545 S
H633   C1284   1.073   .     S
O637   C966    1.414   1_545 S
C638   H641    1.106   .     S
C638   H640    1.110   .     S
C638   H639    1.111   .     S
C638   O801    1.414   .     S
O642   C807    1.414   .     S
C643   H645    1.111   .     S
C643   H646    1.105   .     S
C643   H644    1.110   .     S
C643   O970    1.414   1_545 S
O647   C648    1.401   .     S
O647   C743    1.393   .     S
C648   H650    1.111   .     S
C648   H651    1.100   .     S
C648   H813    1.107   .     S
H649   C976    1.107   1_545 S
O652   C653    1.402   .     S
O652   C908    1.384   1_545 S
C653   H655    1.104   .     S
C653   H656    1.106   .     S
C653   H982    1.112   1_545 S
H654   C817    1.112   .     S
C657   O689    1.298   .     A
C657   C661    1.450   .     S
C657   O691    1.297   .     A
C658   O690    1.298   .     A
C658   C662    1.429   .     S
C658   O692    1.288   .     A
C659   C676    1.408   .     A
C659   H683    1.078   .     S
C659   C759    1.405   1_455 S
C660   C675    1.403   .     A
C660   H684    1.078   .     S
C660   C760    1.408   .     S
C662   C825    1.340   .     S
C662   O898    1.384   .     S
C663   C668    1.461   .     S
C663   O693    1.303   .     A
C663   O695    1.301   .     A
C664   O694    1.300   .     A
C664   C667    1.449   .     S
C664   O696    1.298   .     A
C665   C675    1.411   .     A
C665   C667    1.404   .     A
C665   C697    1.485   .     S
C666   C708    1.480   .     S
C666   C676    1.412   .     A
C666   C668    1.406   .     A
C667   C669    1.393   .     A
C668   C670    1.397   .     A
C669   H681    1.085   .     S
C669   C671    1.398   .     A
C670   H682    1.083   .     S
C670   C672    1.402   .     A
C671   C673    1.418   .     A
C671   C677    1.409   .     A
C672   C678    1.413   .     A
C672   C674    1.418   .     A
C673   C675    1.415   .     A
C673   C756    1.409   .     S
C674   C676    1.414   .     A
C674   C755    1.409   1_455 S
C677   O719    1.397   .     S
C677   C741    1.405   .     S
C678   O724    1.398   .     S
C678   C742    1.408   1_455 S
Cu679  O696    1.957   .     S
Cu679  O689    1.964   .     S
Cu679  O693    1.974   .     S
Cu679  Cu680   2.708   .     S
Cu679  N688    2.035   .     S
Cu679  O692    1.956   .     S
Cu680  O695    1.957   .     S
Cu680  O694    1.974   .     S
Cu680  O691    1.956   .     S
Cu680  O690    1.964   .     S
Cu680  N687    2.035   .     S
H685   N1179   1.028   .     S
N688   N1179   1.304   .     S
N688   H1178   1.029   .     S
C697   C698    1.404   .     A
C697   C702    1.402   .     A
C698   H703    1.081   .     S
C698   C863    1.398   .     S
C699   H704    1.082   .     S
C699   C700    1.397   .     A
C700   H705    1.083   .     S
C701   C702    1.398   .     A
C701   C864    1.397   .     S
C701   H1198   1.082   .     S
C702   H707    1.083   .     S
C708   C709    1.399   .     A
C708   C713    1.400   .     A
C709   C710    1.397   .     A
C709   H714    1.082   .     S
C711   C712    1.392   .     A
C711   H716    1.083   .     S
C711   C874    1.394   .     S
C712   H717    1.077   .     S
C712   C877    1.397   .     S
C713   H718    1.079   .     S
H715   C1366   1.073   .     S
C720   H723    1.106   .     S
C720   H722    1.110   .     S
C720   H721    1.111   .     S
C720   O883    1.414   .     S
O724   C889    1.414   .     S
C725   H727    1.111   .     S
C725   H728    1.105   .     S
C725   H726    1.110   .     S
O729   C730    1.401   .     S
O729   C825    1.393   .     S
C730   H732    1.111   .     S
C730   H733    1.100   .     S
C730   H895    1.107   .     S
O734   C735    1.402   .     S
C735   H737    1.104   .     S
C735   H738    1.106   .     S
H736   C899    1.112   .     S
C739   O771    1.298   .     A
C739   C743    1.450   .     S
C739   O773    1.297   .     A
C740   O772    1.298   .     A
C740   C744    1.429   .     S
C740   O774    1.288   .     A
C741   C758    1.408   .     A
C741   H765    1.078   .     S
C742   C757    1.403   .     A
C742   H766    1.078   .     S
C742   C678    1.408   1_655 S
C744   C907    1.340   .     S
C744   O980    1.384   .     S
C745   C750    1.461   .     S
C745   O775    1.303   .     A
C745   O777    1.301   .     A
C746   O776    1.300   .     A
C746   C749    1.449   .     S
C746   O778    1.298   .     A
C747   C757    1.411   .     A
C747   C749    1.404   .     A
C747   C779    1.485   .     S
C748   C790    1.480   .     S
C748   C758    1.412   .     A
C748   C750    1.406   .     A
C749   C751    1.393   .     A
C750   C752    1.397   .     A
C751   H763    1.085   .     S
C751   C753    1.398   .     A
C752   H764    1.083   .     S
C752   C754    1.402   .     A
C753   C755    1.418   .     A
C753   C759    1.409   .     A
C754   C760    1.413   .     A
C754   C756    1.418   .     A
C755   C757    1.415   .     A
C755   C674    1.409   1_655 S
C756   C758    1.414   .     A
C759   O801    1.397   .     S
C759   C659    1.405   1_655 S
C760   O806    1.398   .     S
Cu761  O778    1.957   .     S
Cu761  O771    1.964   .     S
Cu761  O775    1.974   .     S
Cu761  Cu762   2.708   .     S
Cu761  N770    2.035   .     S
Cu761  O774    1.956   .     S
Cu762  O777    1.957   .     S
Cu762  O776    1.974   .     S
Cu762  O773    1.956   .     S
Cu762  O772    1.964   .     S
Cu762  N769    2.035   .     S
H767   N1261   1.028   .     S
N770   N1261   1.304   .     S
N770   H1260   1.029   .     S
C779   C780    1.404   .     A
C779   C784    1.402   .     A
C780   H785    1.081   .     S
C780   C945    1.398   .     S
C781   H786    1.082   .     S
C781   C782    1.397   .     A
C782   H787    1.083   .     S
C783   C784    1.398   .     A
C783   C946    1.397   .     S
C783   H1280   1.082   .     S
C784   H789    1.083   .     S
C790   C791    1.399   .     A
C790   C795    1.400   .     A
C791   C792    1.397   .     A
C791   H796    1.082   .     S
C793   C794    1.392   .     A
C793   H798    1.083   .     S
C793   C956    1.394   .     S
C794   H799    1.077   .     S
C794   C959    1.397   .     S
C795   H800    1.079   .     S
H797   C1448   1.073   .     S
C802   H805    1.106   .     S
C802   H804    1.110   .     S
C802   H803    1.111   .     S
C802   O965    1.414   .     S
O806   C971    1.414   .     S
C807   H809    1.111   .     S
C807   H810    1.105   .     S
C807   H808    1.110   .     S
O811   C812    1.401   .     S
O811   C907    1.393   .     S
C812   H814    1.111   .     S
C812   H815    1.100   .     S
C812   H977    1.107   .     S
O816   C817    1.402   .     S
C817   H819    1.104   .     S
C817   H820    1.106   .     S
H818   C981    1.112   .     S
C821   O853    1.298   .     A
C821   C825    1.450   .     S
C821   O855    1.297   .     A
C822   O854    1.298   .     A
C822   C826    1.429   .     S
C822   O856    1.288   .     A
C823   C840    1.408   .     A
C823   H847    1.078   .     S
C823   C923    1.405   1_455 S
C824   C839    1.403   .     A
C824   H848    1.078   .     S
C824   C924    1.408   .     S
C826   C497    1.340   1_565 S
C826   O570    1.384   1_565 S
C827   C832    1.461   .     S
C827   O857    1.303   .     A
C827   O859    1.301   .     A
C828   O858    1.300   .     A
C828   C831    1.449   .     S
C828   O860    1.298   .     A
C829   C839    1.411   .     A
C829   C831    1.404   .     A
C829   C861    1.485   .     S
C830   C872    1.480   .     S
C830   C840    1.412   .     A
C830   C832    1.406   .     A
C831   C833    1.393   .     A
C832   C834    1.397   .     A
C833   H845    1.085   .     S
C833   C835    1.398   .     A
C834   H846    1.083   .     S
C834   C836    1.402   .     A
C835   C837    1.418   .     A
C835   C841    1.409   .     A
C836   C842    1.413   .     A
C836   C838    1.418   .     A
C837   C839    1.415   .     A
C837   C920    1.409   .     S
C838   C840    1.414   .     A
C838   C919    1.409   1_455 S
C841   O883    1.397   .     S
C841   C905    1.405   .     S
C842   O888    1.398   .     S
C842   C906    1.408   1_455 S
Cu843  O860    1.957   .     S
Cu843  O853    1.964   .     S
Cu843  O857    1.974   .     S
Cu843  Cu844   2.708   .     S
Cu843  N852    2.035   .     S
Cu843  O856    1.956   .     S
Cu844  O859    1.957   .     S
Cu844  O858    1.974   .     S
Cu844  O855    1.956   .     S
Cu844  O854    1.964   .     S
Cu844  N851    2.035   .     S
H849   N1343   1.028   .     S
N852   N1343   1.304   .     S
N852   H1342   1.029   .     S
C861   C862    1.404   .     A
C861   C866    1.402   .     A
C862   H867    1.081   .     S
C862   C535    1.398   1_565 S
C863   H868    1.082   .     S
C863   C864    1.397   .     A
C864   H869    1.083   .     S
C865   C866    1.398   .     A
C865   C536    1.397   1_565 S
C865   H1362   1.082   .     S
C866   H871    1.083   .     S
C872   C873    1.399   .     A
C872   C877    1.400   .     A
C873   C874    1.397   .     A
C873   H878    1.082   .     S
C875   C876    1.392   .     A
C875   H880    1.083   .     S
C875   C546    1.394   1_565 S
C876   H881    1.077   .     S
C876   C549    1.397   1_565 S
C877   H882    1.079   .     S
H879   C1038   1.073   1_565 S
C884   H887    1.106   .     S
C884   H886    1.110   .     S
C884   H885    1.111   .     S
C884   O555    1.414   1_565 S
O888   C561    1.414   1_565 S
C889   H891    1.111   .     S
C889   H892    1.105   .     S
C889   H890    1.110   .     S
O893   C894    1.401   .     S
O893   C497    1.393   1_565 S
C894   H896    1.111   .     S
C894   H897    1.100   .     S
C894   H567    1.107   1_565 S
O898   C899    1.402   .     S
C899   H901    1.104   .     S
C899   H902    1.106   .     S
H900   C571    1.112   1_565 S
C903   O935    1.298   .     A
C903   C907    1.450   .     S
C903   O937    1.297   .     A
C904   O936    1.298   .     A
C904   C908    1.429   .     S
C904   O938    1.288   .     A
C905   C922    1.408   .     A
C905   H929    1.078   .     S
C906   C921    1.403   .     A
C906   H930    1.078   .     S
C906   C842    1.408   1_655 S
C908   C579    1.340   1_565 S
C908   O652    1.384   1_565 S
C909   C914    1.461   .     S
C909   O939    1.303   .     A
C909   O941    1.301   .     A
C910   O940    1.300   .     A
C910   C913    1.449   .     S
C910   O942    1.298   .     A
C911   C921    1.411   .     A
C911   C913    1.404   .     A
C911   C943    1.485   .     S
C912   C954    1.480   .     S
C912   C922    1.412   .     A
C912   C914    1.406   .     A
C913   C915    1.393   .     A
C914   C916    1.397   .     A
C915   H927    1.085   .     S
C915   C917    1.398   .     A
C916   H928    1.083   .     S
C916   C918    1.402   .     A
C917   C919    1.418   .     A
C917   C923    1.409   .     A
C918   C924    1.413   .     A
C918   C920    1.418   .     A
C919   C921    1.415   .     A
C919   C838    1.409   1_655 S
C920   C922    1.414   .     A
C923   O965    1.397   .     S
C923   C823    1.405   1_655 S
C924   O970    1.398   .     S
Cu925  O942    1.957   .     S
Cu925  O935    1.964   .     S
Cu925  O939    1.974   .     S
Cu925  Cu926   2.708   .     S
Cu925  N934    2.035   .     S
Cu925  O938    1.956   .     S
Cu926  O941    1.957   .     S
Cu926  O940    1.974   .     S
Cu926  O937    1.956   .     S
Cu926  O936    1.964   .     S
Cu926  N933    2.035   .     S
H931   N1425   1.028   .     S
N934   N1425   1.304   .     S
N934   H1424   1.029   .     S
C943   C944    1.404   .     A
C943   C948    1.402   .     A
C944   H949    1.081   .     S
C944   C617    1.398   1_565 S
C945   H950    1.082   .     S
C945   C946    1.397   .     A
C946   H951    1.083   .     S
C947   C948    1.398   .     A
C947   C618    1.397   1_565 S
C947   H1444   1.082   .     S
C948   H953    1.083   .     S
C954   C955    1.399   .     A
C954   C959    1.400   .     A
C955   C956    1.397   .     A
C955   H960    1.082   .     S
C957   C958    1.392   .     A
C957   H962    1.083   .     S
C957   C628    1.394   1_565 S
C958   H963    1.077   .     S
C958   C631    1.397   1_565 S
C959   H964    1.079   .     S
H961   C1120   1.073   1_565 S
C966   H969    1.106   .     S
C966   H968    1.110   .     S
C966   H967    1.111   .     S
C966   O637    1.414   1_565 S
O970   C643    1.414   1_565 S
C971   H973    1.111   .     S
C971   H974    1.105   .     S
C971   H972    1.110   .     S
O975   C976    1.401   .     S
O975   C579    1.393   1_565 S
C976   H978    1.111   .     S
C976   H979    1.100   .     S
C976   H649    1.107   1_565 S
O980   C981    1.402   .     S
C981   H983    1.104   .     S
C981   H984    1.106   .     S
H982   C653    1.112   1_565 S
C985   O1017   1.298   .     A
C985   C989    1.450   .     S
C985   O1019   1.297   .     A
C986   O1018   1.298   .     A
C986   C990    1.429   .     S
C986   O1020   1.288   .     A
C987   C1004   1.408   .     A
C987   H1011   1.078   .     S
C987   C1087   1.405   1_455 S
C988   C1003   1.403   .     A
C988   H1012   1.078   .     S
C988   C1088   1.408   .     S
C989   C1318   1.340   1_545 S
C989   O1385   1.393   1_545 S
C990   C1153   1.340   .     S
C990   O1226   1.384   .     S
C991   C996    1.461   .     S
C991   O1021   1.303   .     A
C991   O1023   1.301   .     A
C992   O1022   1.300   .     A
C992   C995    1.449   .     S
C992   O1024   1.298   .     A
C993   C1003   1.411   .     A
C993   C995    1.404   .     A
C993   C1025   1.485   .     S
C994   C1036   1.480   .     S
C994   C1004   1.412   .     A
C994   C996    1.406   .     A
C995   C997    1.393   .     A
C996   C998    1.397   .     A
C997   H1009   1.085   .     S
C997   C999    1.398   .     A
C998   H1010   1.083   .     S
C998   C1000   1.402   .     A
C999   C1001   1.418   .     A
C999   C1005   1.409   .     A
C1000  C1006   1.413   .     A
C1000  C1002   1.418   .     A
C1001  C1003   1.415   .     A
C1001  C1084   1.409   .     S
C1002  C1004   1.414   .     A
C1002  C1083   1.409   1_455 S
C1005  O1047   1.397   .     S
C1005  C1069   1.405   .     S
C1006  O1052   1.398   .     S
C1006  C1070   1.408   1_455 S
Cu1007 O1024   1.957   .     S
Cu1007 O1017   1.964   .     S
Cu1007 O1021   1.974   .     S
Cu1007 Cu1008  2.708   .     S
Cu1007 N1016   2.035   .     S
Cu1007 O1020   1.956   .     S
Cu1008 O1023   1.957   .     S
Cu1008 O1022   1.974   .     S
Cu1008 O1019   1.956   .     S
Cu1008 O1018   1.964   .     S
Cu1008 N1015   2.035   .     S
H1013  N31     1.028   1_556 S
N1016  N31     1.304   1_556 S
N1016  H30     1.029   1_556 S
C1025  C1026   1.404   .     A
C1025  C1030   1.402   .     A
C1026  H1031   1.081   .     S
C1026  C1191   1.398   .     S
C1027  H1032   1.082   .     S
C1027  C1028   1.397   .     A
C1027  C1354   1.398   1_545 S
C1028  H1033   1.083   .     S
C1028  C1357   1.397   1_545 S
C1029  C1030   1.398   .     A
C1029  C1192   1.397   .     S
C1029  H50     1.082   1_556 S
C1030  H1035   1.083   .     S
C1036  C1037   1.399   .     A
C1036  C1041   1.400   .     A
C1037  C1038   1.397   .     A
C1037  H1042   1.082   .     S
C1038  C1367   1.394   1_545 S
C1038  H879    1.073   1_545 S
C1039  C1040   1.392   .     A
C1039  H1044   1.083   .     S
C1039  C1202   1.394   .     S
C1040  H1045   1.077   .     S
C1040  C1205   1.397   .     S
C1041  H1046   1.079   .     S
C1041  C1368   1.397   1_545 S
H1043  C218    1.073   1_556 S
O1047  C1376   1.414   1_545 S
C1048  H1051   1.106   .     S
C1048  H1050   1.110   .     S
C1048  H1049   1.111   .     S
C1048  O1211   1.414   .     S
O1052  C1217   1.414   .     S
C1053  H1055   1.111   .     S
C1053  H1056   1.105   .     S
C1053  H1054   1.110   .     S
C1053  O1380   1.414   1_545 S
O1057  C1058   1.401   .     S
O1057  C1153   1.393   .     S
C1058  H1060   1.111   .     S
C1058  H1061   1.100   .     S
C1058  H1223   1.107   .     S
H1059  C1386   1.107   1_545 S
O1062  C1063   1.402   .     S
O1062  C1318   1.384   1_545 S
C1063  H1065   1.104   .     S
C1063  H1066   1.106   .     S
C1063  H1392   1.112   1_545 S
H1064  C1227   1.112   .     S
C1067  O1099   1.298   .     A
C1067  C1071   1.450   .     S
C1067  O1101   1.297   .     A
C1068  O1100   1.298   .     A
C1068  C1072   1.429   .     S
C1068  O1102   1.288   .     A
C1069  C1086   1.408   .     A
C1069  H1093   1.078   .     S
C1070  C1085   1.403   .     A
C1070  H1094   1.078   .     S
C1070  C1006   1.408   1_655 S
C1071  C1400   1.340   1_545 S
C1071  O1467   1.393   1_545 S
C1072  C1235   1.340   .     S
C1072  O1308   1.384   .     S
C1073  C1078   1.461   .     S
C1073  O1103   1.303   .     A
C1073  O1105   1.301   .     A
C1074  O1104   1.300   .     A
C1074  C1077   1.449   .     S
C1074  O1106   1.298   .     A
C1075  C1085   1.411   .     A
C1075  C1077   1.404   .     A
C1075  C1107   1.485   .     S
C1076  C1118   1.480   .     S
C1076  C1086   1.412   .     A
C1076  C1078   1.406   .     A
C1077  C1079   1.393   .     A
C1078  C1080   1.397   .     A
C1079  H1091   1.085   .     S
C1079  C1081   1.398   .     A
C1080  H1092   1.083   .     S
C1080  C1082   1.402   .     A
C1081  C1083   1.418   .     A
C1081  C1087   1.409   .     A
C1082  C1088   1.413   .     A
C1082  C1084   1.418   .     A
C1083  C1085   1.415   .     A
C1083  C1002   1.409   1_655 S
C1084  C1086   1.414   .     A
C1087  O1129   1.397   .     S
C1087  C987    1.405   1_655 S
C1088  O1134   1.398   .     S
Cu1089 O1106   1.957   .     S
Cu1089 O1099   1.964   .     S
Cu1089 O1103   1.974   .     S
Cu1089 Cu1090  2.708   .     S
Cu1089 N1098   2.035   .     S
Cu1089 O1102   1.956   .     S
Cu1090 O1105   1.957   .     S
Cu1090 O1104   1.974   .     S
Cu1090 O1101   1.956   .     S
Cu1090 O1100   1.964   .     S
Cu1090 N1097   2.035   .     S
H1095  N113    1.028   1_556 S
N1098  N113    1.304   1_556 S
N1098  H112    1.029   1_556 S
C1107  C1108   1.404   .     A
C1107  C1112   1.402   .     A
C1108  H1113   1.081   .     S
C1108  C1273   1.398   .     S
C1109  H1114   1.082   .     S
C1109  C1110   1.397   .     A
C1109  C1436   1.398   1_545 S
C1110  H1115   1.083   .     S
C1110  C1439   1.397   1_545 S
C1111  C1112   1.398   .     A
C1111  C1274   1.397   .     S
C1111  H132    1.082   1_556 S
C1112  H1117   1.083   .     S
C1118  C1119   1.399   .     A
C1118  C1123   1.400   .     A
C1119  C1120   1.397   .     A
C1119  H1124   1.082   .     S
C1120  C1449   1.394   1_545 S
C1120  H961    1.073   1_545 S
C1121  C1122   1.392   .     A
C1121  H1126   1.083   .     S
C1121  C1284   1.394   .     S
C1122  H1127   1.077   .     S
C1122  C1287   1.397   .     S
C1123  H1128   1.079   .     S
C1123  C1450   1.397   1_545 S
H1125  C300    1.073   1_556 S
O1129  C1458   1.414   1_545 S
C1130  H1133   1.106   .     S
C1130  H1132   1.110   .     S
C1130  H1131   1.111   .     S
C1130  O1293   1.414   .     S
O1134  C1299   1.414   .     S
C1135  H1137   1.111   .     S
C1135  H1138   1.105   .     S
C1135  H1136   1.110   .     S
C1135  O1462   1.414   1_545 S
O1139  C1140   1.401   .     S
O1139  C1235   1.393   .     S
C1140  H1142   1.111   .     S
C1140  H1143   1.100   .     S
C1140  H1305   1.107   .     S
H1141  C1468   1.107   1_545 S
O1144  C1145   1.402   .     S
O1144  C1400   1.384   1_545 S
C1145  H1147   1.104   .     S
C1145  H1148   1.106   .     S
C1145  H1474   1.112   1_545 S
H1146  C1309   1.112   .     S
C1149  O1181   1.298   .     A
C1149  C1153   1.450   .     S
C1149  O1183   1.297   .     A
C1150  O1182   1.298   .     A
C1150  C1154   1.429   .     S
C1150  O1184   1.288   .     A
C1151  C1168   1.408   .     A
C1151  H1175   1.078   .     S
C1151  C1251   1.405   1_455 S
C1152  C1167   1.403   .     A
C1152  H1176   1.078   .     S
C1152  C1252   1.408   .     S
C1154  C1317   1.340   .     S
C1154  O1390   1.384   .     S
C1155  C1160   1.461   .     S
C1155  O1185   1.303   .     A
C1155  O1187   1.301   .     A
C1156  O1186   1.300   .     A
C1156  C1159   1.449   .     S
C1156  O1188   1.298   .     A
C1157  C1167   1.411   .     A
C1157  C1159   1.404   .     A
C1157  C1189   1.485   .     S
C1158  C1200   1.480   .     S
C1158  C1168   1.412   .     A
C1158  C1160   1.406   .     A
C1159  C1161   1.393   .     A
C1160  C1162   1.397   .     A
C1161  H1173   1.085   .     S
C1161  C1163   1.398   .     A
C1162  H1174   1.083   .     S
C1162  C1164   1.402   .     A
C1163  C1165   1.418   .     A
C1163  C1169   1.409   .     A
C1164  C1170   1.413   .     A
C1164  C1166   1.418   .     A
C1165  C1167   1.415   .     A
C1165  C1248   1.409   .     S
C1166  C1168   1.414   .     A
C1166  C1247   1.409   1_455 S
C1169  O1211   1.397   .     S
C1169  C1233   1.405   .     S
C1170  O1216   1.398   .     S
C1170  C1234   1.408   1_455 S
Cu1171 O1188   1.957   .     S
Cu1171 O1181   1.964   .     S
Cu1171 O1185   1.974   .     S
Cu1171 Cu1172  2.708   .     S
Cu1171 N1180   2.035   .     S
Cu1171 O1184   1.956   .     S
Cu1172 O1187   1.957   .     S
Cu1172 O1186   1.974   .     S
Cu1172 O1183   1.956   .     S
Cu1172 O1182   1.964   .     S
Cu1172 N1179   2.035   .     S
H1177  N195    1.028   1_556 S
N1180  N195    1.304   1_556 S
N1180  H194    1.029   1_556 S
C1189  C1190   1.404   .     A
C1189  C1194   1.402   .     A
C1190  H1195   1.081   .     S
C1190  C1355   1.398   .     S
C1191  H1196   1.082   .     S
C1191  C1192   1.397   .     A
C1192  H1197   1.083   .     S
C1193  C1194   1.398   .     A
C1193  C1356   1.397   .     S
C1193  H214    1.082   1_556 S
C1194  H1199   1.083   .     S
C1200  C1201   1.399   .     A
C1200  C1205   1.400   .     A
C1201  C1202   1.397   .     A
C1201  H1206   1.082   .     S
C1203  C1204   1.392   .     A
C1203  H1208   1.083   .     S
C1203  C1366   1.394   .     S
C1204  H1209   1.077   .     S
C1204  C1369   1.397   .     S
C1205  H1210   1.079   .     S
H1207  C382    1.073   1_556 S
C1212  H1215   1.106   .     S
C1212  H1214   1.110   .     S
C1212  H1213   1.111   .     S
C1212  O1375   1.414   .     S
O1216  C1381   1.414   .     S
C1217  H1219   1.111   .     S
C1217  H1220   1.105   .     S
C1217  H1218   1.110   .     S
O1221  C1222   1.401   .     S
O1221  C1317   1.393   .     S
C1222  H1224   1.111   .     S
C1222  H1225   1.100   .     S
C1222  H1387   1.107   .     S
O1226  C1227   1.402   .     S
C1227  H1229   1.104   .     S
C1227  H1230   1.106   .     S
H1228  C1391   1.112   .     S
C1231  O1263   1.298   .     A
C1231  C1235   1.450   .     S
C1231  O1265   1.297   .     A
C1232  O1264   1.298   .     A
C1232  C1236   1.429   .     S
C1232  O1266   1.288   .     A
C1233  C1250   1.408   .     A
C1233  H1257   1.078   .     S
C1234  C1249   1.403   .     A
C1234  H1258   1.078   .     S
C1234  C1170   1.408   1_655 S
C1236  C1399   1.340   .     S
C1236  O1472   1.384   .     S
C1237  C1242   1.461   .     S
C1237  O1267   1.303   .     A
C1237  O1269   1.301   .     A
C1238  O1268   1.300   .     A
C1238  C1241   1.449   .     S
C1238  O1270   1.298   .     A
C1239  C1249   1.411   .     A
C1239  C1241   1.404   .     A
C1239  C1271   1.485   .     S
C1240  C1282   1.480   .     S
C1240  C1250   1.412   .     A
C1240  C1242   1.406   .     A
C1241  C1243   1.393   .     A
C1242  C1244   1.397   .     A
C1243  H1255   1.085   .     S
C1243  C1245   1.398   .     A
C1244  H1256   1.083   .     S
C1244  C1246   1.402   .     A
C1245  C1247   1.418   .     A
C1245  C1251   1.409   .     A
C1246  C1252   1.413   .     A
C1246  C1248   1.418   .     A
C1247  C1249   1.415   .     A
C1247  C1166   1.409   1_655 S
C1248  C1250   1.414   .     A
C1251  O1293   1.397   .     S
C1251  C1151   1.405   1_655 S
C1252  O1298   1.398   .     S
Cu1253 O1270   1.957   .     S
Cu1253 O1263   1.964   .     S
Cu1253 O1267   1.974   .     S
Cu1253 Cu1254  2.708   .     S
Cu1253 N1262   2.035   .     S
Cu1253 O1266   1.956   .     S
Cu1254 O1269   1.957   .     S
Cu1254 O1268   1.974   .     S
Cu1254 O1265   1.956   .     S
Cu1254 O1264   1.964   .     S
Cu1254 N1261   2.035   .     S
H1259  N277    1.028   1_556 S
N1262  N277    1.304   1_556 S
N1262  H276    1.029   1_556 S
C1271  C1272   1.404   .     A
C1271  C1276   1.402   .     A
C1272  H1277   1.081   .     S
C1272  C1437   1.398   .     S
C1273  H1278   1.082   .     S
C1273  C1274   1.397   .     A
C1274  H1279   1.083   .     S
C1275  C1276   1.398   .     A
C1275  C1438   1.397   .     S
C1275  H296    1.082   1_556 S
C1276  H1281   1.083   .     S
C1282  C1283   1.399   .     A
C1282  C1287   1.400   .     A
C1283  C1284   1.397   .     A
C1283  H1288   1.082   .     S
C1285  C1286   1.392   .     A
C1285  H1290   1.083   .     S
C1285  C1448   1.394   .     S
C1286  H1291   1.077   .     S
C1286  C1451   1.397   .     S
C1287  H1292   1.079   .     S
H1289  C464    1.073   1_556 S
C1294  H1297   1.106   .     S
C1294  H1296   1.110   .     S
C1294  H1295   1.111   .     S
C1294  O1457   1.414   .     S
O1298  C1463   1.414   .     S
C1299  H1301   1.111   .     S
C1299  H1302   1.105   .     S
C1299  H1300   1.110   .     S
O1303  C1304   1.401   .     S
O1303  C1399   1.393   .     S
C1304  H1306   1.111   .     S
C1304  H1307   1.100   .     S
C1304  H1469   1.107   .     S
O1308  C1309   1.402   .     S
C1309  H1311   1.104   .     S
C1309  H1312   1.106   .     S
H1310  C1473   1.112   .     S
C1313  O1345   1.298   .     A
C1313  C1317   1.450   .     S
C1313  O1347   1.297   .     A
C1314  O1346   1.298   .     A
C1314  C1318   1.429   .     S
C1314  O1348   1.288   .     A
C1315  C1332   1.408   .     A
C1315  H1339   1.078   .     S
C1315  C1415   1.405   1_455 S
C1316  C1331   1.403   .     A
C1316  H1340   1.078   .     S
C1316  C1416   1.408   .     S
C1318  C989    1.340   1_565 S
C1318  O1062   1.384   1_565 S
C1319  C1324   1.461   .     S
C1319  O1349   1.303   .     A
C1319  O1351   1.301   .     A
C1320  O1350   1.300   .     A
C1320  C1323   1.449   .     S
C1320  O1352   1.298   .     A
C1321  C1331   1.411   .     A
C1321  C1323   1.404   .     A
C1321  C1353   1.485   .     S
C1322  C1364   1.480   .     S
C1322  C1332   1.412   .     A
C1322  C1324   1.406   .     A
C1323  C1325   1.393   .     A
C1324  C1326   1.397   .     A
C1325  H1337   1.085   .     S
C1325  C1327   1.398   .     A
C1326  H1338   1.083   .     S
C1326  C1328   1.402   .     A
C1327  C1329   1.418   .     A
C1327  C1333   1.409   .     A
C1328  C1334   1.413   .     A
C1328  C1330   1.418   .     A
C1329  C1331   1.415   .     A
C1329  C1412   1.409   .     S
C1330  C1332   1.414   .     A
C1330  C1411   1.409   1_455 S
C1333  O1375   1.397   .     S
C1333  C1397   1.405   .     S
C1334  O1380   1.398   .     S
C1334  C1398   1.408   1_455 S
Cu1335 O1352   1.957   .     S
Cu1335 O1345   1.964   .     S
Cu1335 O1349   1.974   .     S
Cu1335 Cu1336  2.708   .     S
Cu1335 N1344   2.035   .     S
Cu1335 O1348   1.956   .     S
Cu1336 O1351   1.957   .     S
Cu1336 O1350   1.974   .     S
Cu1336 O1347   1.956   .     S
Cu1336 O1346   1.964   .     S
Cu1336 N1343   2.035   .     S
H1341  N359    1.028   1_556 S
N1344  N359    1.304   1_556 S
N1344  H358    1.029   1_556 S
C1353  C1354   1.404   .     A
C1353  C1358   1.402   .     A
C1354  H1359   1.081   .     S
C1354  C1027   1.398   1_565 S
C1355  H1360   1.082   .     S
C1355  C1356   1.397   .     A
C1356  H1361   1.083   .     S
C1357  C1358   1.398   .     A
C1357  C1028   1.397   1_565 S
C1357  H378    1.082   1_556 S
C1358  H1363   1.083   .     S
C1364  C1365   1.399   .     A
C1364  C1369   1.400   .     A
C1365  C1366   1.397   .     A
C1365  H1370   1.082   .     S
C1367  C1368   1.392   .     A
C1367  H1372   1.083   .     S
C1367  C1038   1.394   1_565 S
C1368  H1373   1.077   .     S
C1368  C1041   1.397   1_565 S
C1369  H1374   1.079   .     S
H1371  C54     1.073   1_566 S
C1376  H1379   1.106   .     S
C1376  H1378   1.110   .     S
C1376  H1377   1.111   .     S
C1376  O1047   1.414   1_565 S
O1380  C1053   1.414   1_565 S
C1381  H1383   1.111   .     S
C1381  H1384   1.105   .     S
C1381  H1382   1.110   .     S
O1385  C1386   1.401   .     S
O1385  C989    1.393   1_565 S
C1386  H1388   1.111   .     S
C1386  H1389   1.100   .     S
C1386  H1059   1.107   1_565 S
O1390  C1391   1.402   .     S
C1391  H1393   1.104   .     S
C1391  H1394   1.106   .     S
H1392  C1063   1.112   1_565 S
C1395  O1427   1.298   .     A
C1395  C1399   1.450   .     S
C1395  O1429   1.297   .     A
C1396  O1428   1.298   .     A
C1396  C1400   1.429   .     S
C1396  O1430   1.288   .     A
C1397  C1414   1.408   .     A
C1397  H1421   1.078   .     S
C1398  C1413   1.403   .     A
C1398  H1422   1.078   .     S
C1398  C1334   1.408   1_655 S
C1400  C1071   1.340   1_565 S
C1400  O1144   1.384   1_565 S
C1401  C1406   1.461   .     S
C1401  O1431   1.303   .     A
C1401  O1433   1.301   .     A
C1402  O1432   1.300   .     A
C1402  C1405   1.449   .     S
C1402  O1434   1.298   .     A
C1403  C1413   1.411   .     A
C1403  C1405   1.404   .     A
C1403  C1435   1.485   .     S
C1404  C1446   1.480   .     S
C1404  C1414   1.412   .     A
C1404  C1406   1.406   .     A
C1405  C1407   1.393   .     A
C1406  C1408   1.397   .     A
C1407  H1419   1.085   .     S
C1407  C1409   1.398   .     A
C1408  H1420   1.083   .     S
C1408  C1410   1.402   .     A
C1409  C1411   1.418   .     A
C1409  C1415   1.409   .     A
C1410  C1416   1.413   .     A
C1410  C1412   1.418   .     A
C1411  C1413   1.415   .     A
C1411  C1330   1.409   1_655 S
C1412  C1414   1.414   .     A
C1415  O1457   1.397   .     S
C1415  C1315   1.405   1_655 S
C1416  O1462   1.398   .     S
Cu1417 O1434   1.957   .     S
Cu1417 O1427   1.964   .     S
Cu1417 O1431   1.974   .     S
Cu1417 Cu1418  2.708   .     S
Cu1417 N1426   2.035   .     S
Cu1417 O1430   1.956   .     S
Cu1418 O1433   1.957   .     S
Cu1418 O1432   1.974   .     S
Cu1418 O1429   1.956   .     S
Cu1418 O1428   1.964   .     S
Cu1418 N1425   2.035   .     S
H1423  N441    1.028   1_556 S
N1426  N441    1.304   1_556 S
N1426  H440    1.029   1_556 S
C1435  C1436   1.404   .     A
C1435  C1440   1.402   .     A
C1436  H1441   1.081   .     S
C1436  C1109   1.398   1_565 S
C1437  H1442   1.082   .     S
C1437  C1438   1.397   .     A
C1438  H1443   1.083   .     S
C1439  C1440   1.398   .     A
C1439  C1110   1.397   1_565 S
C1439  H460    1.082   1_556 S
C1440  H1445   1.083   .     S
C1446  C1447   1.399   .     A
C1446  C1451   1.400   .     A
C1447  C1448   1.397   .     A
C1447  H1452   1.082   .     S
C1449  C1450   1.392   .     A
C1449  H1454   1.083   .     S
C1449  C1120   1.394   1_565 S
C1450  H1455   1.077   .     S
C1450  C1123   1.397   1_565 S
C1451  H1456   1.079   .     S
H1453  C136    1.073   1_566 S
C1458  H1461   1.106   .     S
C1458  H1460   1.110   .     S
C1458  H1459   1.111   .     S
C1458  O1129   1.414   1_565 S
O1462  C1135   1.414   1_565 S
C1463  H1465   1.111   .     S
C1463  H1466   1.105   .     S
C1463  H1464   1.110   .     S
O1467  C1468   1.401   .     S
O1467  C1071   1.393   1_565 S
C1468  H1470   1.111   .     S
C1468  H1471   1.100   .     S
C1468  H1141   1.107   1_565 S
O1472  C1473   1.402   .     S
C1473  H1475   1.104   .     S
C1473  H1476   1.106   .     S
H1474  C1145   1.112   1_565 S
