data_str_m2_o1_o17_pcu_sym.16
_audit_creation_date              2020-01-03
_audit_creation_method            'Materials Studio'
_symmetry_space_group_name_H-M    'P1'
_symmetry_Int_Tables_number       1
_symmetry_cell_setting            triclinic
loop_
_symmetry_equiv_pos_as_xyz
  x,y,z
_cell_length_a                    32.4978
_cell_length_b                    28.5031
_cell_length_c                    30.2707
_cell_angle_alpha                 90.0660
_cell_angle_beta                  90.1807
_cell_angle_gamma                 90.0055
loop_
_atom_site_label
_atom_site_type_symbol
_atom_site_fract_x
_atom_site_fract_y
_atom_site_fract_z
_atom_site_U_iso_or_equiv
_atom_site_adp_type
_atom_site_occupancy
C1     C     0.08737   0.16666   0.24997   0.00000  Uiso   1.00
C2     C     0.04278   0.16666   0.24997   0.00000  Uiso   1.00
C3     C     0.14129   0.02479   0.22226   0.00000  Uiso   1.00
C4     C     0.19204   0.30854   0.27773   0.00000  Uiso   1.00
C5     C     0.19204   0.02486   0.27773   0.00000  Uiso   1.00
C6     C     0.14129   0.30847   0.22227   0.00000  Uiso   1.00
C7     C     0.16665   0.16663   0.16425   0.00000  Uiso   1.00
C8     C     0.16669   0.16670   0.33575   0.00000  Uiso   1.00
C9     C     0.17790   0.12604   0.40742   0.00000  Uiso   1.00
C10    C     0.15544   0.20730   0.09258   0.00000  Uiso   1.00
C11    C     0.16668   0.16679   0.38420   0.00000  Uiso   1.00
C12    C     0.24597   0.16667   0.25003   0.00000  Uiso   1.00
C13    C     0.16665   0.16654   0.11580   0.00000  Uiso   1.00
C14    C     0.15545   0.20765   0.40739   0.00000  Uiso   1.00
C15    C     0.17788   0.12569   0.09261   0.00000  Uiso   1.00
C16    C     0.15555   0.20804   0.45364   0.00000  Uiso   1.00
C17    C     0.17778   0.12530   0.04636   0.00000  Uiso   1.00
C18    C     0.16665   0.16680   0.47676   0.00000  Uiso   1.00
C19    C     0.16668   0.16653   0.02324   0.00000  Uiso   1.00
C20    C     0.17773   0.12580   0.45350   0.00000  Uiso   1.00
C21    C     0.15560   0.20754   0.04650   0.00000  Uiso   1.00
C22    C     0.14472   0.24868   0.47739   0.00000  Uiso   1.00
C23    C     0.14477   0.24824   0.02332   0.00000  Uiso   1.00
C24    C     0.18861   0.08466   0.02261   0.00000  Uiso   1.00
C25    C     0.18856   0.08509   0.47668   0.00000  Uiso   1.00
C26    C     0.02136   0.12881   0.26859   0.00000  Uiso   1.00
C27    C     0.31198   0.20452   0.23141   0.00000  Uiso   1.00
C28    C     0.31209   0.12883   0.26863   0.00000  Uiso   1.00
C29    C     0.02124   0.20450   0.23137   0.00000  Uiso   1.00
C30    C     0.29056   0.16668   0.25003   0.00000  Uiso   1.00
Cu31   Cu    0.16667   0.21355   0.25000   0.00000  Uiso   1.00
Cu32   Cu    0.16667   0.11978   0.25000   0.00000  Uiso   1.00
F33    F     0.18965   0.08669   0.38531   0.00000  Uiso   1.00
F34    F     0.04132   0.24091   0.21210   0.00000  Uiso   1.00
F35    F     0.14369   0.24664   0.11469   0.00000  Uiso   1.00
F36    F     0.14372   0.24671   0.38489   0.00000  Uiso   1.00
F37    F     0.18961   0.08662   0.11511   0.00000  Uiso   1.00
F38    F     0.13415   0.28909   0.45653   0.00000  Uiso   1.00
F39    F     0.19919   0.04424   0.04347   0.00000  Uiso   1.00
F40    F     0.04155   0.09238   0.28779   0.00000  Uiso   1.00
F41    F     0.29178   0.24095   0.21221   0.00000  Uiso   1.00
F42    F     0.29202   0.09242   0.28790   0.00000  Uiso   1.00
H43    H     0.13632   0.28007   0.04067   0.00000  Uiso   1.00
H44    H     0.19702   0.05326   0.45932   0.00000  Uiso   1.00
H45    H     0.12099   0.04352   0.20007   0.00000  Uiso   1.00
H46    H     0.21235   0.28981   0.29993   0.00000  Uiso   1.00
H47    H     0.21236   0.04364   0.29992   0.00000  Uiso   1.00
H48    H     0.12097   0.28969   0.20008   0.00000  Uiso   1.00
N49    N     0.16667   0.28402   0.25000   0.00000  Uiso   1.00
N50    N     0.16667   0.04931   0.25000   0.00000  Uiso   1.00
O51    O     0.10655   0.20625   0.24999   0.00000  Uiso   1.00
O52    O     0.22679   0.12709   0.25000   0.00000  Uiso   1.00
O53    O     0.22679   0.20625   0.25000   0.00000  Uiso   1.00
O54    O     0.10655   0.12709   0.24999   0.00000  Uiso   1.00
O55    O     0.16666   0.20627   0.18513   0.00000  Uiso   1.00
O56    O     0.16668   0.12707   0.31487   0.00000  Uiso   1.00
O57    O     0.16668   0.20627   0.31487   0.00000  Uiso   1.00
O58    O     0.16666   0.12707   0.18513   0.00000  Uiso   1.00
C59    C     0.42070   0.16666   0.24997   0.00000  Uiso   1.00
C60    C     0.37611   0.16666   0.24997   0.00000  Uiso   1.00
C61    C     0.47463   0.02479   0.22226   0.00000  Uiso   1.00
C62    C     0.52537   0.30854   0.27773   0.00000  Uiso   1.00
C63    C     0.52538   0.02486   0.27773   0.00000  Uiso   1.00
C64    C     0.47462   0.30847   0.22227   0.00000  Uiso   1.00
C65    C     0.49998   0.16663   0.16425   0.00000  Uiso   1.00
C66    C     0.50002   0.16670   0.33575   0.00000  Uiso   1.00
C67    C     0.51123   0.12604   0.40742   0.00000  Uiso   1.00
C68    C     0.48877   0.20730   0.09258   0.00000  Uiso   1.00
C69    C     0.50002   0.16679   0.38420   0.00000  Uiso   1.00
C70    C     0.57930   0.16667   0.25003   0.00000  Uiso   1.00
C71    C     0.49998   0.16654   0.11580   0.00000  Uiso   1.00
C72    C     0.48879   0.20765   0.40739   0.00000  Uiso   1.00
C73    C     0.51121   0.12569   0.09261   0.00000  Uiso   1.00
C74    C     0.48889   0.20804   0.45364   0.00000  Uiso   1.00
C75    C     0.51111   0.12530   0.04636   0.00000  Uiso   1.00
C76    C     0.49998   0.16680   0.47676   0.00000  Uiso   1.00
C77    C     0.50002   0.16653   0.02324   0.00000  Uiso   1.00
C78    C     0.51106   0.12580   0.45350   0.00000  Uiso   1.00
C79    C     0.48894   0.20754   0.04650   0.00000  Uiso   1.00
C80    C     0.47805   0.24868   0.47739   0.00000  Uiso   1.00
C81    C     0.47810   0.24824   0.02332   0.00000  Uiso   1.00
C82    C     0.52195   0.08466   0.02261   0.00000  Uiso   1.00
C83    C     0.52190   0.08509   0.47668   0.00000  Uiso   1.00
C84    C     0.35469   0.12881   0.26859   0.00000  Uiso   1.00
C85    C     0.64531   0.20452   0.23141   0.00000  Uiso   1.00
C86    C     0.64542   0.12883   0.26863   0.00000  Uiso   1.00
C87    C     0.35458   0.20450   0.23137   0.00000  Uiso   1.00
C88    C     0.62389   0.16668   0.25003   0.00000  Uiso   1.00
Cu89   Cu    0.50000   0.21355   0.25000   0.00000  Uiso   1.00
Cu90   Cu    0.50000   0.11978   0.25000   0.00000  Uiso   1.00
F91    F     0.52298   0.08669   0.38531   0.00000  Uiso   1.00
F92    F     0.37465   0.24091   0.21210   0.00000  Uiso   1.00
F93    F     0.47702   0.24664   0.11469   0.00000  Uiso   1.00
F94    F     0.47705   0.24671   0.38489   0.00000  Uiso   1.00
F95    F     0.52295   0.08662   0.11511   0.00000  Uiso   1.00
F96    F     0.46748   0.28909   0.45653   0.00000  Uiso   1.00
F97    F     0.53252   0.04424   0.04347   0.00000  Uiso   1.00
F98    F     0.37489   0.09238   0.28779   0.00000  Uiso   1.00
F99    F     0.62511   0.24095   0.21221   0.00000  Uiso   1.00
F100   F     0.62535   0.09242   0.28790   0.00000  Uiso   1.00
H101   H     0.46965   0.28007   0.04067   0.00000  Uiso   1.00
H102   H     0.53035   0.05326   0.45932   0.00000  Uiso   1.00
H103   H     0.45432   0.04352   0.20007   0.00000  Uiso   1.00
H104   H     0.54568   0.28981   0.29993   0.00000  Uiso   1.00
H105   H     0.54569   0.04364   0.29992   0.00000  Uiso   1.00
H106   H     0.45431   0.28969   0.20008   0.00000  Uiso   1.00
N107   N     0.50000   0.28402   0.25000   0.00000  Uiso   1.00
N108   N     0.50000   0.04931   0.25000   0.00000  Uiso   1.00
O109   O     0.43988   0.20625   0.24999   0.00000  Uiso   1.00
O110   O     0.56012   0.12709   0.25000   0.00000  Uiso   1.00
O111   O     0.56012   0.20625   0.25000   0.00000  Uiso   1.00
O112   O     0.43988   0.12709   0.24999   0.00000  Uiso   1.00
O113   O     0.49999   0.20627   0.18513   0.00000  Uiso   1.00
O114   O     0.50001   0.12707   0.31487   0.00000  Uiso   1.00
O115   O     0.50001   0.20627   0.31487   0.00000  Uiso   1.00
O116   O     0.49999   0.12707   0.18513   0.00000  Uiso   1.00
C117   C     0.75403   0.16666   0.24997   0.00000  Uiso   1.00
C118   C     0.70944   0.16666   0.24997   0.00000  Uiso   1.00
C119   C     0.80796   0.02479   0.22226   0.00000  Uiso   1.00
C120   C     0.85871   0.30854   0.27773   0.00000  Uiso   1.00
C121   C     0.85871   0.02486   0.27773   0.00000  Uiso   1.00
C122   C     0.80796   0.30847   0.22227   0.00000  Uiso   1.00
C123   C     0.83331   0.16663   0.16425   0.00000  Uiso   1.00
C124   C     0.83335   0.16670   0.33575   0.00000  Uiso   1.00
C125   C     0.84456   0.12604   0.40742   0.00000  Uiso   1.00
C126   C     0.82210   0.20730   0.09258   0.00000  Uiso   1.00
C127   C     0.83335   0.16679   0.38420   0.00000  Uiso   1.00
C128   C     0.91263   0.16667   0.25003   0.00000  Uiso   1.00
C129   C     0.83332   0.16654   0.11580   0.00000  Uiso   1.00
C130   C     0.82212   0.20765   0.40739   0.00000  Uiso   1.00
C131   C     0.84455   0.12569   0.09261   0.00000  Uiso   1.00
C132   C     0.82222   0.20804   0.45364   0.00000  Uiso   1.00
C133   C     0.84445   0.12530   0.04636   0.00000  Uiso   1.00
C134   C     0.83332   0.16680   0.47676   0.00000  Uiso   1.00
C135   C     0.83335   0.16653   0.02324   0.00000  Uiso   1.00
C136   C     0.84440   0.12580   0.45350   0.00000  Uiso   1.00
C137   C     0.82227   0.20754   0.04650   0.00000  Uiso   1.00
C138   C     0.81139   0.24868   0.47739   0.00000  Uiso   1.00
C139   C     0.81144   0.24824   0.02332   0.00000  Uiso   1.00
C140   C     0.85528   0.08466   0.02261   0.00000  Uiso   1.00
C141   C     0.85523   0.08509   0.47668   0.00000  Uiso   1.00
C142   C     0.68802   0.12881   0.26859   0.00000  Uiso   1.00
C143   C     0.97864   0.20452   0.23141   0.00000  Uiso   1.00
C144   C     0.97876   0.12883   0.26863   0.00000  Uiso   1.00
C145   C     0.68791   0.20450   0.23137   0.00000  Uiso   1.00
C146   C     0.95722   0.16668   0.25003   0.00000  Uiso   1.00
Cu147  Cu    0.83333   0.21355   0.25000   0.00000  Uiso   1.00
Cu148  Cu    0.83333   0.11978   0.25000   0.00000  Uiso   1.00
F149   F     0.85631   0.08669   0.38531   0.00000  Uiso   1.00
F150   F     0.70798   0.24091   0.21210   0.00000  Uiso   1.00
F151   F     0.81035   0.24664   0.11469   0.00000  Uiso   1.00
F152   F     0.81038   0.24671   0.38489   0.00000  Uiso   1.00
F153   F     0.85628   0.08662   0.11511   0.00000  Uiso   1.00
F154   F     0.80081   0.28909   0.45653   0.00000  Uiso   1.00
F155   F     0.86585   0.04424   0.04347   0.00000  Uiso   1.00
F156   F     0.70822   0.09238   0.28779   0.00000  Uiso   1.00
F157   F     0.95845   0.24095   0.21221   0.00000  Uiso   1.00
F158   F     0.95868   0.09242   0.28790   0.00000  Uiso   1.00
H159   H     0.80298   0.28007   0.04067   0.00000  Uiso   1.00
H160   H     0.86368   0.05326   0.45932   0.00000  Uiso   1.00
H161   H     0.78765   0.04352   0.20007   0.00000  Uiso   1.00
H162   H     0.87901   0.28981   0.29993   0.00000  Uiso   1.00
H163   H     0.87902   0.04364   0.29992   0.00000  Uiso   1.00
H164   H     0.78764   0.28969   0.20008   0.00000  Uiso   1.00
N165   N     0.83333   0.28402   0.25000   0.00000  Uiso   1.00
N166   N     0.83333   0.04931   0.25000   0.00000  Uiso   1.00
O167   O     0.77321   0.20625   0.24999   0.00000  Uiso   1.00
O168   O     0.89345   0.12709   0.25000   0.00000  Uiso   1.00
O169   O     0.89345   0.20625   0.25000   0.00000  Uiso   1.00
O170   O     0.77321   0.12709   0.24999   0.00000  Uiso   1.00
O171   O     0.83332   0.20627   0.18513   0.00000  Uiso   1.00
O172   O     0.83334   0.12707   0.31487   0.00000  Uiso   1.00
O173   O     0.83334   0.20627   0.31487   0.00000  Uiso   1.00
O174   O     0.83332   0.12707   0.18513   0.00000  Uiso   1.00
C175   C     0.08737   0.50000   0.24997   0.00000  Uiso   1.00
C176   C     0.04278   0.49999   0.24997   0.00000  Uiso   1.00
C177   C     0.14129   0.35812   0.22226   0.00000  Uiso   1.00
C178   C     0.19204   0.64188   0.27773   0.00000  Uiso   1.00
C179   C     0.19204   0.35819   0.27773   0.00000  Uiso   1.00
C180   C     0.14129   0.64181   0.22227   0.00000  Uiso   1.00
C181   C     0.16665   0.49997   0.16425   0.00000  Uiso   1.00
C182   C     0.16669   0.50003   0.33575   0.00000  Uiso   1.00
C183   C     0.17790   0.45937   0.40742   0.00000  Uiso   1.00
C184   C     0.15544   0.54063   0.09258   0.00000  Uiso   1.00
C185   C     0.16668   0.50013   0.38420   0.00000  Uiso   1.00
C186   C     0.24597   0.50000   0.25003   0.00000  Uiso   1.00
C187   C     0.16665   0.49987   0.11580   0.00000  Uiso   1.00
C188   C     0.15545   0.54098   0.40739   0.00000  Uiso   1.00
C189   C     0.17788   0.45902   0.09261   0.00000  Uiso   1.00
C190   C     0.15555   0.54137   0.45364   0.00000  Uiso   1.00
C191   C     0.17778   0.45863   0.04636   0.00000  Uiso   1.00
C192   C     0.16665   0.50014   0.47676   0.00000  Uiso   1.00
C193   C     0.16668   0.49986   0.02324   0.00000  Uiso   1.00
C194   C     0.17773   0.45913   0.45350   0.00000  Uiso   1.00
C195   C     0.15560   0.54087   0.04650   0.00000  Uiso   1.00
C196   C     0.14472   0.58201   0.47739   0.00000  Uiso   1.00
C197   C     0.14477   0.58158   0.02332   0.00000  Uiso   1.00
C198   C     0.18861   0.41799   0.02261   0.00000  Uiso   1.00
C199   C     0.18856   0.41842   0.47668   0.00000  Uiso   1.00
C200   C     0.02136   0.46215   0.26859   0.00000  Uiso   1.00
C201   C     0.31198   0.53785   0.23141   0.00000  Uiso   1.00
C202   C     0.31209   0.46216   0.26863   0.00000  Uiso   1.00
C203   C     0.02124   0.53784   0.23137   0.00000  Uiso   1.00
C204   C     0.29056   0.50001   0.25003   0.00000  Uiso   1.00
Cu205  Cu    0.16667   0.54689   0.25000   0.00000  Uiso   1.00
Cu206  Cu    0.16667   0.45311   0.25000   0.00000  Uiso   1.00
F207   F     0.18965   0.42002   0.38531   0.00000  Uiso   1.00
F208   F     0.04132   0.57424   0.21210   0.00000  Uiso   1.00
F209   F     0.14369   0.57998   0.11469   0.00000  Uiso   1.00
F210   F     0.14372   0.58005   0.38489   0.00000  Uiso   1.00
F211   F     0.18961   0.41995   0.11511   0.00000  Uiso   1.00
F212   F     0.13415   0.62243   0.45653   0.00000  Uiso   1.00
F213   F     0.19919   0.37757   0.04347   0.00000  Uiso   1.00
F214   F     0.04155   0.42572   0.28779   0.00000  Uiso   1.00
F215   F     0.29178   0.57428   0.21221   0.00000  Uiso   1.00
F216   F     0.29202   0.42576   0.28790   0.00000  Uiso   1.00
H217   H     0.13632   0.61340   0.04067   0.00000  Uiso   1.00
H218   H     0.19702   0.38660   0.45932   0.00000  Uiso   1.00
H219   H     0.12099   0.37685   0.20007   0.00000  Uiso   1.00
H220   H     0.21235   0.62315   0.29993   0.00000  Uiso   1.00
H221   H     0.21236   0.37697   0.29992   0.00000  Uiso   1.00
H222   H     0.12097   0.62303   0.20008   0.00000  Uiso   1.00
N223   N     0.16667   0.61736   0.25000   0.00000  Uiso   1.00
N224   N     0.16667   0.38264   0.25000   0.00000  Uiso   1.00
O225   O     0.10655   0.53958   0.24999   0.00000  Uiso   1.00
O226   O     0.22679   0.46042   0.25000   0.00000  Uiso   1.00
O227   O     0.22679   0.53958   0.25000   0.00000  Uiso   1.00
O228   O     0.10655   0.46042   0.24999   0.00000  Uiso   1.00
O229   O     0.16666   0.53960   0.18513   0.00000  Uiso   1.00
O230   O     0.16668   0.46040   0.31487   0.00000  Uiso   1.00
O231   O     0.16668   0.53960   0.31487   0.00000  Uiso   1.00
O232   O     0.16666   0.46040   0.18513   0.00000  Uiso   1.00
C233   C     0.42070   0.50000   0.24997   0.00000  Uiso   1.00
C234   C     0.37611   0.49999   0.24997   0.00000  Uiso   1.00
C235   C     0.47463   0.35812   0.22226   0.00000  Uiso   1.00
C236   C     0.52537   0.64188   0.27773   0.00000  Uiso   1.00
C237   C     0.52538   0.35819   0.27773   0.00000  Uiso   1.00
C238   C     0.47462   0.64181   0.22227   0.00000  Uiso   1.00
C239   C     0.49998   0.49997   0.16425   0.00000  Uiso   1.00
C240   C     0.50002   0.50003   0.33575   0.00000  Uiso   1.00
C241   C     0.51123   0.45937   0.40742   0.00000  Uiso   1.00
C242   C     0.48877   0.54063   0.09258   0.00000  Uiso   1.00
C243   C     0.50002   0.50013   0.38420   0.00000  Uiso   1.00
C244   C     0.57930   0.50000   0.25003   0.00000  Uiso   1.00
C245   C     0.49998   0.49987   0.11580   0.00000  Uiso   1.00
C246   C     0.48879   0.54098   0.40739   0.00000  Uiso   1.00
C247   C     0.51121   0.45902   0.09261   0.00000  Uiso   1.00
C248   C     0.48889   0.54137   0.45364   0.00000  Uiso   1.00
C249   C     0.51111   0.45863   0.04636   0.00000  Uiso   1.00
C250   C     0.49998   0.50014   0.47676   0.00000  Uiso   1.00
C251   C     0.50002   0.49986   0.02324   0.00000  Uiso   1.00
C252   C     0.51106   0.45913   0.45350   0.00000  Uiso   1.00
C253   C     0.48894   0.54087   0.04650   0.00000  Uiso   1.00
C254   C     0.47805   0.58201   0.47739   0.00000  Uiso   1.00
C255   C     0.47810   0.58158   0.02332   0.00000  Uiso   1.00
C256   C     0.52195   0.41799   0.02261   0.00000  Uiso   1.00
C257   C     0.52190   0.41842   0.47668   0.00000  Uiso   1.00
C258   C     0.35469   0.46215   0.26859   0.00000  Uiso   1.00
C259   C     0.64531   0.53785   0.23141   0.00000  Uiso   1.00
C260   C     0.64542   0.46216   0.26863   0.00000  Uiso   1.00
C261   C     0.35458   0.53784   0.23137   0.00000  Uiso   1.00
C262   C     0.62389   0.50001   0.25003   0.00000  Uiso   1.00
Cu263  Cu    0.50000   0.54689   0.25000   0.00000  Uiso   1.00
Cu264  Cu    0.50000   0.45311   0.25000   0.00000  Uiso   1.00
F265   F     0.52298   0.42002   0.38531   0.00000  Uiso   1.00
F266   F     0.37465   0.57424   0.21210   0.00000  Uiso   1.00
F267   F     0.47702   0.57998   0.11469   0.00000  Uiso   1.00
F268   F     0.47705   0.58005   0.38489   0.00000  Uiso   1.00
F269   F     0.52295   0.41995   0.11511   0.00000  Uiso   1.00
F270   F     0.46748   0.62243   0.45653   0.00000  Uiso   1.00
F271   F     0.53252   0.37757   0.04347   0.00000  Uiso   1.00
F272   F     0.37489   0.42572   0.28779   0.00000  Uiso   1.00
F273   F     0.62511   0.57428   0.21221   0.00000  Uiso   1.00
F274   F     0.62535   0.42576   0.28790   0.00000  Uiso   1.00
H275   H     0.46965   0.61340   0.04067   0.00000  Uiso   1.00
H276   H     0.53035   0.38660   0.45932   0.00000  Uiso   1.00
H277   H     0.45432   0.37685   0.20007   0.00000  Uiso   1.00
H278   H     0.54568   0.62315   0.29993   0.00000  Uiso   1.00
H279   H     0.54569   0.37697   0.29992   0.00000  Uiso   1.00
H280   H     0.45431   0.62303   0.20008   0.00000  Uiso   1.00
N281   N     0.50000   0.61736   0.25000   0.00000  Uiso   1.00
N282   N     0.50000   0.38264   0.25000   0.00000  Uiso   1.00
O283   O     0.43988   0.53958   0.24999   0.00000  Uiso   1.00
O284   O     0.56012   0.46042   0.25000   0.00000  Uiso   1.00
O285   O     0.56012   0.53958   0.25000   0.00000  Uiso   1.00
O286   O     0.43988   0.46042   0.24999   0.00000  Uiso   1.00
O287   O     0.49999   0.53960   0.18513   0.00000  Uiso   1.00
O288   O     0.50001   0.46040   0.31487   0.00000  Uiso   1.00
O289   O     0.50001   0.53960   0.31487   0.00000  Uiso   1.00
O290   O     0.49999   0.46040   0.18513   0.00000  Uiso   1.00
C291   C     0.75403   0.50000   0.24997   0.00000  Uiso   1.00
C292   C     0.70944   0.49999   0.24997   0.00000  Uiso   1.00
C293   C     0.80796   0.35812   0.22226   0.00000  Uiso   1.00
C294   C     0.85871   0.64188   0.27773   0.00000  Uiso   1.00
C295   C     0.85871   0.35819   0.27773   0.00000  Uiso   1.00
C296   C     0.80796   0.64181   0.22227   0.00000  Uiso   1.00
C297   C     0.83331   0.49997   0.16425   0.00000  Uiso   1.00
C298   C     0.83335   0.50003   0.33575   0.00000  Uiso   1.00
C299   C     0.84456   0.45937   0.40742   0.00000  Uiso   1.00
C300   C     0.82210   0.54063   0.09258   0.00000  Uiso   1.00
C301   C     0.83335   0.50013   0.38420   0.00000  Uiso   1.00
C302   C     0.91263   0.50000   0.25003   0.00000  Uiso   1.00
C303   C     0.83332   0.49987   0.11580   0.00000  Uiso   1.00
C304   C     0.82212   0.54098   0.40739   0.00000  Uiso   1.00
C305   C     0.84455   0.45902   0.09261   0.00000  Uiso   1.00
C306   C     0.82222   0.54137   0.45364   0.00000  Uiso   1.00
C307   C     0.84445   0.45863   0.04636   0.00000  Uiso   1.00
C308   C     0.83332   0.50014   0.47676   0.00000  Uiso   1.00
C309   C     0.83335   0.49986   0.02324   0.00000  Uiso   1.00
C310   C     0.84440   0.45913   0.45350   0.00000  Uiso   1.00
C311   C     0.82227   0.54087   0.04650   0.00000  Uiso   1.00
C312   C     0.81139   0.58201   0.47739   0.00000  Uiso   1.00
C313   C     0.81144   0.58158   0.02332   0.00000  Uiso   1.00
C314   C     0.85528   0.41799   0.02261   0.00000  Uiso   1.00
C315   C     0.85523   0.41842   0.47668   0.00000  Uiso   1.00
C316   C     0.68802   0.46215   0.26859   0.00000  Uiso   1.00
C317   C     0.97864   0.53785   0.23141   0.00000  Uiso   1.00
C318   C     0.97876   0.46216   0.26863   0.00000  Uiso   1.00
C319   C     0.68791   0.53784   0.23137   0.00000  Uiso   1.00
C320   C     0.95722   0.50001   0.25003   0.00000  Uiso   1.00
Cu321  Cu    0.83333   0.54689   0.25000   0.00000  Uiso   1.00
Cu322  Cu    0.83333   0.45311   0.25000   0.00000  Uiso   1.00
F323   F     0.85631   0.42002   0.38531   0.00000  Uiso   1.00
F324   F     0.70798   0.57424   0.21210   0.00000  Uiso   1.00
F325   F     0.81035   0.57998   0.11469   0.00000  Uiso   1.00
F326   F     0.81038   0.58005   0.38489   0.00000  Uiso   1.00
F327   F     0.85628   0.41995   0.11511   0.00000  Uiso   1.00
F328   F     0.80081   0.62243   0.45653   0.00000  Uiso   1.00
F329   F     0.86585   0.37757   0.04347   0.00000  Uiso   1.00
F330   F     0.70822   0.42572   0.28779   0.00000  Uiso   1.00
F331   F     0.95845   0.57428   0.21221   0.00000  Uiso   1.00
F332   F     0.95868   0.42576   0.28790   0.00000  Uiso   1.00
H333   H     0.80298   0.61340   0.04067   0.00000  Uiso   1.00
H334   H     0.86368   0.38660   0.45932   0.00000  Uiso   1.00
H335   H     0.78765   0.37685   0.20007   0.00000  Uiso   1.00
H336   H     0.87901   0.62315   0.29993   0.00000  Uiso   1.00
H337   H     0.87902   0.37697   0.29992   0.00000  Uiso   1.00
H338   H     0.78764   0.62303   0.20008   0.00000  Uiso   1.00
N339   N     0.83333   0.61736   0.25000   0.00000  Uiso   1.00
N340   N     0.83333   0.38264   0.25000   0.00000  Uiso   1.00
O341   O     0.77321   0.53958   0.24999   0.00000  Uiso   1.00
O342   O     0.89345   0.46042   0.25000   0.00000  Uiso   1.00
O343   O     0.89345   0.53958   0.25000   0.00000  Uiso   1.00
O344   O     0.77321   0.46042   0.24999   0.00000  Uiso   1.00
O345   O     0.83332   0.53960   0.18513   0.00000  Uiso   1.00
O346   O     0.83334   0.46040   0.31487   0.00000  Uiso   1.00
O347   O     0.83334   0.53960   0.31487   0.00000  Uiso   1.00
O348   O     0.83332   0.46040   0.18513   0.00000  Uiso   1.00
C349   C     0.08737   0.83333   0.24997   0.00000  Uiso   1.00
C350   C     0.04278   0.83332   0.24997   0.00000  Uiso   1.00
C351   C     0.14129   0.69146   0.22226   0.00000  Uiso   1.00
C352   C     0.19204   0.97521   0.27773   0.00000  Uiso   1.00
C353   C     0.19204   0.69153   0.27773   0.00000  Uiso   1.00
C354   C     0.14129   0.97514   0.22227   0.00000  Uiso   1.00
C355   C     0.16665   0.83330   0.16425   0.00000  Uiso   1.00
C356   C     0.16669   0.83337   0.33575   0.00000  Uiso   1.00
C357   C     0.17790   0.79270   0.40742   0.00000  Uiso   1.00
C358   C     0.15544   0.87396   0.09258   0.00000  Uiso   1.00
C359   C     0.16668   0.83346   0.38420   0.00000  Uiso   1.00
C360   C     0.24597   0.83334   0.25003   0.00000  Uiso   1.00
C361   C     0.16665   0.83320   0.11580   0.00000  Uiso   1.00
C362   C     0.15545   0.87431   0.40739   0.00000  Uiso   1.00
C363   C     0.17788   0.79235   0.09261   0.00000  Uiso   1.00
C364   C     0.15555   0.87470   0.45364   0.00000  Uiso   1.00
C365   C     0.17778   0.79196   0.04636   0.00000  Uiso   1.00
C366   C     0.16665   0.83347   0.47676   0.00000  Uiso   1.00
C367   C     0.16668   0.83320   0.02324   0.00000  Uiso   1.00
C368   C     0.17773   0.79246   0.45350   0.00000  Uiso   1.00
C369   C     0.15560   0.87420   0.04650   0.00000  Uiso   1.00
C370   C     0.14472   0.91534   0.47739   0.00000  Uiso   1.00
C371   C     0.14477   0.91491   0.02332   0.00000  Uiso   1.00
C372   C     0.18861   0.75132   0.02261   0.00000  Uiso   1.00
C373   C     0.18856   0.75176   0.47668   0.00000  Uiso   1.00
C374   C     0.02136   0.79548   0.26859   0.00000  Uiso   1.00
C375   C     0.31198   0.87119   0.23141   0.00000  Uiso   1.00
C376   C     0.31209   0.79550   0.26863   0.00000  Uiso   1.00
C377   C     0.02124   0.87117   0.23137   0.00000  Uiso   1.00
C378   C     0.29056   0.83334   0.25003   0.00000  Uiso   1.00
Cu379  Cu    0.16667   0.88022   0.25000   0.00000  Uiso   1.00
Cu380  Cu    0.16667   0.78645   0.25000   0.00000  Uiso   1.00
F381   F     0.18965   0.75336   0.38531   0.00000  Uiso   1.00
F382   F     0.04132   0.90758   0.21210   0.00000  Uiso   1.00
F383   F     0.14369   0.91331   0.11469   0.00000  Uiso   1.00
F384   F     0.14372   0.91338   0.38489   0.00000  Uiso   1.00
F385   F     0.18961   0.75329   0.11511   0.00000  Uiso   1.00
F386   F     0.13415   0.95576   0.45653   0.00000  Uiso   1.00
F387   F     0.19919   0.71090   0.04347   0.00000  Uiso   1.00
F388   F     0.04155   0.75905   0.28779   0.00000  Uiso   1.00
F389   F     0.29178   0.90762   0.21221   0.00000  Uiso   1.00
F390   F     0.29202   0.75909   0.28790   0.00000  Uiso   1.00
H391   H     0.13632   0.94674   0.04067   0.00000  Uiso   1.00
H392   H     0.19702   0.71993   0.45932   0.00000  Uiso   1.00
H393   H     0.12099   0.71019   0.20007   0.00000  Uiso   1.00
H394   H     0.21235   0.95648   0.29993   0.00000  Uiso   1.00
H395   H     0.21236   0.71031   0.29992   0.00000  Uiso   1.00
H396   H     0.12097   0.95636   0.20008   0.00000  Uiso   1.00
N397   N     0.16667   0.95069   0.25000   0.00000  Uiso   1.00
N398   N     0.16667   0.71598   0.25000   0.00000  Uiso   1.00
O399   O     0.10655   0.87291   0.24999   0.00000  Uiso   1.00
O400   O     0.22679   0.79375   0.25000   0.00000  Uiso   1.00
O401   O     0.22679   0.87291   0.25000   0.00000  Uiso   1.00
O402   O     0.10655   0.79375   0.24999   0.00000  Uiso   1.00
O403   O     0.16666   0.87293   0.18513   0.00000  Uiso   1.00
O404   O     0.16668   0.79373   0.31487   0.00000  Uiso   1.00
O405   O     0.16668   0.87293   0.31487   0.00000  Uiso   1.00
O406   O     0.16666   0.79373   0.18513   0.00000  Uiso   1.00
C407   C     0.42070   0.83333   0.24997   0.00000  Uiso   1.00
C408   C     0.37611   0.83332   0.24997   0.00000  Uiso   1.00
C409   C     0.47463   0.69146   0.22226   0.00000  Uiso   1.00
C410   C     0.52537   0.97521   0.27773   0.00000  Uiso   1.00
C411   C     0.52538   0.69153   0.27773   0.00000  Uiso   1.00
C412   C     0.47462   0.97514   0.22227   0.00000  Uiso   1.00
C413   C     0.49998   0.83330   0.16425   0.00000  Uiso   1.00
C414   C     0.50002   0.83337   0.33575   0.00000  Uiso   1.00
C415   C     0.51123   0.79270   0.40742   0.00000  Uiso   1.00
C416   C     0.48877   0.87396   0.09258   0.00000  Uiso   1.00
C417   C     0.50002   0.83346   0.38420   0.00000  Uiso   1.00
C418   C     0.57930   0.83334   0.25003   0.00000  Uiso   1.00
C419   C     0.49998   0.83320   0.11580   0.00000  Uiso   1.00
C420   C     0.48879   0.87431   0.40739   0.00000  Uiso   1.00
C421   C     0.51121   0.79235   0.09261   0.00000  Uiso   1.00
C422   C     0.48889   0.87470   0.45364   0.00000  Uiso   1.00
C423   C     0.51111   0.79196   0.04636   0.00000  Uiso   1.00
C424   C     0.49998   0.83347   0.47676   0.00000  Uiso   1.00
C425   C     0.50002   0.83320   0.02324   0.00000  Uiso   1.00
C426   C     0.51106   0.79246   0.45350   0.00000  Uiso   1.00
C427   C     0.48894   0.87420   0.04650   0.00000  Uiso   1.00
C428   C     0.47805   0.91534   0.47739   0.00000  Uiso   1.00
C429   C     0.47810   0.91491   0.02332   0.00000  Uiso   1.00
C430   C     0.52195   0.75132   0.02261   0.00000  Uiso   1.00
C431   C     0.52190   0.75176   0.47668   0.00000  Uiso   1.00
C432   C     0.35469   0.79548   0.26859   0.00000  Uiso   1.00
C433   C     0.64531   0.87119   0.23141   0.00000  Uiso   1.00
C434   C     0.64542   0.79550   0.26863   0.00000  Uiso   1.00
C435   C     0.35458   0.87117   0.23137   0.00000  Uiso   1.00
C436   C     0.62389   0.83334   0.25003   0.00000  Uiso   1.00
Cu437  Cu    0.50000   0.88022   0.25000   0.00000  Uiso   1.00
Cu438  Cu    0.50000   0.78645   0.25000   0.00000  Uiso   1.00
F439   F     0.52298   0.75336   0.38531   0.00000  Uiso   1.00
F440   F     0.37465   0.90758   0.21210   0.00000  Uiso   1.00
F441   F     0.47702   0.91331   0.11469   0.00000  Uiso   1.00
F442   F     0.47705   0.91338   0.38489   0.00000  Uiso   1.00
F443   F     0.52295   0.75329   0.11511   0.00000  Uiso   1.00
F444   F     0.46748   0.95576   0.45653   0.00000  Uiso   1.00
F445   F     0.53252   0.71090   0.04347   0.00000  Uiso   1.00
F446   F     0.37489   0.75905   0.28779   0.00000  Uiso   1.00
F447   F     0.62511   0.90762   0.21221   0.00000  Uiso   1.00
F448   F     0.62535   0.75909   0.28790   0.00000  Uiso   1.00
H449   H     0.46965   0.94674   0.04067   0.00000  Uiso   1.00
H450   H     0.53035   0.71993   0.45932   0.00000  Uiso   1.00
H451   H     0.45432   0.71019   0.20007   0.00000  Uiso   1.00
H452   H     0.54568   0.95648   0.29993   0.00000  Uiso   1.00
H453   H     0.54569   0.71031   0.29992   0.00000  Uiso   1.00
H454   H     0.45431   0.95636   0.20008   0.00000  Uiso   1.00
N455   N     0.50000   0.95069   0.25000   0.00000  Uiso   1.00
N456   N     0.50000   0.71598   0.25000   0.00000  Uiso   1.00
O457   O     0.43988   0.87291   0.24999   0.00000  Uiso   1.00
O458   O     0.56012   0.79375   0.25000   0.00000  Uiso   1.00
O459   O     0.56012   0.87291   0.25000   0.00000  Uiso   1.00
O460   O     0.43988   0.79375   0.24999   0.00000  Uiso   1.00
O461   O     0.49999   0.87293   0.18513   0.00000  Uiso   1.00
O462   O     0.50001   0.79373   0.31487   0.00000  Uiso   1.00
O463   O     0.50001   0.87293   0.31487   0.00000  Uiso   1.00
O464   O     0.49999   0.79373   0.18513   0.00000  Uiso   1.00
C465   C     0.75403   0.83333   0.24997   0.00000  Uiso   1.00
C466   C     0.70944   0.83332   0.24997   0.00000  Uiso   1.00
C467   C     0.80796   0.69146   0.22226   0.00000  Uiso   1.00
C468   C     0.85871   0.97521   0.27773   0.00000  Uiso   1.00
C469   C     0.85871   0.69153   0.27773   0.00000  Uiso   1.00
C470   C     0.80796   0.97514   0.22227   0.00000  Uiso   1.00
C471   C     0.83331   0.83330   0.16425   0.00000  Uiso   1.00
C472   C     0.83335   0.83337   0.33575   0.00000  Uiso   1.00
C473   C     0.84456   0.79270   0.40742   0.00000  Uiso   1.00
C474   C     0.82210   0.87396   0.09258   0.00000  Uiso   1.00
C475   C     0.83335   0.83346   0.38420   0.00000  Uiso   1.00
C476   C     0.91263   0.83334   0.25003   0.00000  Uiso   1.00
C477   C     0.83332   0.83320   0.11580   0.00000  Uiso   1.00
C478   C     0.82212   0.87431   0.40739   0.00000  Uiso   1.00
C479   C     0.84455   0.79235   0.09261   0.00000  Uiso   1.00
C480   C     0.82222   0.87470   0.45364   0.00000  Uiso   1.00
C481   C     0.84445   0.79196   0.04636   0.00000  Uiso   1.00
C482   C     0.83332   0.83347   0.47676   0.00000  Uiso   1.00
C483   C     0.83335   0.83320   0.02324   0.00000  Uiso   1.00
C484   C     0.84440   0.79246   0.45350   0.00000  Uiso   1.00
C485   C     0.82227   0.87420   0.04650   0.00000  Uiso   1.00
C486   C     0.81139   0.91534   0.47739   0.00000  Uiso   1.00
C487   C     0.81144   0.91491   0.02332   0.00000  Uiso   1.00
C488   C     0.85528   0.75132   0.02261   0.00000  Uiso   1.00
C489   C     0.85523   0.75176   0.47668   0.00000  Uiso   1.00
C490   C     0.68802   0.79548   0.26859   0.00000  Uiso   1.00
C491   C     0.97864   0.87119   0.23141   0.00000  Uiso   1.00
C492   C     0.97876   0.79550   0.26863   0.00000  Uiso   1.00
C493   C     0.68791   0.87117   0.23137   0.00000  Uiso   1.00
C494   C     0.95722   0.83334   0.25003   0.00000  Uiso   1.00
Cu495  Cu    0.83333   0.88022   0.25000   0.00000  Uiso   1.00
Cu496  Cu    0.83333   0.78645   0.25000   0.00000  Uiso   1.00
F497   F     0.85631   0.75336   0.38531   0.00000  Uiso   1.00
F498   F     0.70798   0.90758   0.21210   0.00000  Uiso   1.00
F499   F     0.81035   0.91331   0.11469   0.00000  Uiso   1.00
F500   F     0.81038   0.91338   0.38489   0.00000  Uiso   1.00
F501   F     0.85628   0.75329   0.11511   0.00000  Uiso   1.00
F502   F     0.80081   0.95576   0.45653   0.00000  Uiso   1.00
F503   F     0.86585   0.71090   0.04347   0.00000  Uiso   1.00
F504   F     0.70822   0.75905   0.28779   0.00000  Uiso   1.00
F505   F     0.95845   0.90762   0.21221   0.00000  Uiso   1.00
F506   F     0.95868   0.75909   0.28790   0.00000  Uiso   1.00
H507   H     0.80298   0.94674   0.04067   0.00000  Uiso   1.00
H508   H     0.86368   0.71993   0.45932   0.00000  Uiso   1.00
H509   H     0.78765   0.71019   0.20007   0.00000  Uiso   1.00
H510   H     0.87901   0.95648   0.29993   0.00000  Uiso   1.00
H511   H     0.87902   0.71031   0.29992   0.00000  Uiso   1.00
H512   H     0.78764   0.95636   0.20008   0.00000  Uiso   1.00
N513   N     0.83333   0.95069   0.25000   0.00000  Uiso   1.00
N514   N     0.83333   0.71598   0.25000   0.00000  Uiso   1.00
O515   O     0.77321   0.87291   0.24999   0.00000  Uiso   1.00
O516   O     0.89345   0.79375   0.25000   0.00000  Uiso   1.00
O517   O     0.89345   0.87291   0.25000   0.00000  Uiso   1.00
O518   O     0.77321   0.79375   0.24999   0.00000  Uiso   1.00
O519   O     0.83332   0.87293   0.18513   0.00000  Uiso   1.00
O520   O     0.83334   0.79373   0.31487   0.00000  Uiso   1.00
O521   O     0.83334   0.87293   0.31487   0.00000  Uiso   1.00
O522   O     0.83332   0.79373   0.18513   0.00000  Uiso   1.00
C523   C     0.08737   0.16666   0.74997   0.00000  Uiso   1.00
C524   C     0.04278   0.16666   0.74997   0.00000  Uiso   1.00
C525   C     0.14129   0.02479   0.72226   0.00000  Uiso   1.00
C526   C     0.19204   0.30854   0.77773   0.00000  Uiso   1.00
C527   C     0.19204   0.02486   0.77773   0.00000  Uiso   1.00
C528   C     0.14129   0.30847   0.72227   0.00000  Uiso   1.00
C529   C     0.16665   0.16663   0.66425   0.00000  Uiso   1.00
C530   C     0.16669   0.16670   0.83575   0.00000  Uiso   1.00
C531   C     0.17790   0.12604   0.90742   0.00000  Uiso   1.00
C532   C     0.15544   0.20730   0.59258   0.00000  Uiso   1.00
C533   C     0.16668   0.16679   0.88420   0.00000  Uiso   1.00
C534   C     0.24597   0.16667   0.75003   0.00000  Uiso   1.00
C535   C     0.16665   0.16654   0.61580   0.00000  Uiso   1.00
C536   C     0.15545   0.20765   0.90739   0.00000  Uiso   1.00
C537   C     0.17788   0.12569   0.59261   0.00000  Uiso   1.00
C538   C     0.15555   0.20804   0.95364   0.00000  Uiso   1.00
C539   C     0.17778   0.12530   0.54636   0.00000  Uiso   1.00
C540   C     0.16665   0.16680   0.97676   0.00000  Uiso   1.00
C541   C     0.16668   0.16653   0.52324   0.00000  Uiso   1.00
C542   C     0.17773   0.12580   0.95350   0.00000  Uiso   1.00
C543   C     0.15560   0.20754   0.54650   0.00000  Uiso   1.00
C544   C     0.14472   0.24868   0.97739   0.00000  Uiso   1.00
C545   C     0.14477   0.24824   0.52332   0.00000  Uiso   1.00
C546   C     0.18861   0.08466   0.52261   0.00000  Uiso   1.00
C547   C     0.18856   0.08509   0.97668   0.00000  Uiso   1.00
C548   C     0.02136   0.12881   0.76859   0.00000  Uiso   1.00
C549   C     0.31198   0.20452   0.73141   0.00000  Uiso   1.00
C550   C     0.31209   0.12883   0.76863   0.00000  Uiso   1.00
C551   C     0.02124   0.20450   0.73137   0.00000  Uiso   1.00
C552   C     0.29056   0.16668   0.75003   0.00000  Uiso   1.00
Cu553  Cu    0.16667   0.21355   0.75000   0.00000  Uiso   1.00
Cu554  Cu    0.16667   0.11978   0.75000   0.00000  Uiso   1.00
F555   F     0.18965   0.08669   0.88531   0.00000  Uiso   1.00
F556   F     0.04132   0.24091   0.71210   0.00000  Uiso   1.00
F557   F     0.14369   0.24664   0.61469   0.00000  Uiso   1.00
F558   F     0.14372   0.24671   0.88489   0.00000  Uiso   1.00
F559   F     0.18961   0.08662   0.61511   0.00000  Uiso   1.00
F560   F     0.13415   0.28909   0.95653   0.00000  Uiso   1.00
F561   F     0.19919   0.04424   0.54347   0.00000  Uiso   1.00
F562   F     0.04155   0.09238   0.78779   0.00000  Uiso   1.00
F563   F     0.29178   0.24095   0.71221   0.00000  Uiso   1.00
F564   F     0.29202   0.09242   0.78790   0.00000  Uiso   1.00
H565   H     0.13632   0.28007   0.54067   0.00000  Uiso   1.00
H566   H     0.19702   0.05326   0.95932   0.00000  Uiso   1.00
H567   H     0.12099   0.04352   0.70007   0.00000  Uiso   1.00
H568   H     0.21235   0.28981   0.79993   0.00000  Uiso   1.00
H569   H     0.21236   0.04364   0.79992   0.00000  Uiso   1.00
H570   H     0.12097   0.28969   0.70008   0.00000  Uiso   1.00
N571   N     0.16667   0.28402   0.75000   0.00000  Uiso   1.00
N572   N     0.16667   0.04931   0.75000   0.00000  Uiso   1.00
O573   O     0.10655   0.20625   0.74999   0.00000  Uiso   1.00
O574   O     0.22679   0.12709   0.75000   0.00000  Uiso   1.00
O575   O     0.22679   0.20625   0.75000   0.00000  Uiso   1.00
O576   O     0.10655   0.12709   0.74999   0.00000  Uiso   1.00
O577   O     0.16666   0.20627   0.68513   0.00000  Uiso   1.00
O578   O     0.16668   0.12707   0.81487   0.00000  Uiso   1.00
O579   O     0.16668   0.20627   0.81487   0.00000  Uiso   1.00
O580   O     0.16666   0.12707   0.68513   0.00000  Uiso   1.00
C581   C     0.42070   0.16666   0.74997   0.00000  Uiso   1.00
C582   C     0.37611   0.16666   0.74997   0.00000  Uiso   1.00
C583   C     0.47463   0.02479   0.72226   0.00000  Uiso   1.00
C584   C     0.52537   0.30854   0.77773   0.00000  Uiso   1.00
C585   C     0.52538   0.02486   0.77773   0.00000  Uiso   1.00
C586   C     0.47462   0.30847   0.72227   0.00000  Uiso   1.00
C587   C     0.49998   0.16663   0.66425   0.00000  Uiso   1.00
C588   C     0.50002   0.16670   0.83575   0.00000  Uiso   1.00
C589   C     0.51123   0.12604   0.90742   0.00000  Uiso   1.00
C590   C     0.48877   0.20730   0.59258   0.00000  Uiso   1.00
C591   C     0.50002   0.16679   0.88420   0.00000  Uiso   1.00
C592   C     0.57930   0.16667   0.75003   0.00000  Uiso   1.00
C593   C     0.49998   0.16654   0.61580   0.00000  Uiso   1.00
C594   C     0.48879   0.20765   0.90739   0.00000  Uiso   1.00
C595   C     0.51121   0.12569   0.59261   0.00000  Uiso   1.00
C596   C     0.48889   0.20804   0.95364   0.00000  Uiso   1.00
C597   C     0.51111   0.12530   0.54636   0.00000  Uiso   1.00
C598   C     0.49998   0.16680   0.97676   0.00000  Uiso   1.00
C599   C     0.50002   0.16653   0.52324   0.00000  Uiso   1.00
C600   C     0.51106   0.12580   0.95350   0.00000  Uiso   1.00
C601   C     0.48894   0.20754   0.54650   0.00000  Uiso   1.00
C602   C     0.47805   0.24868   0.97739   0.00000  Uiso   1.00
C603   C     0.47810   0.24824   0.52332   0.00000  Uiso   1.00
C604   C     0.52195   0.08466   0.52261   0.00000  Uiso   1.00
C605   C     0.52190   0.08509   0.97668   0.00000  Uiso   1.00
C606   C     0.35469   0.12881   0.76859   0.00000  Uiso   1.00
C607   C     0.64531   0.20452   0.73141   0.00000  Uiso   1.00
C608   C     0.64542   0.12883   0.76863   0.00000  Uiso   1.00
C609   C     0.35458   0.20450   0.73137   0.00000  Uiso   1.00
C610   C     0.62389   0.16668   0.75003   0.00000  Uiso   1.00
Cu611  Cu    0.50000   0.21355   0.75000   0.00000  Uiso   1.00
Cu612  Cu    0.50000   0.11978   0.75000   0.00000  Uiso   1.00
F613   F     0.52298   0.08669   0.88531   0.00000  Uiso   1.00
F614   F     0.37465   0.24091   0.71210   0.00000  Uiso   1.00
F615   F     0.47702   0.24664   0.61469   0.00000  Uiso   1.00
F616   F     0.47705   0.24671   0.88489   0.00000  Uiso   1.00
F617   F     0.52295   0.08662   0.61511   0.00000  Uiso   1.00
F618   F     0.46748   0.28909   0.95653   0.00000  Uiso   1.00
F619   F     0.53252   0.04424   0.54347   0.00000  Uiso   1.00
F620   F     0.37489   0.09238   0.78779   0.00000  Uiso   1.00
F621   F     0.62511   0.24095   0.71221   0.00000  Uiso   1.00
F622   F     0.62535   0.09242   0.78790   0.00000  Uiso   1.00
H623   H     0.46965   0.28007   0.54067   0.00000  Uiso   1.00
H624   H     0.53035   0.05326   0.95932   0.00000  Uiso   1.00
H625   H     0.45432   0.04352   0.70007   0.00000  Uiso   1.00
H626   H     0.54568   0.28981   0.79993   0.00000  Uiso   1.00
H627   H     0.54569   0.04364   0.79992   0.00000  Uiso   1.00
H628   H     0.45431   0.28969   0.70008   0.00000  Uiso   1.00
N629   N     0.50000   0.28402   0.75000   0.00000  Uiso   1.00
N630   N     0.50000   0.04931   0.75000   0.00000  Uiso   1.00
O631   O     0.43988   0.20625   0.74999   0.00000  Uiso   1.00
O632   O     0.56012   0.12709   0.75000   0.00000  Uiso   1.00
O633   O     0.56012   0.20625   0.75000   0.00000  Uiso   1.00
O634   O     0.43988   0.12709   0.74999   0.00000  Uiso   1.00
O635   O     0.49999   0.20627   0.68513   0.00000  Uiso   1.00
O636   O     0.50001   0.12707   0.81487   0.00000  Uiso   1.00
O637   O     0.50001   0.20627   0.81487   0.00000  Uiso   1.00
O638   O     0.49999   0.12707   0.68513   0.00000  Uiso   1.00
C639   C     0.75403   0.16666   0.74997   0.00000  Uiso   1.00
C640   C     0.70944   0.16666   0.74997   0.00000  Uiso   1.00
C641   C     0.80796   0.02479   0.72226   0.00000  Uiso   1.00
C642   C     0.85871   0.30854   0.77773   0.00000  Uiso   1.00
C643   C     0.85871   0.02486   0.77773   0.00000  Uiso   1.00
C644   C     0.80796   0.30847   0.72227   0.00000  Uiso   1.00
C645   C     0.83331   0.16663   0.66425   0.00000  Uiso   1.00
C646   C     0.83335   0.16670   0.83575   0.00000  Uiso   1.00
C647   C     0.84456   0.12604   0.90742   0.00000  Uiso   1.00
C648   C     0.82210   0.20730   0.59258   0.00000  Uiso   1.00
C649   C     0.83335   0.16679   0.88420   0.00000  Uiso   1.00
C650   C     0.91263   0.16667   0.75003   0.00000  Uiso   1.00
C651   C     0.83332   0.16654   0.61580   0.00000  Uiso   1.00
C652   C     0.82212   0.20765   0.90739   0.00000  Uiso   1.00
C653   C     0.84455   0.12569   0.59261   0.00000  Uiso   1.00
C654   C     0.82222   0.20804   0.95364   0.00000  Uiso   1.00
C655   C     0.84445   0.12530   0.54636   0.00000  Uiso   1.00
C656   C     0.83332   0.16680   0.97676   0.00000  Uiso   1.00
C657   C     0.83335   0.16653   0.52324   0.00000  Uiso   1.00
C658   C     0.84440   0.12580   0.95350   0.00000  Uiso   1.00
C659   C     0.82227   0.20754   0.54650   0.00000  Uiso   1.00
C660   C     0.81139   0.24868   0.97739   0.00000  Uiso   1.00
C661   C     0.81144   0.24824   0.52332   0.00000  Uiso   1.00
C662   C     0.85528   0.08466   0.52261   0.00000  Uiso   1.00
C663   C     0.85523   0.08509   0.97668   0.00000  Uiso   1.00
C664   C     0.68802   0.12881   0.76859   0.00000  Uiso   1.00
C665   C     0.97864   0.20452   0.73141   0.00000  Uiso   1.00
C666   C     0.97876   0.12883   0.76863   0.00000  Uiso   1.00
C667   C     0.68791   0.20450   0.73137   0.00000  Uiso   1.00
C668   C     0.95722   0.16668   0.75003   0.00000  Uiso   1.00
Cu669  Cu    0.83333   0.21355   0.75000   0.00000  Uiso   1.00
Cu670  Cu    0.83333   0.11978   0.75000   0.00000  Uiso   1.00
F671   F     0.85631   0.08669   0.88531   0.00000  Uiso   1.00
F672   F     0.70798   0.24091   0.71210   0.00000  Uiso   1.00
F673   F     0.81035   0.24664   0.61469   0.00000  Uiso   1.00
F674   F     0.81038   0.24671   0.88489   0.00000  Uiso   1.00
F675   F     0.85628   0.08662   0.61511   0.00000  Uiso   1.00
F676   F     0.80081   0.28909   0.95653   0.00000  Uiso   1.00
F677   F     0.86585   0.04424   0.54347   0.00000  Uiso   1.00
F678   F     0.70822   0.09238   0.78779   0.00000  Uiso   1.00
F679   F     0.95845   0.24095   0.71221   0.00000  Uiso   1.00
F680   F     0.95868   0.09242   0.78790   0.00000  Uiso   1.00
H681   H     0.80298   0.28007   0.54067   0.00000  Uiso   1.00
H682   H     0.86368   0.05326   0.95932   0.00000  Uiso   1.00
H683   H     0.78765   0.04352   0.70007   0.00000  Uiso   1.00
H684   H     0.87901   0.28981   0.79993   0.00000  Uiso   1.00
H685   H     0.87902   0.04364   0.79992   0.00000  Uiso   1.00
H686   H     0.78764   0.28969   0.70008   0.00000  Uiso   1.00
N687   N     0.83333   0.28402   0.75000   0.00000  Uiso   1.00
N688   N     0.83333   0.04931   0.75000   0.00000  Uiso   1.00
O689   O     0.77321   0.20625   0.74999   0.00000  Uiso   1.00
O690   O     0.89345   0.12709   0.75000   0.00000  Uiso   1.00
O691   O     0.89345   0.20625   0.75000   0.00000  Uiso   1.00
O692   O     0.77321   0.12709   0.74999   0.00000  Uiso   1.00
O693   O     0.83332   0.20627   0.68513   0.00000  Uiso   1.00
O694   O     0.83334   0.12707   0.81487   0.00000  Uiso   1.00
O695   O     0.83334   0.20627   0.81487   0.00000  Uiso   1.00
O696   O     0.83332   0.12707   0.68513   0.00000  Uiso   1.00
C697   C     0.08737   0.50000   0.74997   0.00000  Uiso   1.00
C698   C     0.04278   0.49999   0.74997   0.00000  Uiso   1.00
C699   C     0.14129   0.35812   0.72226   0.00000  Uiso   1.00
C700   C     0.19204   0.64188   0.77773   0.00000  Uiso   1.00
C701   C     0.19204   0.35819   0.77773   0.00000  Uiso   1.00
C702   C     0.14129   0.64181   0.72227   0.00000  Uiso   1.00
C703   C     0.16665   0.49997   0.66425   0.00000  Uiso   1.00
C704   C     0.16669   0.50003   0.83575   0.00000  Uiso   1.00
C705   C     0.17790   0.45937   0.90742   0.00000  Uiso   1.00
C706   C     0.15544   0.54063   0.59258   0.00000  Uiso   1.00
C707   C     0.16668   0.50013   0.88420   0.00000  Uiso   1.00
C708   C     0.24597   0.50000   0.75003   0.00000  Uiso   1.00
C709   C     0.16665   0.49987   0.61580   0.00000  Uiso   1.00
C710   C     0.15545   0.54098   0.90739   0.00000  Uiso   1.00
C711   C     0.17788   0.45902   0.59261   0.00000  Uiso   1.00
C712   C     0.15555   0.54137   0.95364   0.00000  Uiso   1.00
C713   C     0.17778   0.45863   0.54636   0.00000  Uiso   1.00
C714   C     0.16665   0.50014   0.97676   0.00000  Uiso   1.00
C715   C     0.16668   0.49986   0.52324   0.00000  Uiso   1.00
C716   C     0.17773   0.45913   0.95350   0.00000  Uiso   1.00
C717   C     0.15560   0.54087   0.54650   0.00000  Uiso   1.00
C718   C     0.14472   0.58201   0.97739   0.00000  Uiso   1.00
C719   C     0.14477   0.58158   0.52332   0.00000  Uiso   1.00
C720   C     0.18861   0.41799   0.52261   0.00000  Uiso   1.00
C721   C     0.18856   0.41842   0.97668   0.00000  Uiso   1.00
C722   C     0.02136   0.46215   0.76859   0.00000  Uiso   1.00
C723   C     0.31198   0.53785   0.73141   0.00000  Uiso   1.00
C724   C     0.31209   0.46216   0.76863   0.00000  Uiso   1.00
C725   C     0.02124   0.53784   0.73137   0.00000  Uiso   1.00
C726   C     0.29056   0.50001   0.75003   0.00000  Uiso   1.00
Cu727  Cu    0.16667   0.54689   0.75000   0.00000  Uiso   1.00
Cu728  Cu    0.16667   0.45311   0.75000   0.00000  Uiso   1.00
F729   F     0.18965   0.42002   0.88531   0.00000  Uiso   1.00
F730   F     0.04132   0.57424   0.71210   0.00000  Uiso   1.00
F731   F     0.14369   0.57998   0.61469   0.00000  Uiso   1.00
F732   F     0.14372   0.58005   0.88489   0.00000  Uiso   1.00
F733   F     0.18961   0.41995   0.61511   0.00000  Uiso   1.00
F734   F     0.13415   0.62243   0.95653   0.00000  Uiso   1.00
F735   F     0.19919   0.37757   0.54347   0.00000  Uiso   1.00
F736   F     0.04155   0.42572   0.78779   0.00000  Uiso   1.00
F737   F     0.29178   0.57428   0.71221   0.00000  Uiso   1.00
F738   F     0.29202   0.42576   0.78790   0.00000  Uiso   1.00
H739   H     0.13632   0.61340   0.54067   0.00000  Uiso   1.00
H740   H     0.19702   0.38660   0.95932   0.00000  Uiso   1.00
H741   H     0.12099   0.37685   0.70007   0.00000  Uiso   1.00
H742   H     0.21235   0.62315   0.79993   0.00000  Uiso   1.00
H743   H     0.21236   0.37697   0.79992   0.00000  Uiso   1.00
H744   H     0.12097   0.62303   0.70008   0.00000  Uiso   1.00
N745   N     0.16667   0.61736   0.75000   0.00000  Uiso   1.00
N746   N     0.16667   0.38264   0.75000   0.00000  Uiso   1.00
O747   O     0.10655   0.53958   0.74999   0.00000  Uiso   1.00
O748   O     0.22679   0.46042   0.75000   0.00000  Uiso   1.00
O749   O     0.22679   0.53958   0.75000   0.00000  Uiso   1.00
O750   O     0.10655   0.46042   0.74999   0.00000  Uiso   1.00
O751   O     0.16666   0.53960   0.68513   0.00000  Uiso   1.00
O752   O     0.16668   0.46040   0.81487   0.00000  Uiso   1.00
O753   O     0.16668   0.53960   0.81487   0.00000  Uiso   1.00
O754   O     0.16666   0.46040   0.68513   0.00000  Uiso   1.00
C755   C     0.42070   0.50000   0.74997   0.00000  Uiso   1.00
C756   C     0.37611   0.49999   0.74997   0.00000  Uiso   1.00
C757   C     0.47463   0.35812   0.72226   0.00000  Uiso   1.00
C758   C     0.52537   0.64188   0.77773   0.00000  Uiso   1.00
C759   C     0.52538   0.35819   0.77773   0.00000  Uiso   1.00
C760   C     0.47462   0.64181   0.72227   0.00000  Uiso   1.00
C761   C     0.49998   0.49997   0.66425   0.00000  Uiso   1.00
C762   C     0.50002   0.50003   0.83575   0.00000  Uiso   1.00
C763   C     0.51123   0.45937   0.90742   0.00000  Uiso   1.00
C764   C     0.48877   0.54063   0.59258   0.00000  Uiso   1.00
C765   C     0.50002   0.50013   0.88420   0.00000  Uiso   1.00
C766   C     0.57930   0.50000   0.75003   0.00000  Uiso   1.00
C767   C     0.49998   0.49987   0.61580   0.00000  Uiso   1.00
C768   C     0.48879   0.54098   0.90739   0.00000  Uiso   1.00
C769   C     0.51121   0.45902   0.59261   0.00000  Uiso   1.00
C770   C     0.48889   0.54137   0.95364   0.00000  Uiso   1.00
C771   C     0.51111   0.45863   0.54636   0.00000  Uiso   1.00
C772   C     0.49998   0.50014   0.97676   0.00000  Uiso   1.00
C773   C     0.50002   0.49986   0.52324   0.00000  Uiso   1.00
C774   C     0.51106   0.45913   0.95350   0.00000  Uiso   1.00
C775   C     0.48894   0.54087   0.54650   0.00000  Uiso   1.00
C776   C     0.47805   0.58201   0.97739   0.00000  Uiso   1.00
C777   C     0.47810   0.58158   0.52332   0.00000  Uiso   1.00
C778   C     0.52195   0.41799   0.52261   0.00000  Uiso   1.00
C779   C     0.52190   0.41842   0.97668   0.00000  Uiso   1.00
C780   C     0.35469   0.46215   0.76859   0.00000  Uiso   1.00
C781   C     0.64531   0.53785   0.73141   0.00000  Uiso   1.00
C782   C     0.64542   0.46216   0.76863   0.00000  Uiso   1.00
C783   C     0.35458   0.53784   0.73137   0.00000  Uiso   1.00
C784   C     0.62389   0.50001   0.75003   0.00000  Uiso   1.00
Cu785  Cu    0.50000   0.54689   0.75000   0.00000  Uiso   1.00
Cu786  Cu    0.50000   0.45311   0.75000   0.00000  Uiso   1.00
F787   F     0.52298   0.42002   0.88531   0.00000  Uiso   1.00
F788   F     0.37465   0.57424   0.71210   0.00000  Uiso   1.00
F789   F     0.47702   0.57998   0.61469   0.00000  Uiso   1.00
F790   F     0.47705   0.58005   0.88489   0.00000  Uiso   1.00
F791   F     0.52295   0.41995   0.61511   0.00000  Uiso   1.00
F792   F     0.46748   0.62243   0.95653   0.00000  Uiso   1.00
F793   F     0.53252   0.37757   0.54347   0.00000  Uiso   1.00
F794   F     0.37489   0.42572   0.78779   0.00000  Uiso   1.00
F795   F     0.62511   0.57428   0.71221   0.00000  Uiso   1.00
F796   F     0.62535   0.42576   0.78790   0.00000  Uiso   1.00
H797   H     0.46965   0.61340   0.54067   0.00000  Uiso   1.00
H798   H     0.53035   0.38660   0.95932   0.00000  Uiso   1.00
H799   H     0.45432   0.37685   0.70007   0.00000  Uiso   1.00
H800   H     0.54568   0.62315   0.79993   0.00000  Uiso   1.00
H801   H     0.54569   0.37697   0.79992   0.00000  Uiso   1.00
H802   H     0.45431   0.62303   0.70008   0.00000  Uiso   1.00
N803   N     0.50000   0.61736   0.75000   0.00000  Uiso   1.00
N804   N     0.50000   0.38264   0.75000   0.00000  Uiso   1.00
O805   O     0.43988   0.53958   0.74999   0.00000  Uiso   1.00
O806   O     0.56012   0.46042   0.75000   0.00000  Uiso   1.00
O807   O     0.56012   0.53958   0.75000   0.00000  Uiso   1.00
O808   O     0.43988   0.46042   0.74999   0.00000  Uiso   1.00
O809   O     0.49999   0.53960   0.68513   0.00000  Uiso   1.00
O810   O     0.50001   0.46040   0.81487   0.00000  Uiso   1.00
O811   O     0.50001   0.53960   0.81487   0.00000  Uiso   1.00
O812   O     0.49999   0.46040   0.68513   0.00000  Uiso   1.00
C813   C     0.75403   0.50000   0.74997   0.00000  Uiso   1.00
C814   C     0.70944   0.49999   0.74997   0.00000  Uiso   1.00
C815   C     0.80796   0.35812   0.72226   0.00000  Uiso   1.00
C816   C     0.85871   0.64188   0.77773   0.00000  Uiso   1.00
C817   C     0.85871   0.35819   0.77773   0.00000  Uiso   1.00
C818   C     0.80796   0.64181   0.72227   0.00000  Uiso   1.00
C819   C     0.83331   0.49997   0.66425   0.00000  Uiso   1.00
C820   C     0.83335   0.50003   0.83575   0.00000  Uiso   1.00
C821   C     0.84456   0.45937   0.90742   0.00000  Uiso   1.00
C822   C     0.82210   0.54063   0.59258   0.00000  Uiso   1.00
C823   C     0.83335   0.50013   0.88420   0.00000  Uiso   1.00
C824   C     0.91263   0.50000   0.75003   0.00000  Uiso   1.00
C825   C     0.83332   0.49987   0.61580   0.00000  Uiso   1.00
C826   C     0.82212   0.54098   0.90739   0.00000  Uiso   1.00
C827   C     0.84455   0.45902   0.59261   0.00000  Uiso   1.00
C828   C     0.82222   0.54137   0.95364   0.00000  Uiso   1.00
C829   C     0.84445   0.45863   0.54636   0.00000  Uiso   1.00
C830   C     0.83332   0.50014   0.97676   0.00000  Uiso   1.00
C831   C     0.83335   0.49986   0.52324   0.00000  Uiso   1.00
C832   C     0.84440   0.45913   0.95350   0.00000  Uiso   1.00
C833   C     0.82227   0.54087   0.54650   0.00000  Uiso   1.00
C834   C     0.81139   0.58201   0.97739   0.00000  Uiso   1.00
C835   C     0.81144   0.58158   0.52332   0.00000  Uiso   1.00
C836   C     0.85528   0.41799   0.52261   0.00000  Uiso   1.00
C837   C     0.85523   0.41842   0.97668   0.00000  Uiso   1.00
C838   C     0.68802   0.46215   0.76859   0.00000  Uiso   1.00
C839   C     0.97864   0.53785   0.73141   0.00000  Uiso   1.00
C840   C     0.97876   0.46216   0.76863   0.00000  Uiso   1.00
C841   C     0.68791   0.53784   0.73137   0.00000  Uiso   1.00
C842   C     0.95722   0.50001   0.75003   0.00000  Uiso   1.00
Cu843  Cu    0.83333   0.54689   0.75000   0.00000  Uiso   1.00
Cu844  Cu    0.83333   0.45311   0.75000   0.00000  Uiso   1.00
F845   F     0.85631   0.42002   0.88531   0.00000  Uiso   1.00
F846   F     0.70798   0.57424   0.71210   0.00000  Uiso   1.00
F847   F     0.81035   0.57998   0.61469   0.00000  Uiso   1.00
F848   F     0.81038   0.58005   0.88489   0.00000  Uiso   1.00
F849   F     0.85628   0.41995   0.61511   0.00000  Uiso   1.00
F850   F     0.80081   0.62243   0.95653   0.00000  Uiso   1.00
F851   F     0.86585   0.37757   0.54347   0.00000  Uiso   1.00
F852   F     0.70822   0.42572   0.78779   0.00000  Uiso   1.00
F853   F     0.95845   0.57428   0.71221   0.00000  Uiso   1.00
F854   F     0.95868   0.42576   0.78790   0.00000  Uiso   1.00
H855   H     0.80298   0.61340   0.54067   0.00000  Uiso   1.00
H856   H     0.86368   0.38660   0.95932   0.00000  Uiso   1.00
H857   H     0.78765   0.37685   0.70007   0.00000  Uiso   1.00
H858   H     0.87901   0.62315   0.79993   0.00000  Uiso   1.00
H859   H     0.87902   0.37697   0.79992   0.00000  Uiso   1.00
H860   H     0.78764   0.62303   0.70008   0.00000  Uiso   1.00
N861   N     0.83333   0.61736   0.75000   0.00000  Uiso   1.00
N862   N     0.83333   0.38264   0.75000   0.00000  Uiso   1.00
O863   O     0.77321   0.53958   0.74999   0.00000  Uiso   1.00
O864   O     0.89345   0.46042   0.75000   0.00000  Uiso   1.00
O865   O     0.89345   0.53958   0.75000   0.00000  Uiso   1.00
O866   O     0.77321   0.46042   0.74999   0.00000  Uiso   1.00
O867   O     0.83332   0.53960   0.68513   0.00000  Uiso   1.00
O868   O     0.83334   0.46040   0.81487   0.00000  Uiso   1.00
O869   O     0.83334   0.53960   0.81487   0.00000  Uiso   1.00
O870   O     0.83332   0.46040   0.68513   0.00000  Uiso   1.00
C871   C     0.08737   0.83333   0.74997   0.00000  Uiso   1.00
C872   C     0.04278   0.83332   0.74997   0.00000  Uiso   1.00
C873   C     0.14129   0.69146   0.72226   0.00000  Uiso   1.00
C874   C     0.19204   0.97521   0.77773   0.00000  Uiso   1.00
C875   C     0.19204   0.69153   0.77773   0.00000  Uiso   1.00
C876   C     0.14129   0.97514   0.72227   0.00000  Uiso   1.00
C877   C     0.16665   0.83330   0.66425   0.00000  Uiso   1.00
C878   C     0.16669   0.83337   0.83575   0.00000  Uiso   1.00
C879   C     0.17790   0.79270   0.90742   0.00000  Uiso   1.00
C880   C     0.15544   0.87396   0.59258   0.00000  Uiso   1.00
C881   C     0.16668   0.83346   0.88420   0.00000  Uiso   1.00
C882   C     0.24597   0.83334   0.75003   0.00000  Uiso   1.00
C883   C     0.16665   0.83320   0.61580   0.00000  Uiso   1.00
C884   C     0.15545   0.87431   0.90739   0.00000  Uiso   1.00
C885   C     0.17788   0.79235   0.59261   0.00000  Uiso   1.00
C886   C     0.15555   0.87470   0.95364   0.00000  Uiso   1.00
C887   C     0.17778   0.79196   0.54636   0.00000  Uiso   1.00
C888   C     0.16665   0.83347   0.97676   0.00000  Uiso   1.00
C889   C     0.16668   0.83320   0.52324   0.00000  Uiso   1.00
C890   C     0.17773   0.79246   0.95350   0.00000  Uiso   1.00
C891   C     0.15560   0.87420   0.54650   0.00000  Uiso   1.00
C892   C     0.14472   0.91534   0.97739   0.00000  Uiso   1.00
C893   C     0.14477   0.91491   0.52332   0.00000  Uiso   1.00
C894   C     0.18861   0.75132   0.52261   0.00000  Uiso   1.00
C895   C     0.18856   0.75176   0.97668   0.00000  Uiso   1.00
C896   C     0.02136   0.79548   0.76859   0.00000  Uiso   1.00
C897   C     0.31198   0.87119   0.73141   0.00000  Uiso   1.00
C898   C     0.31209   0.79550   0.76863   0.00000  Uiso   1.00
C899   C     0.02124   0.87117   0.73137   0.00000  Uiso   1.00
C900   C     0.29056   0.83334   0.75003   0.00000  Uiso   1.00
Cu901  Cu    0.16667   0.88022   0.75000   0.00000  Uiso   1.00
Cu902  Cu    0.16667   0.78645   0.75000   0.00000  Uiso   1.00
F903   F     0.18965   0.75336   0.88531   0.00000  Uiso   1.00
F904   F     0.04132   0.90758   0.71210   0.00000  Uiso   1.00
F905   F     0.14369   0.91331   0.61469   0.00000  Uiso   1.00
F906   F     0.14372   0.91338   0.88489   0.00000  Uiso   1.00
F907   F     0.18961   0.75329   0.61511   0.00000  Uiso   1.00
F908   F     0.13415   0.95576   0.95653   0.00000  Uiso   1.00
F909   F     0.19919   0.71090   0.54347   0.00000  Uiso   1.00
F910   F     0.04155   0.75905   0.78779   0.00000  Uiso   1.00
F911   F     0.29178   0.90762   0.71221   0.00000  Uiso   1.00
F912   F     0.29202   0.75909   0.78790   0.00000  Uiso   1.00
H913   H     0.13632   0.94674   0.54067   0.00000  Uiso   1.00
H914   H     0.19702   0.71993   0.95932   0.00000  Uiso   1.00
H915   H     0.12099   0.71019   0.70007   0.00000  Uiso   1.00
H916   H     0.21235   0.95648   0.79993   0.00000  Uiso   1.00
H917   H     0.21236   0.71031   0.79992   0.00000  Uiso   1.00
H918   H     0.12097   0.95636   0.70008   0.00000  Uiso   1.00
N919   N     0.16667   0.95069   0.75000   0.00000  Uiso   1.00
N920   N     0.16667   0.71598   0.75000   0.00000  Uiso   1.00
O921   O     0.10655   0.87291   0.74999   0.00000  Uiso   1.00
O922   O     0.22679   0.79375   0.75000   0.00000  Uiso   1.00
O923   O     0.22679   0.87291   0.75000   0.00000  Uiso   1.00
O924   O     0.10655   0.79375   0.74999   0.00000  Uiso   1.00
O925   O     0.16666   0.87293   0.68513   0.00000  Uiso   1.00
O926   O     0.16668   0.79373   0.81487   0.00000  Uiso   1.00
O927   O     0.16668   0.87293   0.81487   0.00000  Uiso   1.00
O928   O     0.16666   0.79373   0.68513   0.00000  Uiso   1.00
C929   C     0.42070   0.83333   0.74997   0.00000  Uiso   1.00
C930   C     0.37611   0.83332   0.74997   0.00000  Uiso   1.00
C931   C     0.47463   0.69146   0.72226   0.00000  Uiso   1.00
C932   C     0.52537   0.97521   0.77773   0.00000  Uiso   1.00
C933   C     0.52538   0.69153   0.77773   0.00000  Uiso   1.00
C934   C     0.47462   0.97514   0.72227   0.00000  Uiso   1.00
C935   C     0.49998   0.83330   0.66425   0.00000  Uiso   1.00
C936   C     0.50002   0.83337   0.83575   0.00000  Uiso   1.00
C937   C     0.51123   0.79270   0.90742   0.00000  Uiso   1.00
C938   C     0.48877   0.87396   0.59258   0.00000  Uiso   1.00
C939   C     0.50002   0.83346   0.88420   0.00000  Uiso   1.00
C940   C     0.57930   0.83334   0.75003   0.00000  Uiso   1.00
C941   C     0.49998   0.83320   0.61580   0.00000  Uiso   1.00
C942   C     0.48879   0.87431   0.90739   0.00000  Uiso   1.00
C943   C     0.51121   0.79235   0.59261   0.00000  Uiso   1.00
C944   C     0.48889   0.87470   0.95364   0.00000  Uiso   1.00
C945   C     0.51111   0.79196   0.54636   0.00000  Uiso   1.00
C946   C     0.49998   0.83347   0.97676   0.00000  Uiso   1.00
C947   C     0.50002   0.83320   0.52324   0.00000  Uiso   1.00
C948   C     0.51106   0.79246   0.95350   0.00000  Uiso   1.00
C949   C     0.48894   0.87420   0.54650   0.00000  Uiso   1.00
C950   C     0.47805   0.91534   0.97739   0.00000  Uiso   1.00
C951   C     0.47810   0.91491   0.52332   0.00000  Uiso   1.00
C952   C     0.52195   0.75132   0.52261   0.00000  Uiso   1.00
C953   C     0.52190   0.75176   0.97668   0.00000  Uiso   1.00
C954   C     0.35469   0.79548   0.76859   0.00000  Uiso   1.00
C955   C     0.64531   0.87119   0.73141   0.00000  Uiso   1.00
C956   C     0.64542   0.79550   0.76863   0.00000  Uiso   1.00
C957   C     0.35458   0.87117   0.73137   0.00000  Uiso   1.00
C958   C     0.62389   0.83334   0.75003   0.00000  Uiso   1.00
Cu959  Cu    0.50000   0.88022   0.75000   0.00000  Uiso   1.00
Cu960  Cu    0.50000   0.78645   0.75000   0.00000  Uiso   1.00
F961   F     0.52298   0.75336   0.88531   0.00000  Uiso   1.00
F962   F     0.37465   0.90758   0.71210   0.00000  Uiso   1.00
F963   F     0.47702   0.91331   0.61469   0.00000  Uiso   1.00
F964   F     0.47705   0.91338   0.88489   0.00000  Uiso   1.00
F965   F     0.52295   0.75329   0.61511   0.00000  Uiso   1.00
F966   F     0.46748   0.95576   0.95653   0.00000  Uiso   1.00
F967   F     0.53252   0.71090   0.54347   0.00000  Uiso   1.00
F968   F     0.37489   0.75905   0.78779   0.00000  Uiso   1.00
F969   F     0.62511   0.90762   0.71221   0.00000  Uiso   1.00
F970   F     0.62535   0.75909   0.78790   0.00000  Uiso   1.00
H971   H     0.46965   0.94674   0.54067   0.00000  Uiso   1.00
H972   H     0.53035   0.71993   0.95932   0.00000  Uiso   1.00
H973   H     0.45432   0.71019   0.70007   0.00000  Uiso   1.00
H974   H     0.54568   0.95648   0.79993   0.00000  Uiso   1.00
H975   H     0.54569   0.71031   0.79992   0.00000  Uiso   1.00
H976   H     0.45431   0.95636   0.70008   0.00000  Uiso   1.00
N977   N     0.50000   0.95069   0.75000   0.00000  Uiso   1.00
N978   N     0.50000   0.71598   0.75000   0.00000  Uiso   1.00
O979   O     0.43988   0.87291   0.74999   0.00000  Uiso   1.00
O980   O     0.56012   0.79375   0.75000   0.00000  Uiso   1.00
O981   O     0.56012   0.87291   0.75000   0.00000  Uiso   1.00
O982   O     0.43988   0.79375   0.74999   0.00000  Uiso   1.00
O983   O     0.49999   0.87293   0.68513   0.00000  Uiso   1.00
O984   O     0.50001   0.79373   0.81487   0.00000  Uiso   1.00
O985   O     0.50001   0.87293   0.81487   0.00000  Uiso   1.00
O986   O     0.49999   0.79373   0.68513   0.00000  Uiso   1.00
C987   C     0.75403   0.83333   0.74997   0.00000  Uiso   1.00
C988   C     0.70944   0.83332   0.74997   0.00000  Uiso   1.00
C989   C     0.80796   0.69146   0.72226   0.00000  Uiso   1.00
C990   C     0.85871   0.97521   0.77773   0.00000  Uiso   1.00
C991   C     0.85871   0.69153   0.77773   0.00000  Uiso   1.00
C992   C     0.80796   0.97514   0.72227   0.00000  Uiso   1.00
C993   C     0.83331   0.83330   0.66425   0.00000  Uiso   1.00
C994   C     0.83335   0.83337   0.83575   0.00000  Uiso   1.00
C995   C     0.84456   0.79270   0.90742   0.00000  Uiso   1.00
C996   C     0.82210   0.87396   0.59258   0.00000  Uiso   1.00
C997   C     0.83335   0.83346   0.88420   0.00000  Uiso   1.00
C998   C     0.91263   0.83334   0.75003   0.00000  Uiso   1.00
C999   C     0.83332   0.83320   0.61580   0.00000  Uiso   1.00
C1000  C     0.82212   0.87431   0.90739   0.00000  Uiso   1.00
C1001  C     0.84455   0.79235   0.59261   0.00000  Uiso   1.00
C1002  C     0.82222   0.87470   0.95364   0.00000  Uiso   1.00
C1003  C     0.84445   0.79196   0.54636   0.00000  Uiso   1.00
C1004  C     0.83332   0.83347   0.97676   0.00000  Uiso   1.00
C1005  C     0.83335   0.83320   0.52324   0.00000  Uiso   1.00
C1006  C     0.84440   0.79246   0.95350   0.00000  Uiso   1.00
C1007  C     0.82227   0.87420   0.54650   0.00000  Uiso   1.00
C1008  C     0.81139   0.91534   0.97739   0.00000  Uiso   1.00
C1009  C     0.81144   0.91491   0.52332   0.00000  Uiso   1.00
C1010  C     0.85528   0.75132   0.52261   0.00000  Uiso   1.00
C1011  C     0.85523   0.75176   0.97668   0.00000  Uiso   1.00
C1012  C     0.68802   0.79548   0.76859   0.00000  Uiso   1.00
C1013  C     0.97864   0.87119   0.73141   0.00000  Uiso   1.00
C1014  C     0.97876   0.79550   0.76863   0.00000  Uiso   1.00
C1015  C     0.68791   0.87117   0.73137   0.00000  Uiso   1.00
C1016  C     0.95722   0.83334   0.75003   0.00000  Uiso   1.00
Cu1017 Cu    0.83333   0.88022   0.75000   0.00000  Uiso   1.00
Cu1018 Cu    0.83333   0.78645   0.75000   0.00000  Uiso   1.00
F1019  F     0.85631   0.75336   0.88531   0.00000  Uiso   1.00
F1020  F     0.70798   0.90758   0.71210   0.00000  Uiso   1.00
F1021  F     0.81035   0.91331   0.61469   0.00000  Uiso   1.00
F1022  F     0.81038   0.91338   0.88489   0.00000  Uiso   1.00
F1023  F     0.85628   0.75329   0.61511   0.00000  Uiso   1.00
F1024  F     0.80081   0.95576   0.95653   0.00000  Uiso   1.00
F1025  F     0.86585   0.71090   0.54347   0.00000  Uiso   1.00
F1026  F     0.70822   0.75905   0.78779   0.00000  Uiso   1.00
F1027  F     0.95845   0.90762   0.71221   0.00000  Uiso   1.00
F1028  F     0.95868   0.75909   0.78790   0.00000  Uiso   1.00
H1029  H     0.80298   0.94674   0.54067   0.00000  Uiso   1.00
H1030  H     0.86368   0.71993   0.95932   0.00000  Uiso   1.00
H1031  H     0.78765   0.71019   0.70007   0.00000  Uiso   1.00
H1032  H     0.87901   0.95648   0.79993   0.00000  Uiso   1.00
H1033  H     0.87902   0.71031   0.79992   0.00000  Uiso   1.00
H1034  H     0.78764   0.95636   0.70008   0.00000  Uiso   1.00
N1035  N     0.83333   0.95069   0.75000   0.00000  Uiso   1.00
N1036  N     0.83333   0.71598   0.75000   0.00000  Uiso   1.00
O1037  O     0.77321   0.87291   0.74999   0.00000  Uiso   1.00
O1038  O     0.89345   0.79375   0.75000   0.00000  Uiso   1.00
O1039  O     0.89345   0.87291   0.75000   0.00000  Uiso   1.00
O1040  O     0.77321   0.79375   0.74999   0.00000  Uiso   1.00
O1041  O     0.83332   0.87293   0.68513   0.00000  Uiso   1.00
O1042  O     0.83334   0.79373   0.81487   0.00000  Uiso   1.00
O1043  O     0.83334   0.87293   0.81487   0.00000  Uiso   1.00
O1044  O     0.83332   0.79373   0.68513   0.00000  Uiso   1.00
loop_
_geom_bond_atom_site_label_1
_geom_bond_atom_site_label_2
_geom_bond_distance
_geom_bond_site_symmetry_2
_ccdc_geom_bond_type
C1     O54     1.289   .     A
C1     O51     1.289   .     A
C1     C2      1.449   .     S
C2     C26     1.403   .     A
C2     C29     1.403   .     A
C3     N50     1.367   .     A
C3     H45     1.082   .     S
C3     C354    1.415   1_545 S
C4     N49     1.367   .     A
C4     H46     1.082   .     S
C4     C179    1.415   .     S
C5     H47     1.082   .     S
C5     N50     1.367   .     A
C5     C352    1.415   1_545 S
C6     H48     1.082   .     S
C6     N49     1.367   .     A
C6     C177    1.415   .     S
C7     O55     1.294   .     A
C7     O58     1.293   .     A
C7     C13     1.467   .     S
C8     O57     1.293   .     A
C8     O56     1.294   .     A
C8     C11     1.467   .     S
C9     C11     1.406   .     A
C9     F33     1.361   .     S
C9     C20     1.395   .     A
C10    F35     1.361   .     S
C10    C21     1.395   .     A
C10    C13     1.406   .     A
C11    C14     1.408   .     A
C12    O52     1.289   .     A
C12    C30     1.449   .     S
C12    O53     1.289   .     A
C13    C15     1.408   .     A
C14    F36     1.360   .     S
C14    C16     1.400   .     A
C15    C17     1.400   .     A
C15    F37     1.360   .     S
C16    C18     1.415   .     A
C16    C22     1.408   .     A
C17    C24     1.408   .     A
C17    C19     1.415   .     A
C18    C20     1.411   .     A
C18    C541    1.407   .     S
C19    C21     1.411   .     A
C19    C540    1.407   1_554 S
C20    C25     1.401   .     A
C21    C23     1.401   .     A
C22    F38     1.358   .     S
C22    C545    1.390   .     S
C23    H43     1.084   .     S
C23    C544    1.390   1_554 S
C24    F39     1.358   .     S
C24    C547    1.390   1_554 S
C25    H44     1.084   .     S
C25    C546    1.390   .     S
C26    F40     1.359   .     S
C26    C144    1.384   1_455 S
C27    F41     1.359   .     S
C27    C30     1.403   .     A
C27    C87     1.384   .     S
C28    C30     1.403   .     A
C28    F42     1.359   .     S
C28    C84     1.384   .     S
C29    F34     1.359   .     S
C29    C143    1.384   1_455 S
Cu31   Cu32    2.673   .     S
Cu31   O57     1.975   .     S
Cu31   O53     1.965   .     S
Cu31   N49     2.009   .     S
Cu31   O55     1.974   .     S
Cu31   O51     1.965   .     S
Cu32   O58     1.975   .     S
Cu32   N50     2.009   .     S
Cu32   O56     1.974   .     S
Cu32   O52     1.965   .     S
Cu32   O54     1.965   .     S
C59    O112    1.289   .     A
C59    O109    1.289   .     A
C59    C60     1.449   .     S
C60    C84     1.403   .     A
C60    C87     1.403   .     A
C61    N108    1.367   .     A
C61    H103    1.082   .     S
C61    C412    1.415   1_545 S
C62    N107    1.367   .     A
C62    H104    1.082   .     S
C62    C237    1.415   .     S
C63    H105    1.082   .     S
C63    N108    1.367   .     A
C63    C410    1.415   1_545 S
C64    H106    1.082   .     S
C64    N107    1.367   .     A
C64    C235    1.415   .     S
C65    O113    1.294   .     A
C65    O116    1.293   .     A
C65    C71     1.467   .     S
C66    O115    1.293   .     A
C66    O114    1.294   .     A
C66    C69     1.467   .     S
C67    C69     1.406   .     A
C67    F91     1.361   .     S
C67    C78     1.395   .     A
C68    F93     1.361   .     S
C68    C79     1.395   .     A
C68    C71     1.406   .     A
C69    C72     1.408   .     A
C70    O110    1.289   .     A
C70    C88     1.449   .     S
C70    O111    1.289   .     A
C71    C73     1.408   .     A
C72    F94     1.360   .     S
C72    C74     1.400   .     A
C73    C75     1.400   .     A
C73    F95     1.360   .     S
C74    C76     1.415   .     A
C74    C80     1.408   .     A
C75    C82     1.408   .     A
C75    C77     1.415   .     A
C76    C78     1.411   .     A
C76    C599    1.407   .     S
C77    C79     1.411   .     A
C77    C598    1.407   1_554 S
C78    C83     1.401   .     A
C79    C81     1.401   .     A
C80    F96     1.358   .     S
C80    C603    1.390   .     S
C81    H101    1.084   .     S
C81    C602    1.390   1_554 S
C82    F97     1.358   .     S
C82    C605    1.390   1_554 S
C83    H102    1.084   .     S
C83    C604    1.390   .     S
C84    F98     1.359   .     S
C85    F99     1.359   .     S
C85    C88     1.403   .     A
C85    C145    1.384   .     S
C86    C88     1.403   .     A
C86    F100    1.359   .     S
C86    C142    1.384   .     S
C87    F92     1.359   .     S
Cu89   Cu90    2.673   .     S
Cu89   O115    1.975   .     S
Cu89   O111    1.965   .     S
Cu89   N107    2.009   .     S
Cu89   O113    1.974   .     S
Cu89   O109    1.965   .     S
Cu90   O116    1.975   .     S
Cu90   N108    2.009   .     S
Cu90   O114    1.974   .     S
Cu90   O110    1.965   .     S
Cu90   O112    1.965   .     S
C117   O170    1.289   .     A
C117   O167    1.289   .     A
C117   C118    1.449   .     S
C118   C142    1.403   .     A
C118   C145    1.403   .     A
C119   N166    1.367   .     A
C119   H161    1.082   .     S
C119   C470    1.415   1_545 S
C120   N165    1.367   .     A
C120   H162    1.082   .     S
C120   C295    1.415   .     S
C121   H163    1.082   .     S
C121   N166    1.367   .     A
C121   C468    1.415   1_545 S
C122   H164    1.082   .     S
C122   N165    1.367   .     A
C122   C293    1.415   .     S
C123   O171    1.294   .     A
C123   O174    1.293   .     A
C123   C129    1.467   .     S
C124   O173    1.293   .     A
C124   O172    1.294   .     A
C124   C127    1.467   .     S
C125   C127    1.406   .     A
C125   F149    1.361   .     S
C125   C136    1.395   .     A
C126   F151    1.361   .     S
C126   C137    1.395   .     A
C126   C129    1.406   .     A
C127   C130    1.408   .     A
C128   O168    1.289   .     A
C128   C146    1.449   .     S
C128   O169    1.289   .     A
C129   C131    1.408   .     A
C130   F152    1.360   .     S
C130   C132    1.400   .     A
C131   C133    1.400   .     A
C131   F153    1.360   .     S
C132   C134    1.415   .     A
C132   C138    1.408   .     A
C133   C140    1.408   .     A
C133   C135    1.415   .     A
C134   C136    1.411   .     A
C134   C657    1.407   .     S
C135   C137    1.411   .     A
C135   C656    1.407   1_554 S
C136   C141    1.401   .     A
C137   C139    1.401   .     A
C138   F154    1.358   .     S
C138   C661    1.390   .     S
C139   H159    1.084   .     S
C139   C660    1.390   1_554 S
C140   F155    1.358   .     S
C140   C663    1.390   1_554 S
C141   H160    1.084   .     S
C141   C662    1.390   .     S
C142   F156    1.359   .     S
C143   F157    1.359   .     S
C143   C146    1.403   .     A
C143   C29     1.384   1_655 S
C144   C146    1.403   .     A
C144   F158    1.359   .     S
C144   C26     1.384   1_655 S
C145   F150    1.359   .     S
Cu147  Cu148   2.673   .     S
Cu147  O173    1.975   .     S
Cu147  O169    1.965   .     S
Cu147  N165    2.009   .     S
Cu147  O171    1.974   .     S
Cu147  O167    1.965   .     S
Cu148  O174    1.975   .     S
Cu148  N166    2.009   .     S
Cu148  O172    1.974   .     S
Cu148  O168    1.965   .     S
Cu148  O170    1.965   .     S
C175   O228    1.289   .     A
C175   O225    1.289   .     A
C175   C176    1.449   .     S
C176   C200    1.403   .     A
C176   C203    1.403   .     A
C177   N224    1.367   .     A
C177   H219    1.082   .     S
C178   N223    1.367   .     A
C178   H220    1.082   .     S
C178   C353    1.415   .     S
C179   H221    1.082   .     S
C179   N224    1.367   .     A
C180   H222    1.082   .     S
C180   N223    1.367   .     A
C180   C351    1.415   .     S
C181   O229    1.294   .     A
C181   O232    1.293   .     A
C181   C187    1.467   .     S
C182   O231    1.293   .     A
C182   O230    1.294   .     A
C182   C185    1.467   .     S
C183   C185    1.406   .     A
C183   F207    1.361   .     S
C183   C194    1.395   .     A
C184   F209    1.361   .     S
C184   C195    1.395   .     A
C184   C187    1.406   .     A
C185   C188    1.408   .     A
C186   O226    1.289   .     A
C186   C204    1.449   .     S
C186   O227    1.289   .     A
C187   C189    1.408   .     A
C188   F210    1.360   .     S
C188   C190    1.400   .     A
C189   C191    1.400   .     A
C189   F211    1.360   .     S
C190   C192    1.415   .     A
C190   C196    1.408   .     A
C191   C198    1.408   .     A
C191   C193    1.415   .     A
C192   C194    1.411   .     A
C192   C715    1.407   .     S
C193   C195    1.411   .     A
C193   C714    1.407   1_554 S
C194   C199    1.401   .     A
C195   C197    1.401   .     A
C196   F212    1.358   .     S
C196   C719    1.390   .     S
C197   H217    1.084   .     S
C197   C718    1.390   1_554 S
C198   F213    1.358   .     S
C198   C721    1.390   1_554 S
C199   H218    1.084   .     S
C199   C720    1.390   .     S
C200   F214    1.359   .     S
C200   C318    1.384   1_455 S
C201   F215    1.359   .     S
C201   C204    1.403   .     A
C201   C261    1.384   .     S
C202   C204    1.403   .     A
C202   F216    1.359   .     S
C202   C258    1.384   .     S
C203   F208    1.359   .     S
C203   C317    1.384   1_455 S
Cu205  Cu206   2.673   .     S
Cu205  O231    1.975   .     S
Cu205  O227    1.965   .     S
Cu205  N223    2.009   .     S
Cu205  O229    1.974   .     S
Cu205  O225    1.965   .     S
Cu206  O232    1.975   .     S
Cu206  N224    2.009   .     S
Cu206  O230    1.974   .     S
Cu206  O226    1.965   .     S
Cu206  O228    1.965   .     S
C233   O286    1.289   .     A
C233   O283    1.289   .     A
C233   C234    1.449   .     S
C234   C258    1.403   .     A
C234   C261    1.403   .     A
C235   N282    1.367   .     A
C235   H277    1.082   .     S
C236   N281    1.367   .     A
C236   H278    1.082   .     S
C236   C411    1.415   .     S
C237   H279    1.082   .     S
C237   N282    1.367   .     A
C238   H280    1.082   .     S
C238   N281    1.367   .     A
C238   C409    1.415   .     S
C239   O287    1.294   .     A
C239   O290    1.293   .     A
C239   C245    1.467   .     S
C240   O289    1.293   .     A
C240   O288    1.294   .     A
C240   C243    1.467   .     S
C241   C243    1.406   .     A
C241   F265    1.361   .     S
C241   C252    1.395   .     A
C242   F267    1.361   .     S
C242   C253    1.395   .     A
C242   C245    1.406   .     A
C243   C246    1.408   .     A
C244   O284    1.289   .     A
C244   C262    1.449   .     S
C244   O285    1.289   .     A
C245   C247    1.408   .     A
C246   F268    1.360   .     S
C246   C248    1.400   .     A
C247   C249    1.400   .     A
C247   F269    1.360   .     S
C248   C250    1.415   .     A
C248   C254    1.408   .     A
C249   C256    1.408   .     A
C249   C251    1.415   .     A
C250   C252    1.411   .     A
C250   C773    1.407   .     S
C251   C253    1.411   .     A
C251   C772    1.407   1_554 S
C252   C257    1.401   .     A
C253   C255    1.401   .     A
C254   F270    1.358   .     S
C254   C777    1.390   .     S
C255   H275    1.084   .     S
C255   C776    1.390   1_554 S
C256   F271    1.358   .     S
C256   C779    1.390   1_554 S
C257   H276    1.084   .     S
C257   C778    1.390   .     S
C258   F272    1.359   .     S
C259   F273    1.359   .     S
C259   C262    1.403   .     A
C259   C319    1.384   .     S
C260   C262    1.403   .     A
C260   F274    1.359   .     S
C260   C316    1.384   .     S
C261   F266    1.359   .     S
Cu263  Cu264   2.673   .     S
Cu263  O289    1.975   .     S
Cu263  O285    1.965   .     S
Cu263  N281    2.009   .     S
Cu263  O287    1.974   .     S
Cu263  O283    1.965   .     S
Cu264  O290    1.975   .     S
Cu264  N282    2.009   .     S
Cu264  O288    1.974   .     S
Cu264  O284    1.965   .     S
Cu264  O286    1.965   .     S
C291   O344    1.289   .     A
C291   O341    1.289   .     A
C291   C292    1.449   .     S
C292   C316    1.403   .     A
C292   C319    1.403   .     A
C293   N340    1.367   .     A
C293   H335    1.082   .     S
C294   N339    1.367   .     A
C294   H336    1.082   .     S
C294   C469    1.415   .     S
C295   H337    1.082   .     S
C295   N340    1.367   .     A
C296   H338    1.082   .     S
C296   N339    1.367   .     A
C296   C467    1.415   .     S
C297   O345    1.294   .     A
C297   O348    1.293   .     A
C297   C303    1.467   .     S
C298   O347    1.293   .     A
C298   O346    1.294   .     A
C298   C301    1.467   .     S
C299   C301    1.406   .     A
C299   F323    1.361   .     S
C299   C310    1.395   .     A
C300   F325    1.361   .     S
C300   C311    1.395   .     A
C300   C303    1.406   .     A
C301   C304    1.408   .     A
C302   O342    1.289   .     A
C302   C320    1.449   .     S
C302   O343    1.289   .     A
C303   C305    1.408   .     A
C304   F326    1.360   .     S
C304   C306    1.400   .     A
C305   C307    1.400   .     A
C305   F327    1.360   .     S
C306   C308    1.415   .     A
C306   C312    1.408   .     A
C307   C314    1.408   .     A
C307   C309    1.415   .     A
C308   C310    1.411   .     A
C308   C831    1.407   .     S
C309   C311    1.411   .     A
C309   C830    1.407   1_554 S
C310   C315    1.401   .     A
C311   C313    1.401   .     A
C312   F328    1.358   .     S
C312   C835    1.390   .     S
C313   H333    1.084   .     S
C313   C834    1.390   1_554 S
C314   F329    1.358   .     S
C314   C837    1.390   1_554 S
C315   H334    1.084   .     S
C315   C836    1.390   .     S
C316   F330    1.359   .     S
C317   F331    1.359   .     S
C317   C320    1.403   .     A
C317   C203    1.384   1_655 S
C318   C320    1.403   .     A
C318   F332    1.359   .     S
C318   C200    1.384   1_655 S
C319   F324    1.359   .     S
Cu321  Cu322   2.673   .     S
Cu321  O347    1.975   .     S
Cu321  O343    1.965   .     S
Cu321  N339    2.009   .     S
Cu321  O345    1.974   .     S
Cu321  O341    1.965   .     S
Cu322  O348    1.975   .     S
Cu322  N340    2.009   .     S
Cu322  O346    1.974   .     S
Cu322  O342    1.965   .     S
Cu322  O344    1.965   .     S
C349   O402    1.289   .     A
C349   O399    1.289   .     A
C349   C350    1.449   .     S
C350   C374    1.403   .     A
C350   C377    1.403   .     A
C351   N398    1.367   .     A
C351   H393    1.082   .     S
C352   N397    1.367   .     A
C352   H394    1.082   .     S
C352   C5      1.415   1_565 S
C353   H395    1.082   .     S
C353   N398    1.367   .     A
C354   H396    1.082   .     S
C354   N397    1.367   .     A
C354   C3      1.415   1_565 S
C355   O403    1.294   .     A
C355   O406    1.293   .     A
C355   C361    1.467   .     S
C356   O405    1.293   .     A
C356   O404    1.294   .     A
C356   C359    1.467   .     S
C357   C359    1.406   .     A
C357   F381    1.361   .     S
C357   C368    1.395   .     A
C358   F383    1.361   .     S
C358   C369    1.395   .     A
C358   C361    1.406   .     A
C359   C362    1.408   .     A
C360   O400    1.289   .     A
C360   C378    1.449   .     S
C360   O401    1.289   .     A
C361   C363    1.408   .     A
C362   F384    1.360   .     S
C362   C364    1.400   .     A
C363   C365    1.400   .     A
C363   F385    1.360   .     S
C364   C366    1.415   .     A
C364   C370    1.408   .     A
C365   C372    1.408   .     A
C365   C367    1.415   .     A
C366   C368    1.411   .     A
C366   C889    1.407   .     S
C367   C369    1.411   .     A
C367   C888    1.407   1_554 S
C368   C373    1.401   .     A
C369   C371    1.401   .     A
C370   F386    1.358   .     S
C370   C893    1.390   .     S
C371   H391    1.084   .     S
C371   C892    1.390   1_554 S
C372   F387    1.358   .     S
C372   C895    1.390   1_554 S
C373   H392    1.084   .     S
C373   C894    1.390   .     S
C374   F388    1.359   .     S
C374   C492    1.384   1_455 S
C375   F389    1.359   .     S
C375   C378    1.403   .     A
C375   C435    1.384   .     S
C376   C378    1.403   .     A
C376   F390    1.359   .     S
C376   C432    1.384   .     S
C377   F382    1.359   .     S
C377   C491    1.384   1_455 S
Cu379  Cu380   2.673   .     S
Cu379  O405    1.975   .     S
Cu379  O401    1.965   .     S
Cu379  N397    2.009   .     S
Cu379  O403    1.974   .     S
Cu379  O399    1.965   .     S
Cu380  O406    1.975   .     S
Cu380  N398    2.009   .     S
Cu380  O404    1.974   .     S
Cu380  O400    1.965   .     S
Cu380  O402    1.965   .     S
C407   O460    1.289   .     A
C407   O457    1.289   .     A
C407   C408    1.449   .     S
C408   C432    1.403   .     A
C408   C435    1.403   .     A
C409   N456    1.367   .     A
C409   H451    1.082   .     S
C410   N455    1.367   .     A
C410   H452    1.082   .     S
C410   C63     1.415   1_565 S
C411   H453    1.082   .     S
C411   N456    1.367   .     A
C412   H454    1.082   .     S
C412   N455    1.367   .     A
C412   C61     1.415   1_565 S
C413   O461    1.294   .     A
C413   O464    1.293   .     A
C413   C419    1.467   .     S
C414   O463    1.293   .     A
C414   O462    1.294   .     A
C414   C417    1.467   .     S
C415   C417    1.406   .     A
C415   F439    1.361   .     S
C415   C426    1.395   .     A
C416   F441    1.361   .     S
C416   C427    1.395   .     A
C416   C419    1.406   .     A
C417   C420    1.408   .     A
C418   O458    1.289   .     A
C418   C436    1.449   .     S
C418   O459    1.289   .     A
C419   C421    1.408   .     A
C420   F442    1.360   .     S
C420   C422    1.400   .     A
C421   C423    1.400   .     A
C421   F443    1.360   .     S
C422   C424    1.415   .     A
C422   C428    1.408   .     A
C423   C430    1.408   .     A
C423   C425    1.415   .     A
C424   C426    1.411   .     A
C424   C947    1.407   .     S
C425   C427    1.411   .     A
C425   C946    1.407   1_554 S
C426   C431    1.401   .     A
C427   C429    1.401   .     A
C428   F444    1.358   .     S
C428   C951    1.390   .     S
C429   H449    1.084   .     S
C429   C950    1.390   1_554 S
C430   F445    1.358   .     S
C430   C953    1.390   1_554 S
C431   H450    1.084   .     S
C431   C952    1.390   .     S
C432   F446    1.359   .     S
C433   F447    1.359   .     S
C433   C436    1.403   .     A
C433   C493    1.384   .     S
C434   C436    1.403   .     A
C434   F448    1.359   .     S
C434   C490    1.384   .     S
C435   F440    1.359   .     S
Cu437  Cu438   2.673   .     S
Cu437  O463    1.975   .     S
Cu437  O459    1.965   .     S
Cu437  N455    2.009   .     S
Cu437  O461    1.974   .     S
Cu437  O457    1.965   .     S
Cu438  O464    1.975   .     S
Cu438  N456    2.009   .     S
Cu438  O462    1.974   .     S
Cu438  O458    1.965   .     S
Cu438  O460    1.965   .     S
C465   O518    1.289   .     A
C465   O515    1.289   .     A
C465   C466    1.449   .     S
C466   C490    1.403   .     A
C466   C493    1.403   .     A
C467   N514    1.367   .     A
C467   H509    1.082   .     S
C468   N513    1.367   .     A
C468   H510    1.082   .     S
C468   C121    1.415   1_565 S
C469   H511    1.082   .     S
C469   N514    1.367   .     A
C470   H512    1.082   .     S
C470   N513    1.367   .     A
C470   C119    1.415   1_565 S
C471   O519    1.294   .     A
C471   O522    1.293   .     A
C471   C477    1.467   .     S
C472   O521    1.293   .     A
C472   O520    1.294   .     A
C472   C475    1.467   .     S
C473   C475    1.406   .     A
C473   F497    1.361   .     S
C473   C484    1.395   .     A
C474   F499    1.361   .     S
C474   C485    1.395   .     A
C474   C477    1.406   .     A
C475   C478    1.408   .     A
C476   O516    1.289   .     A
C476   C494    1.449   .     S
C476   O517    1.289   .     A
C477   C479    1.408   .     A
C478   F500    1.360   .     S
C478   C480    1.400   .     A
C479   C481    1.400   .     A
C479   F501    1.360   .     S
C480   C482    1.415   .     A
C480   C486    1.408   .     A
C481   C488    1.408   .     A
C481   C483    1.415   .     A
C482   C484    1.411   .     A
C482   C1005   1.407   .     S
C483   C485    1.411   .     A
C483   C1004   1.407   1_554 S
C484   C489    1.401   .     A
C485   C487    1.401   .     A
C486   F502    1.358   .     S
C486   C1009   1.390   .     S
C487   H507    1.084   .     S
C487   C1008   1.390   1_554 S
C488   F503    1.358   .     S
C488   C1011   1.390   1_554 S
C489   H508    1.084   .     S
C489   C1010   1.390   .     S
C490   F504    1.359   .     S
C491   F505    1.359   .     S
C491   C494    1.403   .     A
C491   C377    1.384   1_655 S
C492   C494    1.403   .     A
C492   F506    1.359   .     S
C492   C374    1.384   1_655 S
C493   F498    1.359   .     S
Cu495  Cu496   2.673   .     S
Cu495  O521    1.975   .     S
Cu495  O517    1.965   .     S
Cu495  N513    2.009   .     S
Cu495  O519    1.974   .     S
Cu495  O515    1.965   .     S
Cu496  O522    1.975   .     S
Cu496  N514    2.009   .     S
Cu496  O520    1.974   .     S
Cu496  O516    1.965   .     S
Cu496  O518    1.965   .     S
C523   O576    1.289   .     A
C523   O573    1.289   .     A
C523   C524    1.449   .     S
C524   C548    1.403   .     A
C524   C551    1.403   .     A
C525   N572    1.367   .     A
C525   H567    1.082   .     S
C525   C876    1.415   1_545 S
C526   N571    1.367   .     A
C526   H568    1.082   .     S
C526   C701    1.415   .     S
C527   H569    1.082   .     S
C527   N572    1.367   .     A
C527   C874    1.415   1_545 S
C528   H570    1.082   .     S
C528   N571    1.367   .     A
C528   C699    1.415   .     S
C529   O577    1.294   .     A
C529   O580    1.293   .     A
C529   C535    1.467   .     S
C530   O579    1.293   .     A
C530   O578    1.294   .     A
C530   C533    1.467   .     S
C531   C533    1.406   .     A
C531   F555    1.361   .     S
C531   C542    1.395   .     A
C532   F557    1.361   .     S
C532   C543    1.395   .     A
C532   C535    1.406   .     A
C533   C536    1.408   .     A
C534   O574    1.289   .     A
C534   C552    1.449   .     S
C534   O575    1.289   .     A
C535   C537    1.408   .     A
C536   F558    1.360   .     S
C536   C538    1.400   .     A
C537   C539    1.400   .     A
C537   F559    1.360   .     S
C538   C540    1.415   .     A
C538   C544    1.408   .     A
C539   C546    1.408   .     A
C539   C541    1.415   .     A
C540   C542    1.411   .     A
C540   C19     1.407   1_556 S
C541   C543    1.411   .     A
C542   C547    1.401   .     A
C543   C545    1.401   .     A
C544   F560    1.358   .     S
C544   C23     1.390   1_556 S
C545   H565    1.084   .     S
C546   F561    1.358   .     S
C547   H566    1.084   .     S
C547   C24     1.390   1_556 S
C548   F562    1.359   .     S
C548   C666    1.384   1_455 S
C549   F563    1.359   .     S
C549   C552    1.403   .     A
C549   C609    1.384   .     S
C550   C552    1.403   .     A
C550   F564    1.359   .     S
C550   C606    1.384   .     S
C551   F556    1.359   .     S
C551   C665    1.384   1_455 S
Cu553  Cu554   2.673   .     S
Cu553  O579    1.975   .     S
Cu553  O575    1.965   .     S
Cu553  N571    2.009   .     S
Cu553  O577    1.974   .     S
Cu553  O573    1.965   .     S
Cu554  O580    1.975   .     S
Cu554  N572    2.009   .     S
Cu554  O578    1.974   .     S
Cu554  O574    1.965   .     S
Cu554  O576    1.965   .     S
C581   O634    1.289   .     A
C581   O631    1.289   .     A
C581   C582    1.449   .     S
C582   C606    1.403   .     A
C582   C609    1.403   .     A
C583   N630    1.367   .     A
C583   H625    1.082   .     S
C583   C934    1.415   1_545 S
C584   N629    1.367   .     A
C584   H626    1.082   .     S
C584   C759    1.415   .     S
C585   H627    1.082   .     S
C585   N630    1.367   .     A
C585   C932    1.415   1_545 S
C586   H628    1.082   .     S
C586   N629    1.367   .     A
C586   C757    1.415   .     S
C587   O635    1.294   .     A
C587   O638    1.293   .     A
C587   C593    1.467   .     S
C588   O637    1.293   .     A
C588   O636    1.294   .     A
C588   C591    1.467   .     S
C589   C591    1.406   .     A
C589   F613    1.361   .     S
C589   C600    1.395   .     A
C590   F615    1.361   .     S
C590   C601    1.395   .     A
C590   C593    1.406   .     A
C591   C594    1.408   .     A
C592   O632    1.289   .     A
C592   C610    1.449   .     S
C592   O633    1.289   .     A
C593   C595    1.408   .     A
C594   F616    1.360   .     S
C594   C596    1.400   .     A
C595   C597    1.400   .     A
C595   F617    1.360   .     S
C596   C598    1.415   .     A
C596   C602    1.408   .     A
C597   C604    1.408   .     A
C597   C599    1.415   .     A
C598   C600    1.411   .     A
C598   C77     1.407   1_556 S
C599   C601    1.411   .     A
C600   C605    1.401   .     A
C601   C603    1.401   .     A
C602   F618    1.358   .     S
C602   C81     1.390   1_556 S
C603   H623    1.084   .     S
C604   F619    1.358   .     S
C605   H624    1.084   .     S
C605   C82     1.390   1_556 S
C606   F620    1.359   .     S
C607   F621    1.359   .     S
C607   C610    1.403   .     A
C607   C667    1.384   .     S
C608   C610    1.403   .     A
C608   F622    1.359   .     S
C608   C664    1.384   .     S
C609   F614    1.359   .     S
Cu611  Cu612   2.673   .     S
Cu611  O637    1.975   .     S
Cu611  O633    1.965   .     S
Cu611  N629    2.009   .     S
Cu611  O635    1.974   .     S
Cu611  O631    1.965   .     S
Cu612  O638    1.975   .     S
Cu612  N630    2.009   .     S
Cu612  O636    1.974   .     S
Cu612  O632    1.965   .     S
Cu612  O634    1.965   .     S
C639   O692    1.289   .     A
C639   O689    1.289   .     A
C639   C640    1.449   .     S
C640   C664    1.403   .     A
C640   C667    1.403   .     A
C641   N688    1.367   .     A
C641   H683    1.082   .     S
C641   C992    1.415   1_545 S
C642   N687    1.367   .     A
C642   H684    1.082   .     S
C642   C817    1.415   .     S
C643   H685    1.082   .     S
C643   N688    1.367   .     A
C643   C990    1.415   1_545 S
C644   H686    1.082   .     S
C644   N687    1.367   .     A
C644   C815    1.415   .     S
C645   O693    1.294   .     A
C645   O696    1.293   .     A
C645   C651    1.467   .     S
C646   O695    1.293   .     A
C646   O694    1.294   .     A
C646   C649    1.467   .     S
C647   C649    1.406   .     A
C647   F671    1.361   .     S
C647   C658    1.395   .     A
C648   F673    1.361   .     S
C648   C659    1.395   .     A
C648   C651    1.406   .     A
C649   C652    1.408   .     A
C650   O690    1.289   .     A
C650   C668    1.449   .     S
C650   O691    1.289   .     A
C651   C653    1.408   .     A
C652   F674    1.360   .     S
C652   C654    1.400   .     A
C653   C655    1.400   .     A
C653   F675    1.360   .     S
C654   C656    1.415   .     A
C654   C660    1.408   .     A
C655   C662    1.408   .     A
C655   C657    1.415   .     A
C656   C658    1.411   .     A
C656   C135    1.407   1_556 S
C657   C659    1.411   .     A
C658   C663    1.401   .     A
C659   C661    1.401   .     A
C660   F676    1.358   .     S
C660   C139    1.390   1_556 S
C661   H681    1.084   .     S
C662   F677    1.358   .     S
C663   H682    1.084   .     S
C663   C140    1.390   1_556 S
C664   F678    1.359   .     S
C665   F679    1.359   .     S
C665   C668    1.403   .     A
C665   C551    1.384   1_655 S
C666   C668    1.403   .     A
C666   F680    1.359   .     S
C666   C548    1.384   1_655 S
C667   F672    1.359   .     S
Cu669  Cu670   2.673   .     S
Cu669  O695    1.975   .     S
Cu669  O691    1.965   .     S
Cu669  N687    2.009   .     S
Cu669  O693    1.974   .     S
Cu669  O689    1.965   .     S
Cu670  O696    1.975   .     S
Cu670  N688    2.009   .     S
Cu670  O694    1.974   .     S
Cu670  O690    1.965   .     S
Cu670  O692    1.965   .     S
C697   O750    1.289   .     A
C697   O747    1.289   .     A
C697   C698    1.449   .     S
C698   C722    1.403   .     A
C698   C725    1.403   .     A
C699   N746    1.367   .     A
C699   H741    1.082   .     S
C700   N745    1.367   .     A
C700   H742    1.082   .     S
C700   C875    1.415   .     S
C701   H743    1.082   .     S
C701   N746    1.367   .     A
C702   H744    1.082   .     S
C702   N745    1.367   .     A
C702   C873    1.415   .     S
C703   O751    1.294   .     A
C703   O754    1.293   .     A
C703   C709    1.467   .     S
C704   O753    1.293   .     A
C704   O752    1.294   .     A
C704   C707    1.467   .     S
C705   C707    1.406   .     A
C705   F729    1.361   .     S
C705   C716    1.395   .     A
C706   F731    1.361   .     S
C706   C717    1.395   .     A
C706   C709    1.406   .     A
C707   C710    1.408   .     A
C708   O748    1.289   .     A
C708   C726    1.449   .     S
C708   O749    1.289   .     A
C709   C711    1.408   .     A
C710   F732    1.360   .     S
C710   C712    1.400   .     A
C711   C713    1.400   .     A
C711   F733    1.360   .     S
C712   C714    1.415   .     A
C712   C718    1.408   .     A
C713   C720    1.408   .     A
C713   C715    1.415   .     A
C714   C716    1.411   .     A
C714   C193    1.407   1_556 S
C715   C717    1.411   .     A
C716   C721    1.401   .     A
C717   C719    1.401   .     A
C718   F734    1.358   .     S
C718   C197    1.390   1_556 S
C719   H739    1.084   .     S
C720   F735    1.358   .     S
C721   H740    1.084   .     S
C721   C198    1.390   1_556 S
C722   F736    1.359   .     S
C722   C840    1.384   1_455 S
C723   F737    1.359   .     S
C723   C726    1.403   .     A
C723   C783    1.384   .     S
C724   C726    1.403   .     A
C724   F738    1.359   .     S
C724   C780    1.384   .     S
C725   F730    1.359   .     S
C725   C839    1.384   1_455 S
Cu727  Cu728   2.673   .     S
Cu727  O753    1.975   .     S
Cu727  O749    1.965   .     S
Cu727  N745    2.009   .     S
Cu727  O751    1.974   .     S
Cu727  O747    1.965   .     S
Cu728  O754    1.975   .     S
Cu728  N746    2.009   .     S
Cu728  O752    1.974   .     S
Cu728  O748    1.965   .     S
Cu728  O750    1.965   .     S
C755   O808    1.289   .     A
C755   O805    1.289   .     A
C755   C756    1.449   .     S
C756   C780    1.403   .     A
C756   C783    1.403   .     A
C757   N804    1.367   .     A
C757   H799    1.082   .     S
C758   N803    1.367   .     A
C758   H800    1.082   .     S
C758   C933    1.415   .     S
C759   H801    1.082   .     S
C759   N804    1.367   .     A
C760   H802    1.082   .     S
C760   N803    1.367   .     A
C760   C931    1.415   .     S
C761   O809    1.294   .     A
C761   O812    1.293   .     A
C761   C767    1.467   .     S
C762   O811    1.293   .     A
C762   O810    1.294   .     A
C762   C765    1.467   .     S
C763   C765    1.406   .     A
C763   F787    1.361   .     S
C763   C774    1.395   .     A
C764   F789    1.361   .     S
C764   C775    1.395   .     A
C764   C767    1.406   .     A
C765   C768    1.408   .     A
C766   O806    1.289   .     A
C766   C784    1.449   .     S
C766   O807    1.289   .     A
C767   C769    1.408   .     A
C768   F790    1.360   .     S
C768   C770    1.400   .     A
C769   C771    1.400   .     A
C769   F791    1.360   .     S
C770   C772    1.415   .     A
C770   C776    1.408   .     A
C771   C778    1.408   .     A
C771   C773    1.415   .     A
C772   C774    1.411   .     A
C772   C251    1.407   1_556 S
C773   C775    1.411   .     A
C774   C779    1.401   .     A
C775   C777    1.401   .     A
C776   F792    1.358   .     S
C776   C255    1.390   1_556 S
C777   H797    1.084   .     S
C778   F793    1.358   .     S
C779   H798    1.084   .     S
C779   C256    1.390   1_556 S
C780   F794    1.359   .     S
C781   F795    1.359   .     S
C781   C784    1.403   .     A
C781   C841    1.384   .     S
C782   C784    1.403   .     A
C782   F796    1.359   .     S
C782   C838    1.384   .     S
C783   F788    1.359   .     S
Cu785  Cu786   2.673   .     S
Cu785  O811    1.975   .     S
Cu785  O807    1.965   .     S
Cu785  N803    2.009   .     S
Cu785  O809    1.974   .     S
Cu785  O805    1.965   .     S
Cu786  O812    1.975   .     S
Cu786  N804    2.009   .     S
Cu786  O810    1.974   .     S
Cu786  O806    1.965   .     S
Cu786  O808    1.965   .     S
C813   O866    1.289   .     A
C813   O863    1.289   .     A
C813   C814    1.449   .     S
C814   C838    1.403   .     A
C814   C841    1.403   .     A
C815   N862    1.367   .     A
C815   H857    1.082   .     S
C816   N861    1.367   .     A
C816   H858    1.082   .     S
C816   C991    1.415   .     S
C817   H859    1.082   .     S
C817   N862    1.367   .     A
C818   H860    1.082   .     S
C818   N861    1.367   .     A
C818   C989    1.415   .     S
C819   O867    1.294   .     A
C819   O870    1.293   .     A
C819   C825    1.467   .     S
C820   O869    1.293   .     A
C820   O868    1.294   .     A
C820   C823    1.467   .     S
C821   C823    1.406   .     A
C821   F845    1.361   .     S
C821   C832    1.395   .     A
C822   F847    1.361   .     S
C822   C833    1.395   .     A
C822   C825    1.406   .     A
C823   C826    1.408   .     A
C824   O864    1.289   .     A
C824   C842    1.449   .     S
C824   O865    1.289   .     A
C825   C827    1.408   .     A
C826   F848    1.360   .     S
C826   C828    1.400   .     A
C827   C829    1.400   .     A
C827   F849    1.360   .     S
C828   C830    1.415   .     A
C828   C834    1.408   .     A
C829   C836    1.408   .     A
C829   C831    1.415   .     A
C830   C832    1.411   .     A
C830   C309    1.407   1_556 S
C831   C833    1.411   .     A
C832   C837    1.401   .     A
C833   C835    1.401   .     A
C834   F850    1.358   .     S
C834   C313    1.390   1_556 S
C835   H855    1.084   .     S
C836   F851    1.358   .     S
C837   H856    1.084   .     S
C837   C314    1.390   1_556 S
C838   F852    1.359   .     S
C839   F853    1.359   .     S
C839   C842    1.403   .     A
C839   C725    1.384   1_655 S
C840   C842    1.403   .     A
C840   F854    1.359   .     S
C840   C722    1.384   1_655 S
C841   F846    1.359   .     S
Cu843  Cu844   2.673   .     S
Cu843  O869    1.975   .     S
Cu843  O865    1.965   .     S
Cu843  N861    2.009   .     S
Cu843  O867    1.974   .     S
Cu843  O863    1.965   .     S
Cu844  O870    1.975   .     S
Cu844  N862    2.009   .     S
Cu844  O868    1.974   .     S
Cu844  O864    1.965   .     S
Cu844  O866    1.965   .     S
C871   O924    1.289   .     A
C871   O921    1.289   .     A
C871   C872    1.449   .     S
C872   C896    1.403   .     A
C872   C899    1.403   .     A
C873   N920    1.367   .     A
C873   H915    1.082   .     S
C874   N919    1.367   .     A
C874   H916    1.082   .     S
C874   C527    1.415   1_565 S
C875   H917    1.082   .     S
C875   N920    1.367   .     A
C876   H918    1.082   .     S
C876   N919    1.367   .     A
C876   C525    1.415   1_565 S
C877   O925    1.294   .     A
C877   O928    1.293   .     A
C877   C883    1.467   .     S
C878   O927    1.293   .     A
C878   O926    1.294   .     A
C878   C881    1.467   .     S
C879   C881    1.406   .     A
C879   F903    1.361   .     S
C879   C890    1.395   .     A
C880   F905    1.361   .     S
C880   C891    1.395   .     A
C880   C883    1.406   .     A
C881   C884    1.408   .     A
C882   O922    1.289   .     A
C882   C900    1.449   .     S
C882   O923    1.289   .     A
C883   C885    1.408   .     A
C884   F906    1.360   .     S
C884   C886    1.400   .     A
C885   C887    1.400   .     A
C885   F907    1.360   .     S
C886   C888    1.415   .     A
C886   C892    1.408   .     A
C887   C894    1.408   .     A
C887   C889    1.415   .     A
C888   C890    1.411   .     A
C888   C367    1.407   1_556 S
C889   C891    1.411   .     A
C890   C895    1.401   .     A
C891   C893    1.401   .     A
C892   F908    1.358   .     S
C892   C371    1.390   1_556 S
C893   H913    1.084   .     S
C894   F909    1.358   .     S
C895   H914    1.084   .     S
C895   C372    1.390   1_556 S
C896   F910    1.359   .     S
C896   C1014   1.384   1_455 S
C897   F911    1.359   .     S
C897   C900    1.403   .     A
C897   C957    1.384   .     S
C898   C900    1.403   .     A
C898   F912    1.359   .     S
C898   C954    1.384   .     S
C899   F904    1.359   .     S
C899   C1013   1.384   1_455 S
Cu901  Cu902   2.673   .     S
Cu901  O927    1.975   .     S
Cu901  O923    1.965   .     S
Cu901  N919    2.009   .     S
Cu901  O925    1.974   .     S
Cu901  O921    1.965   .     S
Cu902  O928    1.975   .     S
Cu902  N920    2.009   .     S
Cu902  O926    1.974   .     S
Cu902  O922    1.965   .     S
Cu902  O924    1.965   .     S
C929   O982    1.289   .     A
C929   O979    1.289   .     A
C929   C930    1.449   .     S
C930   C954    1.403   .     A
C930   C957    1.403   .     A
C931   N978    1.367   .     A
C931   H973    1.082   .     S
C932   N977    1.367   .     A
C932   H974    1.082   .     S
C932   C585    1.415   1_565 S
C933   H975    1.082   .     S
C933   N978    1.367   .     A
C934   H976    1.082   .     S
C934   N977    1.367   .     A
C934   C583    1.415   1_565 S
C935   O983    1.294   .     A
C935   O986    1.293   .     A
C935   C941    1.467   .     S
C936   O985    1.293   .     A
C936   O984    1.294   .     A
C936   C939    1.467   .     S
C937   C939    1.406   .     A
C937   F961    1.361   .     S
C937   C948    1.395   .     A
C938   F963    1.361   .     S
C938   C949    1.395   .     A
C938   C941    1.406   .     A
C939   C942    1.408   .     A
C940   O980    1.289   .     A
C940   C958    1.449   .     S
C940   O981    1.289   .     A
C941   C943    1.408   .     A
C942   F964    1.360   .     S
C942   C944    1.400   .     A
C943   C945    1.400   .     A
C943   F965    1.360   .     S
C944   C946    1.415   .     A
C944   C950    1.408   .     A
C945   C952    1.408   .     A
C945   C947    1.415   .     A
C946   C948    1.411   .     A
C946   C425    1.407   1_556 S
C947   C949    1.411   .     A
C948   C953    1.401   .     A
C949   C951    1.401   .     A
C950   F966    1.358   .     S
C950   C429    1.390   1_556 S
C951   H971    1.084   .     S
C952   F967    1.358   .     S
C953   H972    1.084   .     S
C953   C430    1.390   1_556 S
C954   F968    1.359   .     S
C955   F969    1.359   .     S
C955   C958    1.403   .     A
C955   C1015   1.384   .     S
C956   C958    1.403   .     A
C956   F970    1.359   .     S
C956   C1012   1.384   .     S
C957   F962    1.359   .     S
Cu959  Cu960   2.673   .     S
Cu959  O985    1.975   .     S
Cu959  O981    1.965   .     S
Cu959  N977    2.009   .     S
Cu959  O983    1.974   .     S
Cu959  O979    1.965   .     S
Cu960  O986    1.975   .     S
Cu960  N978    2.009   .     S
Cu960  O984    1.974   .     S
Cu960  O980    1.965   .     S
Cu960  O982    1.965   .     S
C987   O1040   1.289   .     A
C987   O1037   1.289   .     A
C987   C988    1.449   .     S
C988   C1012   1.403   .     A
C988   C1015   1.403   .     A
C989   N1036   1.367   .     A
C989   H1031   1.082   .     S
C990   N1035   1.367   .     A
C990   H1032   1.082   .     S
C990   C643    1.415   1_565 S
C991   H1033   1.082   .     S
C991   N1036   1.367   .     A
C992   H1034   1.082   .     S
C992   N1035   1.367   .     A
C992   C641    1.415   1_565 S
C993   O1041   1.294   .     A
C993   O1044   1.293   .     A
C993   C999    1.467   .     S
C994   O1043   1.293   .     A
C994   O1042   1.294   .     A
C994   C997    1.467   .     S
C995   C997    1.406   .     A
C995   F1019   1.361   .     S
C995   C1006   1.395   .     A
C996   F1021   1.361   .     S
C996   C1007   1.395   .     A
C996   C999    1.406   .     A
C997   C1000   1.408   .     A
C998   O1038   1.289   .     A
C998   C1016   1.449   .     S
C998   O1039   1.289   .     A
C999   C1001   1.408   .     A
C1000  F1022   1.360   .     S
C1000  C1002   1.400   .     A
C1001  C1003   1.400   .     A
C1001  F1023   1.360   .     S
C1002  C1004   1.415   .     A
C1002  C1008   1.408   .     A
C1003  C1010   1.408   .     A
C1003  C1005   1.415   .     A
C1004  C1006   1.411   .     A
C1004  C483    1.407   1_556 S
C1005  C1007   1.411   .     A
C1006  C1011   1.401   .     A
C1007  C1009   1.401   .     A
C1008  F1024   1.358   .     S
C1008  C487    1.390   1_556 S
C1009  H1029   1.084   .     S
C1010  F1025   1.358   .     S
C1011  H1030   1.084   .     S
C1011  C488    1.390   1_556 S
C1012  F1026   1.359   .     S
C1013  F1027   1.359   .     S
C1013  C1016   1.403   .     A
C1013  C899    1.384   1_655 S
C1014  C1016   1.403   .     A
C1014  F1028   1.359   .     S
C1014  C896    1.384   1_655 S
C1015  F1020   1.359   .     S
Cu1017 Cu1018  2.673   .     S
Cu1017 O1043   1.975   .     S
Cu1017 O1039   1.965   .     S
Cu1017 N1035   2.009   .     S
Cu1017 O1041   1.974   .     S
Cu1017 O1037   1.965   .     S
Cu1018 O1044   1.975   .     S
Cu1018 N1036   2.009   .     S
Cu1018 O1042   1.974   .     S
Cu1018 O1038   1.965   .     S
Cu1018 O1040   1.965   .     S
