data_str_m2_o2_o5_pcu_sym.75
_audit_creation_date              2020-01-03
_audit_creation_method            'Materials Studio'
_symmetry_space_group_name_H-M    'P1'
_symmetry_Int_Tables_number       1
_symmetry_cell_setting            triclinic
loop_
_symmetry_equiv_pos_as_xyz
  x,y,z
_cell_length_a                    30.4788
_cell_length_b                    27.9839
_cell_length_c                    27.2879
_cell_angle_alpha                 89.9988
_cell_angle_beta                  95.1664
_cell_angle_gamma                 90.0016
loop_
_atom_site_label
_atom_site_type_symbol
_atom_site_fract_x
_atom_site_fract_y
_atom_site_fract_z
_atom_site_U_iso_or_equiv
_atom_site_adp_type
_atom_site_occupancy
C1     C     0.16512   0.25009   0.16904   0.00000  Uiso   1.00
C2     C     0.25872   0.44691   0.21045   0.00000  Uiso   1.00
C3     C     0.24980   0.25000   0.07357   0.00000  Uiso   1.00
C4     C     0.25020   0.25000   0.25976   0.00000  Uiso   1.00
C5     C     0.24998   0.02737   0.16665   0.00000  Uiso   1.00
C6     C     0.24997   0.47302   0.16666   0.00000  Uiso   1.00
C7     C     0.24993   0.25003   0.02184   0.00000  Uiso   1.00
C8     C     0.25007   0.25003   0.31149   0.00000  Uiso   1.00
C9     C     0.04537   0.28722   0.15301   0.00000  Uiso   1.00
C10    C     0.45079   0.20726   0.14712   0.00000  Uiso   1.00
C11    C     0.45463   0.28721   0.18034   0.00000  Uiso   1.00
C12    C     0.33488   0.25009   0.16429   0.00000  Uiso   1.00
C13    C     0.04921   0.20725   0.18618   0.00000  Uiso   1.00
C14    C     0.09084   0.29065   0.15787   0.00000  Uiso   1.00
C15    C     0.40478   0.20935   0.14354   0.00000  Uiso   1.00
C16    C     0.40916   0.29065   0.17547   0.00000  Uiso   1.00
C17    C     0.09522   0.20934   0.18977   0.00000  Uiso   1.00
C18    C     0.11681   0.25018   0.17246   0.00000  Uiso   1.00
C19    C     0.38319   0.25018   0.16087   0.00000  Uiso   1.00
C20    C     0.02415   0.24592   0.16714   0.00000  Uiso   1.00
C21    C     0.47585   0.24592   0.16618   0.00000  Uiso   1.00
C22    C     0.31975   0.12773   0.22199   0.00000  Uiso   1.00
C23    C     0.28520   0.10399   0.18915   0.00000  Uiso   1.00
C24    C     0.21127   0.37332   0.08167   0.00000  Uiso   1.00
C25    C     0.18031   0.12775   0.11126   0.00000  Uiso   1.00
C26    C     0.28878   0.37335   0.25165   0.00000  Uiso   1.00
C27    C     0.23587   0.39639   0.12462   0.00000  Uiso   1.00
C28    C     0.21480   0.10401   0.14416   0.00000  Uiso   1.00
C29    C     0.26412   0.39640   0.20871   0.00000  Uiso   1.00
C30    C     0.28759   0.05354   0.18442   0.00000  Uiso   1.00
C31    C     0.24121   0.44690   0.12287   0.00000  Uiso   1.00
C32    C     0.21238   0.05356   0.14889   0.00000  Uiso   1.00
Cl33   Cl    0.11154   0.34862   0.15039   0.00000  Uiso   1.00
Cl34   Cl    0.37619   0.16294   0.11057   0.00000  Uiso   1.00
Cl35   Cl    0.38847   0.34862   0.18298   0.00000  Uiso   1.00
Cl36   Cl    0.12380   0.16290   0.22271   0.00000  Uiso   1.00
Cl37   Cl    0.33780   0.02318   0.20108   0.00000  Uiso   1.00
Cl38   Cl    0.23647   0.47802   0.06598   0.00000  Uiso   1.00
Cl39   Cl    0.16216   0.02325   0.13221   0.00000  Uiso   1.00
Cl40   Cl    0.26342   0.47806   0.26732   0.00000  Uiso   1.00
Cu41   Cu    0.25000   0.29821   0.16667   0.00000  Uiso   1.00
Cu42   Cu    0.25000   0.20178   0.16667   0.00000  Uiso   1.00
H43    H     0.02638   0.31795   0.13937   0.00000  Uiso   1.00
H44    H     0.46697   0.17626   0.13321   0.00000  Uiso   1.00
H45    H     0.47363   0.31793   0.19400   0.00000  Uiso   1.00
H46    H     0.03302   0.17624   0.20008   0.00000  Uiso   1.00
H47    H     0.38431   0.14253   0.23733   0.00000  Uiso   1.00
H48    H     0.20248   0.36465   0.00818   0.00000  Uiso   1.00
H49    H     0.11579   0.14267   0.09585   0.00000  Uiso   1.00
H50    H     0.29781   0.36486   0.32515   0.00000  Uiso   1.00
N51    N     0.25000   0.12934   0.16667   0.00000  Uiso   1.00
N52    N     0.25000   0.37065   0.16667   0.00000  Uiso   1.00
O53    O     0.18573   0.29071   0.16667   0.00000  Uiso   1.00
O54    O     0.36376   0.12568   0.21160   0.00000  Uiso   1.00
O55    O     0.18059   0.34672   0.08758   0.00000  Uiso   1.00
O56    O     0.22223   0.38229   0.03408   0.00000  Uiso   1.00
O57    O     0.18986   0.14608   0.07305   0.00000  Uiso   1.00
O58    O     0.13629   0.12585   0.12164   0.00000  Uiso   1.00
O59    O     0.31936   0.34663   0.24568   0.00000  Uiso   1.00
O60    O     0.27802   0.38250   0.29928   0.00000  Uiso   1.00
O61    O     0.31427   0.20928   0.16666   0.00000  Uiso   1.00
O62    O     0.31427   0.29071   0.16666   0.00000  Uiso   1.00
O63    O     0.18573   0.20928   0.16667   0.00000  Uiso   1.00
O64    O     0.25000   0.29071   0.09613   0.00000  Uiso   1.00
O65    O     0.25000   0.20929   0.23720   0.00000  Uiso   1.00
O66    O     0.25000   0.29071   0.23720   0.00000  Uiso   1.00
O67    O     0.25000   0.20929   0.09613   0.00000  Uiso   1.00
O68    O     0.31025   0.14620   0.26016   0.00000  Uiso   1.00
C69    C     0.66512   0.25009   0.16904   0.00000  Uiso   1.00
C70    C     0.75872   0.44691   0.21045   0.00000  Uiso   1.00
C71    C     0.74980   0.25000   0.07357   0.00000  Uiso   1.00
C72    C     0.75020   0.25000   0.25976   0.00000  Uiso   1.00
C73    C     0.74998   0.02737   0.16665   0.00000  Uiso   1.00
C74    C     0.74997   0.47302   0.16666   0.00000  Uiso   1.00
C75    C     0.74993   0.25003   0.02184   0.00000  Uiso   1.00
C76    C     0.75007   0.25003   0.31149   0.00000  Uiso   1.00
C77    C     0.54537   0.28722   0.15301   0.00000  Uiso   1.00
C78    C     0.95079   0.20726   0.14712   0.00000  Uiso   1.00
C79    C     0.95463   0.28721   0.18034   0.00000  Uiso   1.00
C80    C     0.83488   0.25009   0.16429   0.00000  Uiso   1.00
C81    C     0.54921   0.20725   0.18618   0.00000  Uiso   1.00
C82    C     0.59084   0.29065   0.15787   0.00000  Uiso   1.00
C83    C     0.90478   0.20935   0.14354   0.00000  Uiso   1.00
C84    C     0.90916   0.29065   0.17547   0.00000  Uiso   1.00
C85    C     0.59522   0.20934   0.18977   0.00000  Uiso   1.00
C86    C     0.61681   0.25018   0.17246   0.00000  Uiso   1.00
C87    C     0.88319   0.25018   0.16087   0.00000  Uiso   1.00
C88    C     0.52415   0.24592   0.16714   0.00000  Uiso   1.00
C89    C     0.97585   0.24592   0.16618   0.00000  Uiso   1.00
C90    C     0.81975   0.12773   0.22199   0.00000  Uiso   1.00
C91    C     0.78520   0.10399   0.18915   0.00000  Uiso   1.00
C92    C     0.71127   0.37332   0.08167   0.00000  Uiso   1.00
C93    C     0.68031   0.12775   0.11126   0.00000  Uiso   1.00
C94    C     0.78878   0.37335   0.25165   0.00000  Uiso   1.00
C95    C     0.73587   0.39639   0.12462   0.00000  Uiso   1.00
C96    C     0.71480   0.10401   0.14416   0.00000  Uiso   1.00
C97    C     0.76412   0.39640   0.20871   0.00000  Uiso   1.00
C98    C     0.78759   0.05354   0.18442   0.00000  Uiso   1.00
C99    C     0.74121   0.44690   0.12287   0.00000  Uiso   1.00
C100   C     0.71238   0.05356   0.14889   0.00000  Uiso   1.00
Cl101  Cl    0.61154   0.34862   0.15039   0.00000  Uiso   1.00
Cl102  Cl    0.87619   0.16294   0.11057   0.00000  Uiso   1.00
Cl103  Cl    0.88847   0.34862   0.18298   0.00000  Uiso   1.00
Cl104  Cl    0.62380   0.16290   0.22271   0.00000  Uiso   1.00
Cl105  Cl    0.83780   0.02318   0.20108   0.00000  Uiso   1.00
Cl106  Cl    0.73647   0.47802   0.06598   0.00000  Uiso   1.00
Cl107  Cl    0.66216   0.02325   0.13221   0.00000  Uiso   1.00
Cl108  Cl    0.76342   0.47806   0.26732   0.00000  Uiso   1.00
Cu109  Cu    0.75000   0.29821   0.16667   0.00000  Uiso   1.00
Cu110  Cu    0.75000   0.20178   0.16667   0.00000  Uiso   1.00
H111   H     0.52638   0.31795   0.13937   0.00000  Uiso   1.00
H112   H     0.96697   0.17626   0.13321   0.00000  Uiso   1.00
H113   H     0.97363   0.31793   0.19400   0.00000  Uiso   1.00
H114   H     0.53302   0.17624   0.20008   0.00000  Uiso   1.00
H115   H     0.88431   0.14253   0.23733   0.00000  Uiso   1.00
H116   H     0.70248   0.36465   0.00818   0.00000  Uiso   1.00
H117   H     0.61579   0.14267   0.09585   0.00000  Uiso   1.00
H118   H     0.79781   0.36486   0.32515   0.00000  Uiso   1.00
N119   N     0.75000   0.12934   0.16667   0.00000  Uiso   1.00
N120   N     0.75000   0.37065   0.16667   0.00000  Uiso   1.00
O121   O     0.68573   0.29071   0.16667   0.00000  Uiso   1.00
O122   O     0.86376   0.12568   0.21160   0.00000  Uiso   1.00
O123   O     0.68059   0.34672   0.08758   0.00000  Uiso   1.00
O124   O     0.72223   0.38229   0.03408   0.00000  Uiso   1.00
O125   O     0.68986   0.14608   0.07305   0.00000  Uiso   1.00
O126   O     0.63629   0.12585   0.12164   0.00000  Uiso   1.00
O127   O     0.81936   0.34663   0.24568   0.00000  Uiso   1.00
O128   O     0.77802   0.38250   0.29928   0.00000  Uiso   1.00
O129   O     0.81427   0.20928   0.16666   0.00000  Uiso   1.00
O130   O     0.81427   0.29071   0.16666   0.00000  Uiso   1.00
O131   O     0.68573   0.20928   0.16667   0.00000  Uiso   1.00
O132   O     0.75000   0.29071   0.09613   0.00000  Uiso   1.00
O133   O     0.75000   0.20929   0.23720   0.00000  Uiso   1.00
O134   O     0.75000   0.29071   0.23720   0.00000  Uiso   1.00
O135   O     0.75000   0.20929   0.09613   0.00000  Uiso   1.00
O136   O     0.81025   0.14620   0.26016   0.00000  Uiso   1.00
C137   C     0.16512   0.75009   0.16904   0.00000  Uiso   1.00
C138   C     0.25872   0.94691   0.21045   0.00000  Uiso   1.00
C139   C     0.24980   0.75000   0.07357   0.00000  Uiso   1.00
C140   C     0.25020   0.75000   0.25976   0.00000  Uiso   1.00
C141   C     0.24998   0.52737   0.16665   0.00000  Uiso   1.00
C142   C     0.24997   0.97302   0.16666   0.00000  Uiso   1.00
C143   C     0.24993   0.75003   0.02184   0.00000  Uiso   1.00
C144   C     0.25007   0.75003   0.31149   0.00000  Uiso   1.00
C145   C     0.04537   0.78722   0.15301   0.00000  Uiso   1.00
C146   C     0.45079   0.70726   0.14712   0.00000  Uiso   1.00
C147   C     0.45463   0.78721   0.18034   0.00000  Uiso   1.00
C148   C     0.33488   0.75009   0.16429   0.00000  Uiso   1.00
C149   C     0.04921   0.70725   0.18618   0.00000  Uiso   1.00
C150   C     0.09084   0.79065   0.15787   0.00000  Uiso   1.00
C151   C     0.40478   0.70935   0.14354   0.00000  Uiso   1.00
C152   C     0.40916   0.79065   0.17547   0.00000  Uiso   1.00
C153   C     0.09522   0.70934   0.18977   0.00000  Uiso   1.00
C154   C     0.11681   0.75018   0.17246   0.00000  Uiso   1.00
C155   C     0.38319   0.75018   0.16087   0.00000  Uiso   1.00
C156   C     0.02415   0.74592   0.16714   0.00000  Uiso   1.00
C157   C     0.47585   0.74592   0.16618   0.00000  Uiso   1.00
C158   C     0.31975   0.62773   0.22199   0.00000  Uiso   1.00
C159   C     0.28520   0.60399   0.18915   0.00000  Uiso   1.00
C160   C     0.21127   0.87332   0.08167   0.00000  Uiso   1.00
C161   C     0.18031   0.62775   0.11126   0.00000  Uiso   1.00
C162   C     0.28878   0.87335   0.25165   0.00000  Uiso   1.00
C163   C     0.23587   0.89639   0.12462   0.00000  Uiso   1.00
C164   C     0.21480   0.60401   0.14416   0.00000  Uiso   1.00
C165   C     0.26412   0.89640   0.20871   0.00000  Uiso   1.00
C166   C     0.28759   0.55354   0.18442   0.00000  Uiso   1.00
C167   C     0.24121   0.94690   0.12287   0.00000  Uiso   1.00
C168   C     0.21238   0.55356   0.14889   0.00000  Uiso   1.00
Cl169  Cl    0.11154   0.84862   0.15039   0.00000  Uiso   1.00
Cl170  Cl    0.37619   0.66294   0.11057   0.00000  Uiso   1.00
Cl171  Cl    0.38847   0.84862   0.18298   0.00000  Uiso   1.00
Cl172  Cl    0.12380   0.66290   0.22271   0.00000  Uiso   1.00
Cl173  Cl    0.33780   0.52318   0.20108   0.00000  Uiso   1.00
Cl174  Cl    0.23647   0.97802   0.06598   0.00000  Uiso   1.00
Cl175  Cl    0.16216   0.52325   0.13221   0.00000  Uiso   1.00
Cl176  Cl    0.26342   0.97806   0.26732   0.00000  Uiso   1.00
Cu177  Cu    0.25000   0.79821   0.16667   0.00000  Uiso   1.00
Cu178  Cu    0.25000   0.70178   0.16667   0.00000  Uiso   1.00
H179   H     0.02638   0.81795   0.13937   0.00000  Uiso   1.00
H180   H     0.46697   0.67626   0.13321   0.00000  Uiso   1.00
H181   H     0.47363   0.81793   0.19400   0.00000  Uiso   1.00
H182   H     0.03302   0.67624   0.20008   0.00000  Uiso   1.00
H183   H     0.38431   0.64253   0.23733   0.00000  Uiso   1.00
H184   H     0.20248   0.86465   0.00818   0.00000  Uiso   1.00
H185   H     0.11579   0.64267   0.09585   0.00000  Uiso   1.00
H186   H     0.29781   0.86486   0.32515   0.00000  Uiso   1.00
N187   N     0.25000   0.62934   0.16667   0.00000  Uiso   1.00
N188   N     0.25000   0.87065   0.16667   0.00000  Uiso   1.00
O189   O     0.18573   0.79071   0.16667   0.00000  Uiso   1.00
O190   O     0.36376   0.62568   0.21160   0.00000  Uiso   1.00
O191   O     0.18059   0.84672   0.08758   0.00000  Uiso   1.00
O192   O     0.22223   0.88229   0.03408   0.00000  Uiso   1.00
O193   O     0.18986   0.64608   0.07305   0.00000  Uiso   1.00
O194   O     0.13629   0.62585   0.12164   0.00000  Uiso   1.00
O195   O     0.31936   0.84663   0.24568   0.00000  Uiso   1.00
O196   O     0.27802   0.88250   0.29928   0.00000  Uiso   1.00
O197   O     0.31427   0.70928   0.16666   0.00000  Uiso   1.00
O198   O     0.31427   0.79071   0.16666   0.00000  Uiso   1.00
O199   O     0.18573   0.70928   0.16667   0.00000  Uiso   1.00
O200   O     0.25000   0.79071   0.09613   0.00000  Uiso   1.00
O201   O     0.25000   0.70929   0.23720   0.00000  Uiso   1.00
O202   O     0.25000   0.79071   0.23720   0.00000  Uiso   1.00
O203   O     0.25000   0.70929   0.09613   0.00000  Uiso   1.00
O204   O     0.31025   0.64620   0.26016   0.00000  Uiso   1.00
C205   C     0.66512   0.75009   0.16904   0.00000  Uiso   1.00
C206   C     0.75872   0.94691   0.21045   0.00000  Uiso   1.00
C207   C     0.74980   0.75000   0.07357   0.00000  Uiso   1.00
C208   C     0.75020   0.75000   0.25976   0.00000  Uiso   1.00
C209   C     0.74998   0.52737   0.16665   0.00000  Uiso   1.00
C210   C     0.74997   0.97302   0.16666   0.00000  Uiso   1.00
C211   C     0.74993   0.75003   0.02184   0.00000  Uiso   1.00
C212   C     0.75007   0.75003   0.31149   0.00000  Uiso   1.00
C213   C     0.54537   0.78722   0.15301   0.00000  Uiso   1.00
C214   C     0.95079   0.70726   0.14712   0.00000  Uiso   1.00
C215   C     0.95463   0.78721   0.18034   0.00000  Uiso   1.00
C216   C     0.83488   0.75009   0.16429   0.00000  Uiso   1.00
C217   C     0.54921   0.70725   0.18618   0.00000  Uiso   1.00
C218   C     0.59084   0.79065   0.15787   0.00000  Uiso   1.00
C219   C     0.90478   0.70935   0.14354   0.00000  Uiso   1.00
C220   C     0.90916   0.79065   0.17547   0.00000  Uiso   1.00
C221   C     0.59522   0.70934   0.18977   0.00000  Uiso   1.00
C222   C     0.61681   0.75018   0.17246   0.00000  Uiso   1.00
C223   C     0.88319   0.75018   0.16087   0.00000  Uiso   1.00
C224   C     0.52415   0.74592   0.16714   0.00000  Uiso   1.00
C225   C     0.97585   0.74592   0.16618   0.00000  Uiso   1.00
C226   C     0.81975   0.62773   0.22199   0.00000  Uiso   1.00
C227   C     0.78520   0.60399   0.18915   0.00000  Uiso   1.00
C228   C     0.71127   0.87332   0.08167   0.00000  Uiso   1.00
C229   C     0.68031   0.62775   0.11126   0.00000  Uiso   1.00
C230   C     0.78878   0.87335   0.25165   0.00000  Uiso   1.00
C231   C     0.73587   0.89639   0.12462   0.00000  Uiso   1.00
C232   C     0.71480   0.60401   0.14416   0.00000  Uiso   1.00
C233   C     0.76412   0.89640   0.20871   0.00000  Uiso   1.00
C234   C     0.78759   0.55354   0.18442   0.00000  Uiso   1.00
C235   C     0.74121   0.94690   0.12287   0.00000  Uiso   1.00
C236   C     0.71238   0.55356   0.14889   0.00000  Uiso   1.00
Cl237  Cl    0.61154   0.84862   0.15039   0.00000  Uiso   1.00
Cl238  Cl    0.87619   0.66294   0.11057   0.00000  Uiso   1.00
Cl239  Cl    0.88847   0.84862   0.18298   0.00000  Uiso   1.00
Cl240  Cl    0.62380   0.66290   0.22271   0.00000  Uiso   1.00
Cl241  Cl    0.83780   0.52318   0.20108   0.00000  Uiso   1.00
Cl242  Cl    0.73647   0.97802   0.06598   0.00000  Uiso   1.00
Cl243  Cl    0.66216   0.52325   0.13221   0.00000  Uiso   1.00
Cl244  Cl    0.76342   0.97806   0.26732   0.00000  Uiso   1.00
Cu245  Cu    0.75000   0.79821   0.16667   0.00000  Uiso   1.00
Cu246  Cu    0.75000   0.70178   0.16667   0.00000  Uiso   1.00
H247   H     0.52638   0.81795   0.13937   0.00000  Uiso   1.00
H248   H     0.96697   0.67626   0.13321   0.00000  Uiso   1.00
H249   H     0.97363   0.81793   0.19400   0.00000  Uiso   1.00
H250   H     0.53302   0.67624   0.20008   0.00000  Uiso   1.00
H251   H     0.88431   0.64253   0.23733   0.00000  Uiso   1.00
H252   H     0.70248   0.86465   0.00818   0.00000  Uiso   1.00
H253   H     0.61579   0.64267   0.09585   0.00000  Uiso   1.00
H254   H     0.79781   0.86486   0.32515   0.00000  Uiso   1.00
N255   N     0.75000   0.62934   0.16667   0.00000  Uiso   1.00
N256   N     0.75000   0.87065   0.16667   0.00000  Uiso   1.00
O257   O     0.68573   0.79071   0.16667   0.00000  Uiso   1.00
O258   O     0.86376   0.62568   0.21160   0.00000  Uiso   1.00
O259   O     0.68059   0.84672   0.08758   0.00000  Uiso   1.00
O260   O     0.72223   0.88229   0.03408   0.00000  Uiso   1.00
O261   O     0.68986   0.64608   0.07305   0.00000  Uiso   1.00
O262   O     0.63629   0.62585   0.12164   0.00000  Uiso   1.00
O263   O     0.81936   0.84663   0.24568   0.00000  Uiso   1.00
O264   O     0.77802   0.88250   0.29928   0.00000  Uiso   1.00
O265   O     0.81427   0.70928   0.16666   0.00000  Uiso   1.00
O266   O     0.81427   0.79071   0.16666   0.00000  Uiso   1.00
O267   O     0.68573   0.70928   0.16667   0.00000  Uiso   1.00
O268   O     0.75000   0.79071   0.09613   0.00000  Uiso   1.00
O269   O     0.75000   0.70929   0.23720   0.00000  Uiso   1.00
O270   O     0.75000   0.79071   0.23720   0.00000  Uiso   1.00
O271   O     0.75000   0.70929   0.09613   0.00000  Uiso   1.00
O272   O     0.81025   0.64620   0.26016   0.00000  Uiso   1.00
C273   C     0.16512   0.25009   0.50237   0.00000  Uiso   1.00
C274   C     0.25872   0.44691   0.54378   0.00000  Uiso   1.00
C275   C     0.24980   0.25000   0.40690   0.00000  Uiso   1.00
C276   C     0.25020   0.25000   0.59310   0.00000  Uiso   1.00
C277   C     0.24998   0.02737   0.49999   0.00000  Uiso   1.00
C278   C     0.24997   0.47302   0.49999   0.00000  Uiso   1.00
C279   C     0.24993   0.25003   0.35517   0.00000  Uiso   1.00
C280   C     0.25007   0.25003   0.64483   0.00000  Uiso   1.00
C281   C     0.04537   0.28722   0.48635   0.00000  Uiso   1.00
C282   C     0.45079   0.20726   0.48046   0.00000  Uiso   1.00
C283   C     0.45463   0.28721   0.51367   0.00000  Uiso   1.00
C284   C     0.33488   0.25009   0.49762   0.00000  Uiso   1.00
C285   C     0.04921   0.20725   0.51952   0.00000  Uiso   1.00
C286   C     0.09084   0.29065   0.49121   0.00000  Uiso   1.00
C287   C     0.40478   0.20935   0.47688   0.00000  Uiso   1.00
C288   C     0.40916   0.29065   0.50881   0.00000  Uiso   1.00
C289   C     0.09522   0.20934   0.52310   0.00000  Uiso   1.00
C290   C     0.11681   0.25018   0.50579   0.00000  Uiso   1.00
C291   C     0.38319   0.25018   0.49420   0.00000  Uiso   1.00
C292   C     0.02415   0.24592   0.50048   0.00000  Uiso   1.00
C293   C     0.47585   0.24592   0.49952   0.00000  Uiso   1.00
C294   C     0.31975   0.12773   0.55533   0.00000  Uiso   1.00
C295   C     0.28520   0.10399   0.52249   0.00000  Uiso   1.00
C296   C     0.21127   0.37332   0.41501   0.00000  Uiso   1.00
C297   C     0.18031   0.12775   0.44459   0.00000  Uiso   1.00
C298   C     0.28878   0.37335   0.58498   0.00000  Uiso   1.00
C299   C     0.23587   0.39639   0.45796   0.00000  Uiso   1.00
C300   C     0.21480   0.10401   0.47749   0.00000  Uiso   1.00
C301   C     0.26412   0.39640   0.54204   0.00000  Uiso   1.00
C302   C     0.28759   0.05354   0.51775   0.00000  Uiso   1.00
C303   C     0.24121   0.44690   0.45621   0.00000  Uiso   1.00
C304   C     0.21238   0.05356   0.48222   0.00000  Uiso   1.00
Cl305  Cl    0.11154   0.34862   0.48372   0.00000  Uiso   1.00
Cl306  Cl    0.37619   0.16294   0.44390   0.00000  Uiso   1.00
Cl307  Cl    0.38847   0.34862   0.51631   0.00000  Uiso   1.00
Cl308  Cl    0.12380   0.16290   0.55605   0.00000  Uiso   1.00
Cl309  Cl    0.33780   0.02318   0.53441   0.00000  Uiso   1.00
Cl310  Cl    0.23647   0.47802   0.39932   0.00000  Uiso   1.00
Cl311  Cl    0.16216   0.02325   0.46555   0.00000  Uiso   1.00
Cl312  Cl    0.26342   0.47806   0.60066   0.00000  Uiso   1.00
Cu313  Cu    0.25000   0.29821   0.50000   0.00000  Uiso   1.00
Cu314  Cu    0.25000   0.20178   0.50000   0.00000  Uiso   1.00
H315   H     0.02638   0.31795   0.47270   0.00000  Uiso   1.00
H316   H     0.46697   0.17626   0.46654   0.00000  Uiso   1.00
H317   H     0.47363   0.31793   0.52733   0.00000  Uiso   1.00
H318   H     0.03302   0.17624   0.53341   0.00000  Uiso   1.00
H319   H     0.38431   0.14253   0.57066   0.00000  Uiso   1.00
H320   H     0.20248   0.36465   0.34151   0.00000  Uiso   1.00
H321   H     0.11579   0.14267   0.42918   0.00000  Uiso   1.00
H322   H     0.29781   0.36486   0.65848   0.00000  Uiso   1.00
N323   N     0.25000   0.12934   0.50000   0.00000  Uiso   1.00
N324   N     0.25000   0.37065   0.50000   0.00000  Uiso   1.00
O325   O     0.18573   0.29071   0.50000   0.00000  Uiso   1.00
O326   O     0.36376   0.12568   0.54493   0.00000  Uiso   1.00
O327   O     0.18059   0.34672   0.42092   0.00000  Uiso   1.00
O328   O     0.22223   0.38229   0.36741   0.00000  Uiso   1.00
O329   O     0.18986   0.14608   0.40638   0.00000  Uiso   1.00
O330   O     0.13629   0.12585   0.45497   0.00000  Uiso   1.00
O331   O     0.31936   0.34663   0.57901   0.00000  Uiso   1.00
O332   O     0.27802   0.38250   0.63262   0.00000  Uiso   1.00
O333   O     0.31427   0.20928   0.50000   0.00000  Uiso   1.00
O334   O     0.31427   0.29071   0.50000   0.00000  Uiso   1.00
O335   O     0.18573   0.20928   0.50000   0.00000  Uiso   1.00
O336   O     0.25000   0.29071   0.42946   0.00000  Uiso   1.00
O337   O     0.25000   0.20929   0.57054   0.00000  Uiso   1.00
O338   O     0.25000   0.29071   0.57054   0.00000  Uiso   1.00
O339   O     0.25000   0.20929   0.42946   0.00000  Uiso   1.00
O340   O     0.31025   0.14620   0.59349   0.00000  Uiso   1.00
C341   C     0.66512   0.25009   0.50237   0.00000  Uiso   1.00
C342   C     0.75872   0.44691   0.54378   0.00000  Uiso   1.00
C343   C     0.74980   0.25000   0.40690   0.00000  Uiso   1.00
C344   C     0.75020   0.25000   0.59310   0.00000  Uiso   1.00
C345   C     0.74998   0.02737   0.49999   0.00000  Uiso   1.00
C346   C     0.74997   0.47302   0.49999   0.00000  Uiso   1.00
C347   C     0.74993   0.25003   0.35517   0.00000  Uiso   1.00
C348   C     0.75007   0.25003   0.64483   0.00000  Uiso   1.00
C349   C     0.54537   0.28722   0.48635   0.00000  Uiso   1.00
C350   C     0.95079   0.20726   0.48046   0.00000  Uiso   1.00
C351   C     0.95463   0.28721   0.51367   0.00000  Uiso   1.00
C352   C     0.83488   0.25009   0.49762   0.00000  Uiso   1.00
C353   C     0.54921   0.20725   0.51952   0.00000  Uiso   1.00
C354   C     0.59084   0.29065   0.49121   0.00000  Uiso   1.00
C355   C     0.90478   0.20935   0.47688   0.00000  Uiso   1.00
C356   C     0.90916   0.29065   0.50881   0.00000  Uiso   1.00
C357   C     0.59522   0.20934   0.52310   0.00000  Uiso   1.00
C358   C     0.61681   0.25018   0.50579   0.00000  Uiso   1.00
C359   C     0.88319   0.25018   0.49420   0.00000  Uiso   1.00
C360   C     0.52415   0.24592   0.50048   0.00000  Uiso   1.00
C361   C     0.97585   0.24592   0.49952   0.00000  Uiso   1.00
C362   C     0.81975   0.12773   0.55533   0.00000  Uiso   1.00
C363   C     0.78520   0.10399   0.52249   0.00000  Uiso   1.00
C364   C     0.71127   0.37332   0.41501   0.00000  Uiso   1.00
C365   C     0.68031   0.12775   0.44459   0.00000  Uiso   1.00
C366   C     0.78878   0.37335   0.58498   0.00000  Uiso   1.00
C367   C     0.73587   0.39639   0.45796   0.00000  Uiso   1.00
C368   C     0.71480   0.10401   0.47749   0.00000  Uiso   1.00
C369   C     0.76412   0.39640   0.54204   0.00000  Uiso   1.00
C370   C     0.78759   0.05354   0.51775   0.00000  Uiso   1.00
C371   C     0.74121   0.44690   0.45621   0.00000  Uiso   1.00
C372   C     0.71238   0.05356   0.48222   0.00000  Uiso   1.00
Cl373  Cl    0.61154   0.34862   0.48372   0.00000  Uiso   1.00
Cl374  Cl    0.87619   0.16294   0.44390   0.00000  Uiso   1.00
Cl375  Cl    0.88847   0.34862   0.51631   0.00000  Uiso   1.00
Cl376  Cl    0.62380   0.16290   0.55605   0.00000  Uiso   1.00
Cl377  Cl    0.83780   0.02318   0.53441   0.00000  Uiso   1.00
Cl378  Cl    0.73647   0.47802   0.39932   0.00000  Uiso   1.00
Cl379  Cl    0.66216   0.02325   0.46555   0.00000  Uiso   1.00
Cl380  Cl    0.76342   0.47806   0.60066   0.00000  Uiso   1.00
Cu381  Cu    0.75000   0.29821   0.50000   0.00000  Uiso   1.00
Cu382  Cu    0.75000   0.20178   0.50000   0.00000  Uiso   1.00
H383   H     0.52638   0.31795   0.47270   0.00000  Uiso   1.00
H384   H     0.96697   0.17626   0.46654   0.00000  Uiso   1.00
H385   H     0.97363   0.31793   0.52733   0.00000  Uiso   1.00
H386   H     0.53302   0.17624   0.53341   0.00000  Uiso   1.00
H387   H     0.88431   0.14253   0.57066   0.00000  Uiso   1.00
H388   H     0.70248   0.36465   0.34151   0.00000  Uiso   1.00
H389   H     0.61579   0.14267   0.42918   0.00000  Uiso   1.00
H390   H     0.79781   0.36486   0.65848   0.00000  Uiso   1.00
N391   N     0.75000   0.12934   0.50000   0.00000  Uiso   1.00
N392   N     0.75000   0.37065   0.50000   0.00000  Uiso   1.00
O393   O     0.68573   0.29071   0.50000   0.00000  Uiso   1.00
O394   O     0.86376   0.12568   0.54493   0.00000  Uiso   1.00
O395   O     0.68059   0.34672   0.42092   0.00000  Uiso   1.00
O396   O     0.72223   0.38229   0.36741   0.00000  Uiso   1.00
O397   O     0.68986   0.14608   0.40638   0.00000  Uiso   1.00
O398   O     0.63629   0.12585   0.45497   0.00000  Uiso   1.00
O399   O     0.81936   0.34663   0.57901   0.00000  Uiso   1.00
O400   O     0.77802   0.38250   0.63262   0.00000  Uiso   1.00
O401   O     0.81427   0.20928   0.50000   0.00000  Uiso   1.00
O402   O     0.81427   0.29071   0.50000   0.00000  Uiso   1.00
O403   O     0.68573   0.20928   0.50000   0.00000  Uiso   1.00
O404   O     0.75000   0.29071   0.42946   0.00000  Uiso   1.00
O405   O     0.75000   0.20929   0.57054   0.00000  Uiso   1.00
O406   O     0.75000   0.29071   0.57054   0.00000  Uiso   1.00
O407   O     0.75000   0.20929   0.42946   0.00000  Uiso   1.00
O408   O     0.81025   0.14620   0.59349   0.00000  Uiso   1.00
C409   C     0.16512   0.75009   0.50237   0.00000  Uiso   1.00
C410   C     0.25872   0.94691   0.54378   0.00000  Uiso   1.00
C411   C     0.24980   0.75000   0.40690   0.00000  Uiso   1.00
C412   C     0.25020   0.75000   0.59310   0.00000  Uiso   1.00
C413   C     0.24998   0.52737   0.49999   0.00000  Uiso   1.00
C414   C     0.24997   0.97302   0.49999   0.00000  Uiso   1.00
C415   C     0.24993   0.75003   0.35517   0.00000  Uiso   1.00
C416   C     0.25007   0.75003   0.64483   0.00000  Uiso   1.00
C417   C     0.04537   0.78722   0.48635   0.00000  Uiso   1.00
C418   C     0.45079   0.70726   0.48046   0.00000  Uiso   1.00
C419   C     0.45463   0.78721   0.51367   0.00000  Uiso   1.00
C420   C     0.33488   0.75009   0.49762   0.00000  Uiso   1.00
C421   C     0.04921   0.70725   0.51952   0.00000  Uiso   1.00
C422   C     0.09084   0.79065   0.49121   0.00000  Uiso   1.00
C423   C     0.40478   0.70935   0.47688   0.00000  Uiso   1.00
C424   C     0.40916   0.79065   0.50881   0.00000  Uiso   1.00
C425   C     0.09522   0.70934   0.52310   0.00000  Uiso   1.00
C426   C     0.11681   0.75018   0.50579   0.00000  Uiso   1.00
C427   C     0.38319   0.75018   0.49420   0.00000  Uiso   1.00
C428   C     0.02415   0.74592   0.50048   0.00000  Uiso   1.00
C429   C     0.47585   0.74592   0.49952   0.00000  Uiso   1.00
C430   C     0.31975   0.62773   0.55533   0.00000  Uiso   1.00
C431   C     0.28520   0.60399   0.52249   0.00000  Uiso   1.00
C432   C     0.21127   0.87332   0.41501   0.00000  Uiso   1.00
C433   C     0.18031   0.62775   0.44459   0.00000  Uiso   1.00
C434   C     0.28878   0.87335   0.58498   0.00000  Uiso   1.00
C435   C     0.23587   0.89639   0.45796   0.00000  Uiso   1.00
C436   C     0.21480   0.60401   0.47749   0.00000  Uiso   1.00
C437   C     0.26412   0.89640   0.54204   0.00000  Uiso   1.00
C438   C     0.28759   0.55354   0.51775   0.00000  Uiso   1.00
C439   C     0.24121   0.94690   0.45621   0.00000  Uiso   1.00
C440   C     0.21238   0.55356   0.48222   0.00000  Uiso   1.00
Cl441  Cl    0.11154   0.84862   0.48372   0.00000  Uiso   1.00
Cl442  Cl    0.37619   0.66294   0.44390   0.00000  Uiso   1.00
Cl443  Cl    0.38847   0.84862   0.51631   0.00000  Uiso   1.00
Cl444  Cl    0.12380   0.66290   0.55605   0.00000  Uiso   1.00
Cl445  Cl    0.33780   0.52318   0.53441   0.00000  Uiso   1.00
Cl446  Cl    0.23647   0.97802   0.39932   0.00000  Uiso   1.00
Cl447  Cl    0.16216   0.52325   0.46555   0.00000  Uiso   1.00
Cl448  Cl    0.26342   0.97806   0.60066   0.00000  Uiso   1.00
Cu449  Cu    0.25000   0.79821   0.50000   0.00000  Uiso   1.00
Cu450  Cu    0.25000   0.70178   0.50000   0.00000  Uiso   1.00
H451   H     0.02638   0.81795   0.47270   0.00000  Uiso   1.00
H452   H     0.46697   0.67626   0.46654   0.00000  Uiso   1.00
H453   H     0.47363   0.81793   0.52733   0.00000  Uiso   1.00
H454   H     0.03302   0.67624   0.53341   0.00000  Uiso   1.00
H455   H     0.38431   0.64253   0.57066   0.00000  Uiso   1.00
H456   H     0.20248   0.86465   0.34151   0.00000  Uiso   1.00
H457   H     0.11579   0.64267   0.42918   0.00000  Uiso   1.00
H458   H     0.29781   0.86486   0.65848   0.00000  Uiso   1.00
N459   N     0.25000   0.62934   0.50000   0.00000  Uiso   1.00
N460   N     0.25000   0.87065   0.50000   0.00000  Uiso   1.00
O461   O     0.18573   0.79071   0.50000   0.00000  Uiso   1.00
O462   O     0.36376   0.62568   0.54493   0.00000  Uiso   1.00
O463   O     0.18059   0.84672   0.42092   0.00000  Uiso   1.00
O464   O     0.22223   0.88229   0.36741   0.00000  Uiso   1.00
O465   O     0.18986   0.64608   0.40638   0.00000  Uiso   1.00
O466   O     0.13629   0.62585   0.45497   0.00000  Uiso   1.00
O467   O     0.31936   0.84663   0.57901   0.00000  Uiso   1.00
O468   O     0.27802   0.88250   0.63262   0.00000  Uiso   1.00
O469   O     0.31427   0.70928   0.50000   0.00000  Uiso   1.00
O470   O     0.31427   0.79071   0.50000   0.00000  Uiso   1.00
O471   O     0.18573   0.70928   0.50000   0.00000  Uiso   1.00
O472   O     0.25000   0.79071   0.42946   0.00000  Uiso   1.00
O473   O     0.25000   0.70929   0.57054   0.00000  Uiso   1.00
O474   O     0.25000   0.79071   0.57054   0.00000  Uiso   1.00
O475   O     0.25000   0.70929   0.42946   0.00000  Uiso   1.00
O476   O     0.31025   0.64620   0.59349   0.00000  Uiso   1.00
C477   C     0.66512   0.75009   0.50237   0.00000  Uiso   1.00
C478   C     0.75872   0.94691   0.54378   0.00000  Uiso   1.00
C479   C     0.74980   0.75000   0.40690   0.00000  Uiso   1.00
C480   C     0.75020   0.75000   0.59310   0.00000  Uiso   1.00
C481   C     0.74998   0.52737   0.49999   0.00000  Uiso   1.00
C482   C     0.74997   0.97302   0.49999   0.00000  Uiso   1.00
C483   C     0.74993   0.75003   0.35517   0.00000  Uiso   1.00
C484   C     0.75007   0.75003   0.64483   0.00000  Uiso   1.00
C485   C     0.54537   0.78722   0.48635   0.00000  Uiso   1.00
C486   C     0.95079   0.70726   0.48046   0.00000  Uiso   1.00
C487   C     0.95463   0.78721   0.51367   0.00000  Uiso   1.00
C488   C     0.83488   0.75009   0.49762   0.00000  Uiso   1.00
C489   C     0.54921   0.70725   0.51952   0.00000  Uiso   1.00
C490   C     0.59084   0.79065   0.49121   0.00000  Uiso   1.00
C491   C     0.90478   0.70935   0.47688   0.00000  Uiso   1.00
C492   C     0.90916   0.79065   0.50881   0.00000  Uiso   1.00
C493   C     0.59522   0.70934   0.52310   0.00000  Uiso   1.00
C494   C     0.61681   0.75018   0.50579   0.00000  Uiso   1.00
C495   C     0.88319   0.75018   0.49420   0.00000  Uiso   1.00
C496   C     0.52415   0.74592   0.50048   0.00000  Uiso   1.00
C497   C     0.97585   0.74592   0.49952   0.00000  Uiso   1.00
C498   C     0.81975   0.62773   0.55533   0.00000  Uiso   1.00
C499   C     0.78520   0.60399   0.52249   0.00000  Uiso   1.00
C500   C     0.71127   0.87332   0.41501   0.00000  Uiso   1.00
C501   C     0.68031   0.62775   0.44459   0.00000  Uiso   1.00
C502   C     0.78878   0.87335   0.58498   0.00000  Uiso   1.00
C503   C     0.73587   0.89639   0.45796   0.00000  Uiso   1.00
C504   C     0.71480   0.60401   0.47749   0.00000  Uiso   1.00
C505   C     0.76412   0.89640   0.54204   0.00000  Uiso   1.00
C506   C     0.78759   0.55354   0.51775   0.00000  Uiso   1.00
C507   C     0.74121   0.94690   0.45621   0.00000  Uiso   1.00
C508   C     0.71238   0.55356   0.48222   0.00000  Uiso   1.00
Cl509  Cl    0.61154   0.84862   0.48372   0.00000  Uiso   1.00
Cl510  Cl    0.87619   0.66294   0.44390   0.00000  Uiso   1.00
Cl511  Cl    0.88847   0.84862   0.51631   0.00000  Uiso   1.00
Cl512  Cl    0.62380   0.66290   0.55605   0.00000  Uiso   1.00
Cl513  Cl    0.83780   0.52318   0.53441   0.00000  Uiso   1.00
Cl514  Cl    0.73647   0.97802   0.39932   0.00000  Uiso   1.00
Cl515  Cl    0.66216   0.52325   0.46555   0.00000  Uiso   1.00
Cl516  Cl    0.76342   0.97806   0.60066   0.00000  Uiso   1.00
Cu517  Cu    0.75000   0.79821   0.50000   0.00000  Uiso   1.00
Cu518  Cu    0.75000   0.70178   0.50000   0.00000  Uiso   1.00
H519   H     0.52638   0.81795   0.47270   0.00000  Uiso   1.00
H520   H     0.96697   0.67626   0.46654   0.00000  Uiso   1.00
H521   H     0.97363   0.81793   0.52733   0.00000  Uiso   1.00
H522   H     0.53302   0.67624   0.53341   0.00000  Uiso   1.00
H523   H     0.88431   0.64253   0.57066   0.00000  Uiso   1.00
H524   H     0.70248   0.86465   0.34151   0.00000  Uiso   1.00
H525   H     0.61579   0.64267   0.42918   0.00000  Uiso   1.00
H526   H     0.79781   0.86486   0.65848   0.00000  Uiso   1.00
N527   N     0.75000   0.62934   0.50000   0.00000  Uiso   1.00
N528   N     0.75000   0.87065   0.50000   0.00000  Uiso   1.00
O529   O     0.68573   0.79071   0.50000   0.00000  Uiso   1.00
O530   O     0.86376   0.62568   0.54493   0.00000  Uiso   1.00
O531   O     0.68059   0.84672   0.42092   0.00000  Uiso   1.00
O532   O     0.72223   0.88229   0.36741   0.00000  Uiso   1.00
O533   O     0.68986   0.64608   0.40638   0.00000  Uiso   1.00
O534   O     0.63629   0.62585   0.45497   0.00000  Uiso   1.00
O535   O     0.81936   0.84663   0.57901   0.00000  Uiso   1.00
O536   O     0.77802   0.88250   0.63262   0.00000  Uiso   1.00
O537   O     0.81427   0.70928   0.50000   0.00000  Uiso   1.00
O538   O     0.81427   0.79071   0.50000   0.00000  Uiso   1.00
O539   O     0.68573   0.70928   0.50000   0.00000  Uiso   1.00
O540   O     0.75000   0.79071   0.42946   0.00000  Uiso   1.00
O541   O     0.75000   0.70929   0.57054   0.00000  Uiso   1.00
O542   O     0.75000   0.79071   0.57054   0.00000  Uiso   1.00
O543   O     0.75000   0.70929   0.42946   0.00000  Uiso   1.00
O544   O     0.81025   0.64620   0.59349   0.00000  Uiso   1.00
C545   C     0.16512   0.25009   0.83571   0.00000  Uiso   1.00
C546   C     0.25872   0.44691   0.87712   0.00000  Uiso   1.00
C547   C     0.24980   0.25000   0.74023   0.00000  Uiso   1.00
C548   C     0.25020   0.25000   0.92643   0.00000  Uiso   1.00
C549   C     0.24998   0.02737   0.83332   0.00000  Uiso   1.00
C550   C     0.24997   0.47302   0.83332   0.00000  Uiso   1.00
C551   C     0.24993   0.25003   0.68851   0.00000  Uiso   1.00
C552   C     0.25007   0.25003   0.97816   0.00000  Uiso   1.00
C553   C     0.04537   0.28722   0.81968   0.00000  Uiso   1.00
C554   C     0.45079   0.20726   0.81379   0.00000  Uiso   1.00
C555   C     0.45463   0.28721   0.84700   0.00000  Uiso   1.00
C556   C     0.33488   0.25009   0.83096   0.00000  Uiso   1.00
C557   C     0.04921   0.20725   0.85285   0.00000  Uiso   1.00
C558   C     0.09084   0.29065   0.82454   0.00000  Uiso   1.00
C559   C     0.40478   0.20935   0.81021   0.00000  Uiso   1.00
C560   C     0.40916   0.29065   0.84214   0.00000  Uiso   1.00
C561   C     0.09522   0.20934   0.85643   0.00000  Uiso   1.00
C562   C     0.11681   0.25018   0.83913   0.00000  Uiso   1.00
C563   C     0.38319   0.25018   0.82754   0.00000  Uiso   1.00
C564   C     0.02415   0.24592   0.83381   0.00000  Uiso   1.00
C565   C     0.47585   0.24592   0.83285   0.00000  Uiso   1.00
C566   C     0.31975   0.12773   0.88866   0.00000  Uiso   1.00
C567   C     0.28520   0.10399   0.85582   0.00000  Uiso   1.00
C568   C     0.21127   0.37332   0.74834   0.00000  Uiso   1.00
C569   C     0.18031   0.12775   0.77792   0.00000  Uiso   1.00
C570   C     0.28878   0.37335   0.91831   0.00000  Uiso   1.00
C571   C     0.23587   0.39639   0.79129   0.00000  Uiso   1.00
C572   C     0.21480   0.10401   0.81083   0.00000  Uiso   1.00
C573   C     0.26412   0.39640   0.87538   0.00000  Uiso   1.00
C574   C     0.28759   0.05354   0.85108   0.00000  Uiso   1.00
C575   C     0.24121   0.44690   0.78954   0.00000  Uiso   1.00
C576   C     0.21238   0.05356   0.81556   0.00000  Uiso   1.00
Cl577  Cl    0.11154   0.34862   0.81705   0.00000  Uiso   1.00
Cl578  Cl    0.37619   0.16294   0.77724   0.00000  Uiso   1.00
Cl579  Cl    0.38847   0.34862   0.84965   0.00000  Uiso   1.00
Cl580  Cl    0.12380   0.16290   0.88938   0.00000  Uiso   1.00
Cl581  Cl    0.33780   0.02318   0.86775   0.00000  Uiso   1.00
Cl582  Cl    0.23647   0.47802   0.73265   0.00000  Uiso   1.00
Cl583  Cl    0.16216   0.02325   0.79888   0.00000  Uiso   1.00
Cl584  Cl    0.26342   0.47806   0.93399   0.00000  Uiso   1.00
Cu585  Cu    0.25000   0.29821   0.83333   0.00000  Uiso   1.00
Cu586  Cu    0.25000   0.20178   0.83333   0.00000  Uiso   1.00
H587   H     0.02638   0.31795   0.80603   0.00000  Uiso   1.00
H588   H     0.46697   0.17626   0.79988   0.00000  Uiso   1.00
H589   H     0.47363   0.31793   0.86067   0.00000  Uiso   1.00
H590   H     0.03302   0.17624   0.86674   0.00000  Uiso   1.00
H591   H     0.38431   0.14253   0.90399   0.00000  Uiso   1.00
H592   H     0.20248   0.36465   0.67485   0.00000  Uiso   1.00
H593   H     0.11579   0.14267   0.76251   0.00000  Uiso   1.00
H594   H     0.29781   0.36486   0.99182   0.00000  Uiso   1.00
N595   N     0.25000   0.12934   0.83333   0.00000  Uiso   1.00
N596   N     0.25000   0.37065   0.83333   0.00000  Uiso   1.00
O597   O     0.18573   0.29071   0.83334   0.00000  Uiso   1.00
O598   O     0.36376   0.12568   0.87826   0.00000  Uiso   1.00
O599   O     0.18059   0.34672   0.75425   0.00000  Uiso   1.00
O600   O     0.22223   0.38229   0.70074   0.00000  Uiso   1.00
O601   O     0.18986   0.14608   0.73971   0.00000  Uiso   1.00
O602   O     0.13629   0.12585   0.78830   0.00000  Uiso   1.00
O603   O     0.31936   0.34663   0.91235   0.00000  Uiso   1.00
O604   O     0.27802   0.38250   0.96595   0.00000  Uiso   1.00
O605   O     0.31427   0.20928   0.83333   0.00000  Uiso   1.00
O606   O     0.31427   0.29071   0.83333   0.00000  Uiso   1.00
O607   O     0.18573   0.20928   0.83334   0.00000  Uiso   1.00
O608   O     0.25000   0.29071   0.76280   0.00000  Uiso   1.00
O609   O     0.25000   0.20929   0.90387   0.00000  Uiso   1.00
O610   O     0.25000   0.29071   0.90387   0.00000  Uiso   1.00
O611   O     0.25000   0.20929   0.76280   0.00000  Uiso   1.00
O612   O     0.31025   0.14620   0.92682   0.00000  Uiso   1.00
C613   C     0.66512   0.25009   0.83571   0.00000  Uiso   1.00
C614   C     0.75872   0.44691   0.87712   0.00000  Uiso   1.00
C615   C     0.74980   0.25000   0.74023   0.00000  Uiso   1.00
C616   C     0.75020   0.25000   0.92643   0.00000  Uiso   1.00
C617   C     0.74998   0.02737   0.83332   0.00000  Uiso   1.00
C618   C     0.74997   0.47302   0.83332   0.00000  Uiso   1.00
C619   C     0.74993   0.25003   0.68851   0.00000  Uiso   1.00
C620   C     0.75007   0.25003   0.97816   0.00000  Uiso   1.00
C621   C     0.54537   0.28722   0.81968   0.00000  Uiso   1.00
C622   C     0.95079   0.20726   0.81379   0.00000  Uiso   1.00
C623   C     0.95463   0.28721   0.84700   0.00000  Uiso   1.00
C624   C     0.83488   0.25009   0.83096   0.00000  Uiso   1.00
C625   C     0.54921   0.20725   0.85285   0.00000  Uiso   1.00
C626   C     0.59084   0.29065   0.82454   0.00000  Uiso   1.00
C627   C     0.90478   0.20935   0.81021   0.00000  Uiso   1.00
C628   C     0.90916   0.29065   0.84214   0.00000  Uiso   1.00
C629   C     0.59522   0.20934   0.85643   0.00000  Uiso   1.00
C630   C     0.61681   0.25018   0.83913   0.00000  Uiso   1.00
C631   C     0.88319   0.25018   0.82754   0.00000  Uiso   1.00
C632   C     0.52415   0.24592   0.83381   0.00000  Uiso   1.00
C633   C     0.97585   0.24592   0.83285   0.00000  Uiso   1.00
C634   C     0.81975   0.12773   0.88866   0.00000  Uiso   1.00
C635   C     0.78520   0.10399   0.85582   0.00000  Uiso   1.00
C636   C     0.71127   0.37332   0.74834   0.00000  Uiso   1.00
C637   C     0.68031   0.12775   0.77792   0.00000  Uiso   1.00
C638   C     0.78878   0.37335   0.91831   0.00000  Uiso   1.00
C639   C     0.73587   0.39639   0.79129   0.00000  Uiso   1.00
C640   C     0.71480   0.10401   0.81083   0.00000  Uiso   1.00
C641   C     0.76412   0.39640   0.87538   0.00000  Uiso   1.00
C642   C     0.78759   0.05354   0.85108   0.00000  Uiso   1.00
C643   C     0.74121   0.44690   0.78954   0.00000  Uiso   1.00
C644   C     0.71238   0.05356   0.81556   0.00000  Uiso   1.00
Cl645  Cl    0.61154   0.34862   0.81705   0.00000  Uiso   1.00
Cl646  Cl    0.87619   0.16294   0.77724   0.00000  Uiso   1.00
Cl647  Cl    0.88847   0.34862   0.84965   0.00000  Uiso   1.00
Cl648  Cl    0.62380   0.16290   0.88938   0.00000  Uiso   1.00
Cl649  Cl    0.83780   0.02318   0.86775   0.00000  Uiso   1.00
Cl650  Cl    0.73647   0.47802   0.73265   0.00000  Uiso   1.00
Cl651  Cl    0.66216   0.02325   0.79888   0.00000  Uiso   1.00
Cl652  Cl    0.76342   0.47806   0.93399   0.00000  Uiso   1.00
Cu653  Cu    0.75000   0.29821   0.83333   0.00000  Uiso   1.00
Cu654  Cu    0.75000   0.20178   0.83333   0.00000  Uiso   1.00
H655   H     0.52638   0.31795   0.80603   0.00000  Uiso   1.00
H656   H     0.96697   0.17626   0.79988   0.00000  Uiso   1.00
H657   H     0.97363   0.31793   0.86067   0.00000  Uiso   1.00
H658   H     0.53302   0.17624   0.86674   0.00000  Uiso   1.00
H659   H     0.88431   0.14253   0.90399   0.00000  Uiso   1.00
H660   H     0.70248   0.36465   0.67485   0.00000  Uiso   1.00
H661   H     0.61579   0.14267   0.76251   0.00000  Uiso   1.00
H662   H     0.79781   0.36486   0.99182   0.00000  Uiso   1.00
N663   N     0.75000   0.12934   0.83333   0.00000  Uiso   1.00
N664   N     0.75000   0.37065   0.83333   0.00000  Uiso   1.00
O665   O     0.68573   0.29071   0.83334   0.00000  Uiso   1.00
O666   O     0.86376   0.12568   0.87826   0.00000  Uiso   1.00
O667   O     0.68059   0.34672   0.75425   0.00000  Uiso   1.00
O668   O     0.72223   0.38229   0.70074   0.00000  Uiso   1.00
O669   O     0.68986   0.14608   0.73971   0.00000  Uiso   1.00
O670   O     0.63629   0.12585   0.78830   0.00000  Uiso   1.00
O671   O     0.81936   0.34663   0.91235   0.00000  Uiso   1.00
O672   O     0.77802   0.38250   0.96595   0.00000  Uiso   1.00
O673   O     0.81427   0.20928   0.83333   0.00000  Uiso   1.00
O674   O     0.81427   0.29071   0.83333   0.00000  Uiso   1.00
O675   O     0.68573   0.20928   0.83334   0.00000  Uiso   1.00
O676   O     0.75000   0.29071   0.76280   0.00000  Uiso   1.00
O677   O     0.75000   0.20929   0.90387   0.00000  Uiso   1.00
O678   O     0.75000   0.29071   0.90387   0.00000  Uiso   1.00
O679   O     0.75000   0.20929   0.76280   0.00000  Uiso   1.00
O680   O     0.81025   0.14620   0.92682   0.00000  Uiso   1.00
C681   C     0.16512   0.75009   0.83571   0.00000  Uiso   1.00
C682   C     0.25872   0.94691   0.87712   0.00000  Uiso   1.00
C683   C     0.24980   0.75000   0.74023   0.00000  Uiso   1.00
C684   C     0.25020   0.75000   0.92643   0.00000  Uiso   1.00
C685   C     0.24998   0.52737   0.83332   0.00000  Uiso   1.00
C686   C     0.24997   0.97302   0.83332   0.00000  Uiso   1.00
C687   C     0.24993   0.75003   0.68851   0.00000  Uiso   1.00
C688   C     0.25007   0.75003   0.97816   0.00000  Uiso   1.00
C689   C     0.04537   0.78722   0.81968   0.00000  Uiso   1.00
C690   C     0.45079   0.70726   0.81379   0.00000  Uiso   1.00
C691   C     0.45463   0.78721   0.84700   0.00000  Uiso   1.00
C692   C     0.33488   0.75009   0.83096   0.00000  Uiso   1.00
C693   C     0.04921   0.70725   0.85285   0.00000  Uiso   1.00
C694   C     0.09084   0.79065   0.82454   0.00000  Uiso   1.00
C695   C     0.40478   0.70935   0.81021   0.00000  Uiso   1.00
C696   C     0.40916   0.79065   0.84214   0.00000  Uiso   1.00
C697   C     0.09522   0.70934   0.85643   0.00000  Uiso   1.00
C698   C     0.11681   0.75018   0.83913   0.00000  Uiso   1.00
C699   C     0.38319   0.75018   0.82754   0.00000  Uiso   1.00
C700   C     0.02415   0.74592   0.83381   0.00000  Uiso   1.00
C701   C     0.47585   0.74592   0.83285   0.00000  Uiso   1.00
C702   C     0.31975   0.62773   0.88866   0.00000  Uiso   1.00
C703   C     0.28520   0.60399   0.85582   0.00000  Uiso   1.00
C704   C     0.21127   0.87332   0.74834   0.00000  Uiso   1.00
C705   C     0.18031   0.62775   0.77792   0.00000  Uiso   1.00
C706   C     0.28878   0.87335   0.91831   0.00000  Uiso   1.00
C707   C     0.23587   0.89639   0.79129   0.00000  Uiso   1.00
C708   C     0.21480   0.60401   0.81083   0.00000  Uiso   1.00
C709   C     0.26412   0.89640   0.87538   0.00000  Uiso   1.00
C710   C     0.28759   0.55354   0.85108   0.00000  Uiso   1.00
C711   C     0.24121   0.94690   0.78954   0.00000  Uiso   1.00
C712   C     0.21238   0.55356   0.81556   0.00000  Uiso   1.00
Cl713  Cl    0.11154   0.84862   0.81705   0.00000  Uiso   1.00
Cl714  Cl    0.37619   0.66294   0.77724   0.00000  Uiso   1.00
Cl715  Cl    0.38847   0.84862   0.84965   0.00000  Uiso   1.00
Cl716  Cl    0.12380   0.66290   0.88938   0.00000  Uiso   1.00
Cl717  Cl    0.33780   0.52318   0.86775   0.00000  Uiso   1.00
Cl718  Cl    0.23647   0.97802   0.73265   0.00000  Uiso   1.00
Cl719  Cl    0.16216   0.52325   0.79888   0.00000  Uiso   1.00
Cl720  Cl    0.26342   0.97806   0.93399   0.00000  Uiso   1.00
Cu721  Cu    0.25000   0.79821   0.83333   0.00000  Uiso   1.00
Cu722  Cu    0.25000   0.70178   0.83333   0.00000  Uiso   1.00
H723   H     0.02638   0.81795   0.80603   0.00000  Uiso   1.00
H724   H     0.46697   0.67626   0.79988   0.00000  Uiso   1.00
H725   H     0.47363   0.81793   0.86067   0.00000  Uiso   1.00
H726   H     0.03302   0.67624   0.86674   0.00000  Uiso   1.00
H727   H     0.38431   0.64253   0.90399   0.00000  Uiso   1.00
H728   H     0.20248   0.86465   0.67485   0.00000  Uiso   1.00
H729   H     0.11579   0.64267   0.76251   0.00000  Uiso   1.00
H730   H     0.29781   0.86486   0.99182   0.00000  Uiso   1.00
N731   N     0.25000   0.62934   0.83333   0.00000  Uiso   1.00
N732   N     0.25000   0.87065   0.83333   0.00000  Uiso   1.00
O733   O     0.18573   0.79071   0.83334   0.00000  Uiso   1.00
O734   O     0.36376   0.62568   0.87826   0.00000  Uiso   1.00
O735   O     0.18059   0.84672   0.75425   0.00000  Uiso   1.00
O736   O     0.22223   0.88229   0.70074   0.00000  Uiso   1.00
O737   O     0.18986   0.64608   0.73971   0.00000  Uiso   1.00
O738   O     0.13629   0.62585   0.78830   0.00000  Uiso   1.00
O739   O     0.31936   0.84663   0.91235   0.00000  Uiso   1.00
O740   O     0.27802   0.88250   0.96595   0.00000  Uiso   1.00
O741   O     0.31427   0.70928   0.83333   0.00000  Uiso   1.00
O742   O     0.31427   0.79071   0.83333   0.00000  Uiso   1.00
O743   O     0.18573   0.70928   0.83334   0.00000  Uiso   1.00
O744   O     0.25000   0.79071   0.76280   0.00000  Uiso   1.00
O745   O     0.25000   0.70929   0.90387   0.00000  Uiso   1.00
O746   O     0.25000   0.79071   0.90387   0.00000  Uiso   1.00
O747   O     0.25000   0.70929   0.76280   0.00000  Uiso   1.00
O748   O     0.31025   0.64620   0.92682   0.00000  Uiso   1.00
C749   C     0.66512   0.75009   0.83571   0.00000  Uiso   1.00
C750   C     0.75872   0.94691   0.87712   0.00000  Uiso   1.00
C751   C     0.74980   0.75000   0.74023   0.00000  Uiso   1.00
C752   C     0.75020   0.75000   0.92643   0.00000  Uiso   1.00
C753   C     0.74998   0.52737   0.83332   0.00000  Uiso   1.00
C754   C     0.74997   0.97302   0.83332   0.00000  Uiso   1.00
C755   C     0.74993   0.75003   0.68851   0.00000  Uiso   1.00
C756   C     0.75007   0.75003   0.97816   0.00000  Uiso   1.00
C757   C     0.54537   0.78722   0.81968   0.00000  Uiso   1.00
C758   C     0.95079   0.70726   0.81379   0.00000  Uiso   1.00
C759   C     0.95463   0.78721   0.84700   0.00000  Uiso   1.00
C760   C     0.83488   0.75009   0.83096   0.00000  Uiso   1.00
C761   C     0.54921   0.70725   0.85285   0.00000  Uiso   1.00
C762   C     0.59084   0.79065   0.82454   0.00000  Uiso   1.00
C763   C     0.90478   0.70935   0.81021   0.00000  Uiso   1.00
C764   C     0.90916   0.79065   0.84214   0.00000  Uiso   1.00
C765   C     0.59522   0.70934   0.85643   0.00000  Uiso   1.00
C766   C     0.61681   0.75018   0.83913   0.00000  Uiso   1.00
C767   C     0.88319   0.75018   0.82754   0.00000  Uiso   1.00
C768   C     0.52415   0.74592   0.83381   0.00000  Uiso   1.00
C769   C     0.97585   0.74592   0.83285   0.00000  Uiso   1.00
C770   C     0.81975   0.62773   0.88866   0.00000  Uiso   1.00
C771   C     0.78520   0.60399   0.85582   0.00000  Uiso   1.00
C772   C     0.71127   0.87332   0.74834   0.00000  Uiso   1.00
C773   C     0.68031   0.62775   0.77792   0.00000  Uiso   1.00
C774   C     0.78878   0.87335   0.91831   0.00000  Uiso   1.00
C775   C     0.73587   0.89639   0.79129   0.00000  Uiso   1.00
C776   C     0.71480   0.60401   0.81083   0.00000  Uiso   1.00
C777   C     0.76412   0.89640   0.87538   0.00000  Uiso   1.00
C778   C     0.78759   0.55354   0.85108   0.00000  Uiso   1.00
C779   C     0.74121   0.94690   0.78954   0.00000  Uiso   1.00
C780   C     0.71238   0.55356   0.81556   0.00000  Uiso   1.00
Cl781  Cl    0.61154   0.84862   0.81705   0.00000  Uiso   1.00
Cl782  Cl    0.87619   0.66294   0.77724   0.00000  Uiso   1.00
Cl783  Cl    0.88847   0.84862   0.84965   0.00000  Uiso   1.00
Cl784  Cl    0.62380   0.66290   0.88938   0.00000  Uiso   1.00
Cl785  Cl    0.83780   0.52318   0.86775   0.00000  Uiso   1.00
Cl786  Cl    0.73647   0.97802   0.73265   0.00000  Uiso   1.00
Cl787  Cl    0.66216   0.52325   0.79888   0.00000  Uiso   1.00
Cl788  Cl    0.76342   0.97806   0.93399   0.00000  Uiso   1.00
Cu789  Cu    0.75000   0.79821   0.83333   0.00000  Uiso   1.00
Cu790  Cu    0.75000   0.70178   0.83333   0.00000  Uiso   1.00
H791   H     0.52638   0.81795   0.80603   0.00000  Uiso   1.00
H792   H     0.96697   0.67626   0.79988   0.00000  Uiso   1.00
H793   H     0.97363   0.81793   0.86067   0.00000  Uiso   1.00
H794   H     0.53302   0.67624   0.86674   0.00000  Uiso   1.00
H795   H     0.88431   0.64253   0.90399   0.00000  Uiso   1.00
H796   H     0.70248   0.86465   0.67485   0.00000  Uiso   1.00
H797   H     0.61579   0.64267   0.76251   0.00000  Uiso   1.00
H798   H     0.79781   0.86486   0.99182   0.00000  Uiso   1.00
N799   N     0.75000   0.62934   0.83333   0.00000  Uiso   1.00
N800   N     0.75000   0.87065   0.83333   0.00000  Uiso   1.00
O801   O     0.68573   0.79071   0.83334   0.00000  Uiso   1.00
O802   O     0.86376   0.62568   0.87826   0.00000  Uiso   1.00
O803   O     0.68059   0.84672   0.75425   0.00000  Uiso   1.00
O804   O     0.72223   0.88229   0.70074   0.00000  Uiso   1.00
O805   O     0.68986   0.64608   0.73971   0.00000  Uiso   1.00
O806   O     0.63629   0.62585   0.78830   0.00000  Uiso   1.00
O807   O     0.81936   0.84663   0.91235   0.00000  Uiso   1.00
O808   O     0.77802   0.88250   0.96595   0.00000  Uiso   1.00
O809   O     0.81427   0.70928   0.83333   0.00000  Uiso   1.00
O810   O     0.81427   0.79071   0.83333   0.00000  Uiso   1.00
O811   O     0.68573   0.70928   0.83334   0.00000  Uiso   1.00
O812   O     0.75000   0.79071   0.76280   0.00000  Uiso   1.00
O813   O     0.75000   0.70929   0.90387   0.00000  Uiso   1.00
O814   O     0.75000   0.79071   0.90387   0.00000  Uiso   1.00
O815   O     0.75000   0.70929   0.76280   0.00000  Uiso   1.00
O816   O     0.81025   0.64620   0.92682   0.00000  Uiso   1.00
loop_
_geom_bond_atom_site_label_1
_geom_bond_atom_site_label_2
_geom_bond_distance
_geom_bond_site_symmetry_2
_ccdc_geom_bond_type
C1     C18     1.484   .     S
C1     O63     1.308   .     A
C1     O53     1.303   .     A
C2     C6      1.406   .     A
C2     Cl40    1.775   .     S
C2     C29     1.424   .     A
C3     O64     1.295   .     A
C3     C7      1.412   .     S
C3     O67     1.295   .     A
C4     O66     1.295   .     A
C4     C8      1.412   .     S
C4     O65     1.295   .     A
C5     C32     1.409   .     A
C5     C30     1.409   .     A
C5     C142    1.521   1_545 S
C6     C31     1.406   .     A
C6     C141    1.521   .     S
C7     C552    1.192   1_554 S
C8     C279    1.192   .     S
C9     C14     1.384   .     A
C9     H43     1.084   .     S
C9     C20     1.396   .     A
C10    C15     1.398   .     A
C10    C21     1.397   .     A
C10    H44     1.084   .     S
C11    H45     1.084   .     S
C11    C16     1.384   .     A
C11    C21     1.396   .     A
C12    O62     1.303   .     A
C12    O61     1.308   .     A
C12    C19     1.484   .     S
C13    C20     1.397   .     A
C13    C17     1.398   .     A
C13    H46     1.084   .     S
C14    C18     1.418   .     A
C14    Cl33    1.759   .     S
C15    Cl34    1.765   .     S
C15    C19     1.421   .     A
C16    Cl35    1.759   .     S
C16    C19     1.418   .     A
C17    Cl36    1.765   .     S
C17    C18     1.421   .     A
C20    C89     1.470   1_455 S
C21    C88     1.470   .     S
C22    O54     1.397   .     S
C22    O68     1.221   .     D
C22    C23     1.478   .     S
C23    N51     1.383   .     A
C23    C30     1.420   .     A
C24    O56     1.393   .     S
C24    C27     1.481   .     S
C24    O55     1.217   .     D
C25    O57     1.220   .     D
C25    O58     1.397   .     S
C25    C28     1.477   .     S
C26    O59     1.217   .     D
C26    C29     1.482   .     S
C26    O60     1.393   .     S
C27    N52     1.390   .     A
C27    C31     1.424   .     A
C28    N51     1.383   .     A
C28    C32     1.420   .     A
C29    N52     1.390   .     A
C30    Cl37    1.773   .     S
C31    Cl38    1.774   .     S
C32    Cl39    1.773   .     S
Cu41   Cu42    2.698   .     S
Cu41   O66     1.936   .     S
Cu41   O53     1.970   .     S
Cu41   O62     1.970   .     S
Cu41   N52     2.027   .     S
Cu41   O64     1.936   .     S
Cu42   O65     1.936   .     S
Cu42   N51     2.027   .     S
Cu42   O61     1.970   .     S
Cu42   O67     1.936   .     S
Cu42   O63     1.970   .     S
H47    O54     1.014   .     S
H48    O56     1.014   .     S
H49    O58     1.014   .     S
H50    O60     1.014   .     S
C69    C86     1.484   .     S
C69    O131    1.308   .     A
C69    O121    1.303   .     A
C70    C74     1.406   .     A
C70    Cl108   1.775   .     S
C70    C97     1.424   .     A
C71    O132    1.295   .     A
C71    C75     1.412   .     S
C71    O135    1.295   .     A
C72    O134    1.295   .     A
C72    C76     1.412   .     S
C72    O133    1.295   .     A
C73    C100    1.409   .     A
C73    C98     1.409   .     A
C73    C210    1.521   1_545 S
C74    C99     1.406   .     A
C74    C209    1.521   .     S
C75    C620    1.192   1_554 S
C76    C347    1.192   .     S
C77    C82     1.384   .     A
C77    H111    1.084   .     S
C77    C88     1.396   .     A
C78    C83     1.398   .     A
C78    C89     1.397   .     A
C78    H112    1.084   .     S
C79    H113    1.084   .     S
C79    C84     1.384   .     A
C79    C89     1.396   .     A
C80    O130    1.303   .     A
C80    O129    1.308   .     A
C80    C87     1.484   .     S
C81    C88     1.397   .     A
C81    C85     1.398   .     A
C81    H114    1.084   .     S
C82    C86     1.418   .     A
C82    Cl101   1.759   .     S
C83    Cl102   1.765   .     S
C83    C87     1.421   .     A
C84    Cl103   1.759   .     S
C84    C87     1.418   .     A
C85    Cl104   1.765   .     S
C85    C86     1.421   .     A
C89    C20     1.470   1_655 S
C90    O122    1.397   .     S
C90    O136    1.221   .     D
C90    C91     1.478   .     S
C91    N119    1.383   .     A
C91    C98     1.420   .     A
C92    O124    1.393   .     S
C92    C95     1.481   .     S
C92    O123    1.217   .     D
C93    O125    1.220   .     D
C93    O126    1.397   .     S
C93    C96     1.477   .     S
C94    O127    1.217   .     D
C94    C97     1.482   .     S
C94    O128    1.393   .     S
C95    N120    1.390   .     A
C95    C99     1.424   .     A
C96    N119    1.383   .     A
C96    C100    1.420   .     A
C97    N120    1.390   .     A
C98    Cl105   1.773   .     S
C99    Cl106   1.774   .     S
C100   Cl107   1.773   .     S
Cu109  Cu110   2.698   .     S
Cu109  O134    1.936   .     S
Cu109  O121    1.970   .     S
Cu109  O130    1.970   .     S
Cu109  N120    2.027   .     S
Cu109  O132    1.936   .     S
Cu110  O133    1.936   .     S
Cu110  N119    2.027   .     S
Cu110  O129    1.970   .     S
Cu110  O135    1.936   .     S
Cu110  O131    1.970   .     S
H115   O122    1.014   .     S
H116   O124    1.014   .     S
H117   O126    1.014   .     S
H118   O128    1.014   .     S
C137   C154    1.484   .     S
C137   O199    1.308   .     A
C137   O189    1.303   .     A
C138   C142    1.406   .     A
C138   Cl176   1.775   .     S
C138   C165    1.424   .     A
C139   O200    1.295   .     A
C139   C143    1.412   .     S
C139   O203    1.295   .     A
C140   O202    1.295   .     A
C140   C144    1.412   .     S
C140   O201    1.295   .     A
C141   C168    1.409   .     A
C141   C166    1.409   .     A
C142   C167    1.406   .     A
C142   C5      1.521   1_565 S
C143   C688    1.192   1_554 S
C144   C415    1.192   .     S
C145   C150    1.384   .     A
C145   H179    1.084   .     S
C145   C156    1.396   .     A
C146   C151    1.398   .     A
C146   C157    1.397   .     A
C146   H180    1.084   .     S
C147   H181    1.084   .     S
C147   C152    1.384   .     A
C147   C157    1.396   .     A
C148   O198    1.303   .     A
C148   O197    1.308   .     A
C148   C155    1.484   .     S
C149   C156    1.397   .     A
C149   C153    1.398   .     A
C149   H182    1.084   .     S
C150   C154    1.418   .     A
C150   Cl169   1.759   .     S
C151   Cl170   1.765   .     S
C151   C155    1.421   .     A
C152   Cl171   1.759   .     S
C152   C155    1.418   .     A
C153   Cl172   1.765   .     S
C153   C154    1.421   .     A
C156   C225    1.470   1_455 S
C157   C224    1.470   .     S
C158   O190    1.397   .     S
C158   O204    1.221   .     D
C158   C159    1.478   .     S
C159   N187    1.383   .     A
C159   C166    1.420   .     A
C160   O192    1.393   .     S
C160   C163    1.481   .     S
C160   O191    1.217   .     D
C161   O193    1.220   .     D
C161   O194    1.397   .     S
C161   C164    1.477   .     S
C162   O195    1.217   .     D
C162   C165    1.482   .     S
C162   O196    1.393   .     S
C163   N188    1.390   .     A
C163   C167    1.424   .     A
C164   N187    1.383   .     A
C164   C168    1.420   .     A
C165   N188    1.390   .     A
C166   Cl173   1.773   .     S
C167   Cl174   1.774   .     S
C168   Cl175   1.773   .     S
Cu177  Cu178   2.698   .     S
Cu177  O202    1.936   .     S
Cu177  O189    1.970   .     S
Cu177  O198    1.970   .     S
Cu177  N188    2.027   .     S
Cu177  O200    1.936   .     S
Cu178  O201    1.936   .     S
Cu178  N187    2.027   .     S
Cu178  O197    1.970   .     S
Cu178  O203    1.936   .     S
Cu178  O199    1.970   .     S
H183   O190    1.014   .     S
H184   O192    1.014   .     S
H185   O194    1.014   .     S
H186   O196    1.014   .     S
C205   C222    1.484   .     S
C205   O267    1.308   .     A
C205   O257    1.303   .     A
C206   C210    1.406   .     A
C206   Cl244   1.775   .     S
C206   C233    1.424   .     A
C207   O268    1.295   .     A
C207   C211    1.412   .     S
C207   O271    1.295   .     A
C208   O270    1.295   .     A
C208   C212    1.412   .     S
C208   O269    1.295   .     A
C209   C236    1.409   .     A
C209   C234    1.409   .     A
C210   C235    1.406   .     A
C210   C73     1.521   1_565 S
C211   C756    1.192   1_554 S
C212   C483    1.192   .     S
C213   C218    1.384   .     A
C213   H247    1.084   .     S
C213   C224    1.396   .     A
C214   C219    1.398   .     A
C214   C225    1.397   .     A
C214   H248    1.084   .     S
C215   H249    1.084   .     S
C215   C220    1.384   .     A
C215   C225    1.396   .     A
C216   O266    1.303   .     A
C216   O265    1.308   .     A
C216   C223    1.484   .     S
C217   C224    1.397   .     A
C217   C221    1.398   .     A
C217   H250    1.084   .     S
C218   C222    1.418   .     A
C218   Cl237   1.759   .     S
C219   Cl238   1.765   .     S
C219   C223    1.421   .     A
C220   Cl239   1.759   .     S
C220   C223    1.418   .     A
C221   Cl240   1.765   .     S
C221   C222    1.421   .     A
C225   C156    1.470   1_655 S
C226   O258    1.397   .     S
C226   O272    1.221   .     D
C226   C227    1.478   .     S
C227   N255    1.383   .     A
C227   C234    1.420   .     A
C228   O260    1.393   .     S
C228   C231    1.481   .     S
C228   O259    1.217   .     D
C229   O261    1.220   .     D
C229   O262    1.397   .     S
C229   C232    1.477   .     S
C230   O263    1.217   .     D
C230   C233    1.482   .     S
C230   O264    1.393   .     S
C231   N256    1.390   .     A
C231   C235    1.424   .     A
C232   N255    1.383   .     A
C232   C236    1.420   .     A
C233   N256    1.390   .     A
C234   Cl241   1.773   .     S
C235   Cl242   1.774   .     S
C236   Cl243   1.773   .     S
Cu245  Cu246   2.698   .     S
Cu245  O270    1.936   .     S
Cu245  O257    1.970   .     S
Cu245  O266    1.970   .     S
Cu245  N256    2.027   .     S
Cu245  O268    1.936   .     S
Cu246  O269    1.936   .     S
Cu246  N255    2.027   .     S
Cu246  O265    1.970   .     S
Cu246  O271    1.936   .     S
Cu246  O267    1.970   .     S
H251   O258    1.014   .     S
H252   O260    1.014   .     S
H253   O262    1.014   .     S
H254   O264    1.014   .     S
C273   C290    1.484   .     S
C273   O335    1.308   .     A
C273   O325    1.303   .     A
C274   C278    1.406   .     A
C274   Cl312   1.775   .     S
C274   C301    1.424   .     A
C275   O336    1.295   .     A
C275   C279    1.412   .     S
C275   O339    1.295   .     A
C276   O338    1.295   .     A
C276   C280    1.412   .     S
C276   O337    1.295   .     A
C277   C304    1.409   .     A
C277   C302    1.409   .     A
C277   C414    1.521   1_545 S
C278   C303    1.406   .     A
C278   C413    1.521   .     S
C280   C551    1.192   .     S
C281   C286    1.384   .     A
C281   H315    1.084   .     S
C281   C292    1.396   .     A
C282   C287    1.398   .     A
C282   C293    1.397   .     A
C282   H316    1.084   .     S
C283   H317    1.084   .     S
C283   C288    1.384   .     A
C283   C293    1.396   .     A
C284   O334    1.303   .     A
C284   O333    1.308   .     A
C284   C291    1.484   .     S
C285   C292    1.397   .     A
C285   C289    1.398   .     A
C285   H318    1.084   .     S
C286   C290    1.418   .     A
C286   Cl305   1.759   .     S
C287   Cl306   1.765   .     S
C287   C291    1.421   .     A
C288   Cl307   1.759   .     S
C288   C291    1.418   .     A
C289   Cl308   1.765   .     S
C289   C290    1.421   .     A
C292   C361    1.470   1_455 S
C293   C360    1.470   .     S
C294   O326    1.397   .     S
C294   O340    1.221   .     D
C294   C295    1.478   .     S
C295   N323    1.383   .     A
C295   C302    1.420   .     A
C296   O328    1.393   .     S
C296   C299    1.481   .     S
C296   O327    1.217   .     D
C297   O329    1.220   .     D
C297   O330    1.397   .     S
C297   C300    1.477   .     S
C298   O331    1.217   .     D
C298   C301    1.482   .     S
C298   O332    1.393   .     S
C299   N324    1.390   .     A
C299   C303    1.424   .     A
C300   N323    1.383   .     A
C300   C304    1.420   .     A
C301   N324    1.390   .     A
C302   Cl309   1.773   .     S
C303   Cl310   1.774   .     S
C304   Cl311   1.773   .     S
Cu313  Cu314   2.698   .     S
Cu313  O338    1.936   .     S
Cu313  O325    1.970   .     S
Cu313  O334    1.970   .     S
Cu313  N324    2.027   .     S
Cu313  O336    1.936   .     S
Cu314  O337    1.936   .     S
Cu314  N323    2.027   .     S
Cu314  O333    1.970   .     S
Cu314  O339    1.936   .     S
Cu314  O335    1.970   .     S
H319   O326    1.014   .     S
H320   O328    1.014   .     S
H321   O330    1.014   .     S
H322   O332    1.014   .     S
C341   C358    1.484   .     S
C341   O403    1.308   .     A
C341   O393    1.303   .     A
C342   C346    1.406   .     A
C342   Cl380   1.775   .     S
C342   C369    1.424   .     A
C343   O404    1.295   .     A
C343   C347    1.412   .     S
C343   O407    1.295   .     A
C344   O406    1.295   .     A
C344   C348    1.412   .     S
C344   O405    1.295   .     A
C345   C372    1.409   .     A
C345   C370    1.409   .     A
C345   C482    1.521   1_545 S
C346   C371    1.406   .     A
C346   C481    1.521   .     S
C348   C619    1.192   .     S
C349   C354    1.384   .     A
C349   H383    1.084   .     S
C349   C360    1.396   .     A
C350   C355    1.398   .     A
C350   C361    1.397   .     A
C350   H384    1.084   .     S
C351   H385    1.084   .     S
C351   C356    1.384   .     A
C351   C361    1.396   .     A
C352   O402    1.303   .     A
C352   O401    1.308   .     A
C352   C359    1.484   .     S
C353   C360    1.397   .     A
C353   C357    1.398   .     A
C353   H386    1.084   .     S
C354   C358    1.418   .     A
C354   Cl373   1.759   .     S
C355   Cl374   1.765   .     S
C355   C359    1.421   .     A
C356   Cl375   1.759   .     S
C356   C359    1.418   .     A
C357   Cl376   1.765   .     S
C357   C358    1.421   .     A
C361   C292    1.470   1_655 S
C362   O394    1.397   .     S
C362   O408    1.221   .     D
C362   C363    1.478   .     S
C363   N391    1.383   .     A
C363   C370    1.420   .     A
C364   O396    1.393   .     S
C364   C367    1.481   .     S
C364   O395    1.217   .     D
C365   O397    1.220   .     D
C365   O398    1.397   .     S
C365   C368    1.477   .     S
C366   O399    1.217   .     D
C366   C369    1.482   .     S
C366   O400    1.393   .     S
C367   N392    1.390   .     A
C367   C371    1.424   .     A
C368   N391    1.383   .     A
C368   C372    1.420   .     A
C369   N392    1.390   .     A
C370   Cl377   1.773   .     S
C371   Cl378   1.774   .     S
C372   Cl379   1.773   .     S
Cu381  Cu382   2.698   .     S
Cu381  O406    1.936   .     S
Cu381  O393    1.970   .     S
Cu381  O402    1.970   .     S
Cu381  N392    2.027   .     S
Cu381  O404    1.936   .     S
Cu382  O405    1.936   .     S
Cu382  N391    2.027   .     S
Cu382  O401    1.970   .     S
Cu382  O407    1.936   .     S
Cu382  O403    1.970   .     S
H387   O394    1.014   .     S
H388   O396    1.014   .     S
H389   O398    1.014   .     S
H390   O400    1.014   .     S
C409   C426    1.484   .     S
C409   O471    1.308   .     A
C409   O461    1.303   .     A
C410   C414    1.406   .     A
C410   Cl448   1.775   .     S
C410   C437    1.424   .     A
C411   O472    1.295   .     A
C411   C415    1.412   .     S
C411   O475    1.295   .     A
C412   O474    1.295   .     A
C412   C416    1.412   .     S
C412   O473    1.295   .     A
C413   C440    1.409   .     A
C413   C438    1.409   .     A
C414   C439    1.406   .     A
C414   C277    1.521   1_565 S
C416   C687    1.192   .     S
C417   C422    1.384   .     A
C417   H451    1.084   .     S
C417   C428    1.396   .     A
C418   C423    1.398   .     A
C418   C429    1.397   .     A
C418   H452    1.084   .     S
C419   H453    1.084   .     S
C419   C424    1.384   .     A
C419   C429    1.396   .     A
C420   O470    1.303   .     A
C420   O469    1.308   .     A
C420   C427    1.484   .     S
C421   C428    1.397   .     A
C421   C425    1.398   .     A
C421   H454    1.084   .     S
C422   C426    1.418   .     A
C422   Cl441   1.759   .     S
C423   Cl442   1.765   .     S
C423   C427    1.421   .     A
C424   Cl443   1.759   .     S
C424   C427    1.418   .     A
C425   Cl444   1.765   .     S
C425   C426    1.421   .     A
C428   C497    1.470   1_455 S
C429   C496    1.470   .     S
C430   O462    1.397   .     S
C430   O476    1.221   .     D
C430   C431    1.478   .     S
C431   N459    1.383   .     A
C431   C438    1.420   .     A
C432   O464    1.393   .     S
C432   C435    1.481   .     S
C432   O463    1.217   .     D
C433   O465    1.220   .     D
C433   O466    1.397   .     S
C433   C436    1.477   .     S
C434   O467    1.217   .     D
C434   C437    1.482   .     S
C434   O468    1.393   .     S
C435   N460    1.390   .     A
C435   C439    1.424   .     A
C436   N459    1.383   .     A
C436   C440    1.420   .     A
C437   N460    1.390   .     A
C438   Cl445   1.773   .     S
C439   Cl446   1.774   .     S
C440   Cl447   1.773   .     S
Cu449  Cu450   2.698   .     S
Cu449  O474    1.936   .     S
Cu449  O461    1.970   .     S
Cu449  O470    1.970   .     S
Cu449  N460    2.027   .     S
Cu449  O472    1.936   .     S
Cu450  O473    1.936   .     S
Cu450  N459    2.027   .     S
Cu450  O469    1.970   .     S
Cu450  O475    1.936   .     S
Cu450  O471    1.970   .     S
H455   O462    1.014   .     S
H456   O464    1.014   .     S
H457   O466    1.014   .     S
H458   O468    1.014   .     S
C477   C494    1.484   .     S
C477   O539    1.308   .     A
C477   O529    1.303   .     A
C478   C482    1.406   .     A
C478   Cl516   1.775   .     S
C478   C505    1.424   .     A
C479   O540    1.295   .     A
C479   C483    1.412   .     S
C479   O543    1.295   .     A
C480   O542    1.295   .     A
C480   C484    1.412   .     S
C480   O541    1.295   .     A
C481   C508    1.409   .     A
C481   C506    1.409   .     A
C482   C507    1.406   .     A
C482   C345    1.521   1_565 S
C484   C755    1.192   .     S
C485   C490    1.384   .     A
C485   H519    1.084   .     S
C485   C496    1.396   .     A
C486   C491    1.398   .     A
C486   C497    1.397   .     A
C486   H520    1.084   .     S
C487   H521    1.084   .     S
C487   C492    1.384   .     A
C487   C497    1.396   .     A
C488   O538    1.303   .     A
C488   O537    1.308   .     A
C488   C495    1.484   .     S
C489   C496    1.397   .     A
C489   C493    1.398   .     A
C489   H522    1.084   .     S
C490   C494    1.418   .     A
C490   Cl509   1.759   .     S
C491   Cl510   1.765   .     S
C491   C495    1.421   .     A
C492   Cl511   1.759   .     S
C492   C495    1.418   .     A
C493   Cl512   1.765   .     S
C493   C494    1.421   .     A
C497   C428    1.470   1_655 S
C498   O530    1.397   .     S
C498   O544    1.221   .     D
C498   C499    1.478   .     S
C499   N527    1.383   .     A
C499   C506    1.420   .     A
C500   O532    1.393   .     S
C500   C503    1.481   .     S
C500   O531    1.217   .     D
C501   O533    1.220   .     D
C501   O534    1.397   .     S
C501   C504    1.477   .     S
C502   O535    1.217   .     D
C502   C505    1.482   .     S
C502   O536    1.393   .     S
C503   N528    1.390   .     A
C503   C507    1.424   .     A
C504   N527    1.383   .     A
C504   C508    1.420   .     A
C505   N528    1.390   .     A
C506   Cl513   1.773   .     S
C507   Cl514   1.774   .     S
C508   Cl515   1.773   .     S
Cu517  Cu518   2.698   .     S
Cu517  O542    1.936   .     S
Cu517  O529    1.970   .     S
Cu517  O538    1.970   .     S
Cu517  N528    2.027   .     S
Cu517  O540    1.936   .     S
Cu518  O541    1.936   .     S
Cu518  N527    2.027   .     S
Cu518  O537    1.970   .     S
Cu518  O543    1.936   .     S
Cu518  O539    1.970   .     S
H523   O530    1.014   .     S
H524   O532    1.014   .     S
H525   O534    1.014   .     S
H526   O536    1.014   .     S
C545   C562    1.484   .     S
C545   O607    1.308   .     A
C545   O597    1.303   .     A
C546   C550    1.406   .     A
C546   Cl584   1.775   .     S
C546   C573    1.424   .     A
C547   O608    1.295   .     A
C547   C551    1.412   .     S
C547   O611    1.295   .     A
C548   O610    1.295   .     A
C548   C552    1.412   .     S
C548   O609    1.295   .     A
C549   C576    1.409   .     A
C549   C574    1.409   .     A
C549   C686    1.521   1_545 S
C550   C575    1.406   .     A
C550   C685    1.521   .     S
C552   C7      1.192   1_556 S
C553   C558    1.384   .     A
C553   H587    1.084   .     S
C553   C564    1.396   .     A
C554   C559    1.398   .     A
C554   C565    1.397   .     A
C554   H588    1.084   .     S
C555   H589    1.084   .     S
C555   C560    1.384   .     A
C555   C565    1.396   .     A
C556   O606    1.303   .     A
C556   O605    1.308   .     A
C556   C563    1.484   .     S
C557   C564    1.397   .     A
C557   C561    1.398   .     A
C557   H590    1.084   .     S
C558   C562    1.418   .     A
C558   Cl577   1.759   .     S
C559   Cl578   1.765   .     S
C559   C563    1.421   .     A
C560   Cl579   1.759   .     S
C560   C563    1.418   .     A
C561   Cl580   1.765   .     S
C561   C562    1.421   .     A
C564   C633    1.470   1_455 S
C565   C632    1.470   .     S
C566   O598    1.397   .     S
C566   O612    1.221   .     D
C566   C567    1.478   .     S
C567   N595    1.383   .     A
C567   C574    1.420   .     A
C568   O600    1.393   .     S
C568   C571    1.481   .     S
C568   O599    1.217   .     D
C569   O601    1.220   .     D
C569   O602    1.397   .     S
C569   C572    1.477   .     S
C570   O603    1.217   .     D
C570   C573    1.482   .     S
C570   O604    1.393   .     S
C571   N596    1.390   .     A
C571   C575    1.424   .     A
C572   N595    1.383   .     A
C572   C576    1.420   .     A
C573   N596    1.390   .     A
C574   Cl581   1.773   .     S
C575   Cl582   1.774   .     S
C576   Cl583   1.773   .     S
Cu585  Cu586   2.698   .     S
Cu585  O610    1.936   .     S
Cu585  O597    1.970   .     S
Cu585  O606    1.970   .     S
Cu585  N596    2.027   .     S
Cu585  O608    1.936   .     S
Cu586  O609    1.936   .     S
Cu586  N595    2.027   .     S
Cu586  O605    1.970   .     S
Cu586  O611    1.936   .     S
Cu586  O607    1.970   .     S
H591   O598    1.014   .     S
H592   O600    1.014   .     S
H593   O602    1.014   .     S
H594   O604    1.014   .     S
C613   C630    1.484   .     S
C613   O675    1.308   .     A
C613   O665    1.303   .     A
C614   C618    1.406   .     A
C614   Cl652   1.775   .     S
C614   C641    1.424   .     A
C615   O676    1.295   .     A
C615   C619    1.412   .     S
C615   O679    1.295   .     A
C616   O678    1.295   .     A
C616   C620    1.412   .     S
C616   O677    1.295   .     A
C617   C644    1.409   .     A
C617   C642    1.409   .     A
C617   C754    1.521   1_545 S
C618   C643    1.406   .     A
C618   C753    1.521   .     S
C620   C75     1.192   1_556 S
C621   C626    1.384   .     A
C621   H655    1.084   .     S
C621   C632    1.396   .     A
C622   C627    1.398   .     A
C622   C633    1.397   .     A
C622   H656    1.084   .     S
C623   H657    1.084   .     S
C623   C628    1.384   .     A
C623   C633    1.396   .     A
C624   O674    1.303   .     A
C624   O673    1.308   .     A
C624   C631    1.484   .     S
C625   C632    1.397   .     A
C625   C629    1.398   .     A
C625   H658    1.084   .     S
C626   C630    1.418   .     A
C626   Cl645   1.759   .     S
C627   Cl646   1.765   .     S
C627   C631    1.421   .     A
C628   Cl647   1.759   .     S
C628   C631    1.418   .     A
C629   Cl648   1.765   .     S
C629   C630    1.421   .     A
C633   C564    1.470   1_655 S
C634   O666    1.397   .     S
C634   O680    1.221   .     D
C634   C635    1.478   .     S
C635   N663    1.383   .     A
C635   C642    1.420   .     A
C636   O668    1.393   .     S
C636   C639    1.481   .     S
C636   O667    1.217   .     D
C637   O669    1.220   .     D
C637   O670    1.397   .     S
C637   C640    1.477   .     S
C638   O671    1.217   .     D
C638   C641    1.482   .     S
C638   O672    1.393   .     S
C639   N664    1.390   .     A
C639   C643    1.424   .     A
C640   N663    1.383   .     A
C640   C644    1.420   .     A
C641   N664    1.390   .     A
C642   Cl649   1.773   .     S
C643   Cl650   1.774   .     S
C644   Cl651   1.773   .     S
Cu653  Cu654   2.698   .     S
Cu653  O678    1.936   .     S
Cu653  O665    1.970   .     S
Cu653  O674    1.970   .     S
Cu653  N664    2.027   .     S
Cu653  O676    1.936   .     S
Cu654  O677    1.936   .     S
Cu654  N663    2.027   .     S
Cu654  O673    1.970   .     S
Cu654  O679    1.936   .     S
Cu654  O675    1.970   .     S
H659   O666    1.014   .     S
H660   O668    1.014   .     S
H661   O670    1.014   .     S
H662   O672    1.014   .     S
C681   C698    1.484   .     S
C681   O743    1.308   .     A
C681   O733    1.303   .     A
C682   C686    1.406   .     A
C682   Cl720   1.775   .     S
C682   C709    1.424   .     A
C683   O744    1.295   .     A
C683   C687    1.412   .     S
C683   O747    1.295   .     A
C684   O746    1.295   .     A
C684   C688    1.412   .     S
C684   O745    1.295   .     A
C685   C712    1.409   .     A
C685   C710    1.409   .     A
C686   C711    1.406   .     A
C686   C549    1.521   1_565 S
C688   C143    1.192   1_556 S
C689   C694    1.384   .     A
C689   H723    1.084   .     S
C689   C700    1.396   .     A
C690   C695    1.398   .     A
C690   C701    1.397   .     A
C690   H724    1.084   .     S
C691   H725    1.084   .     S
C691   C696    1.384   .     A
C691   C701    1.396   .     A
C692   O742    1.303   .     A
C692   O741    1.308   .     A
C692   C699    1.484   .     S
C693   C700    1.397   .     A
C693   C697    1.398   .     A
C693   H726    1.084   .     S
C694   C698    1.418   .     A
C694   Cl713   1.759   .     S
C695   Cl714   1.765   .     S
C695   C699    1.421   .     A
C696   Cl715   1.759   .     S
C696   C699    1.418   .     A
C697   Cl716   1.765   .     S
C697   C698    1.421   .     A
C700   C769    1.470   1_455 S
C701   C768    1.470   .     S
C702   O734    1.397   .     S
C702   O748    1.221   .     D
C702   C703    1.478   .     S
C703   N731    1.383   .     A
C703   C710    1.420   .     A
C704   O736    1.393   .     S
C704   C707    1.481   .     S
C704   O735    1.217   .     D
C705   O737    1.220   .     D
C705   O738    1.397   .     S
C705   C708    1.477   .     S
C706   O739    1.217   .     D
C706   C709    1.482   .     S
C706   O740    1.393   .     S
C707   N732    1.390   .     A
C707   C711    1.424   .     A
C708   N731    1.383   .     A
C708   C712    1.420   .     A
C709   N732    1.390   .     A
C710   Cl717   1.773   .     S
C711   Cl718   1.774   .     S
C712   Cl719   1.773   .     S
Cu721  Cu722   2.698   .     S
Cu721  O746    1.936   .     S
Cu721  O733    1.970   .     S
Cu721  O742    1.970   .     S
Cu721  N732    2.027   .     S
Cu721  O744    1.936   .     S
Cu722  O745    1.936   .     S
Cu722  N731    2.027   .     S
Cu722  O741    1.970   .     S
Cu722  O747    1.936   .     S
Cu722  O743    1.970   .     S
H727   O734    1.014   .     S
H728   O736    1.014   .     S
H729   O738    1.014   .     S
H730   O740    1.014   .     S
C749   C766    1.484   .     S
C749   O811    1.308   .     A
C749   O801    1.303   .     A
C750   C754    1.406   .     A
C750   Cl788   1.775   .     S
C750   C777    1.424   .     A
C751   O812    1.295   .     A
C751   C755    1.412   .     S
C751   O815    1.295   .     A
C752   O814    1.295   .     A
C752   C756    1.412   .     S
C752   O813    1.295   .     A
C753   C780    1.409   .     A
C753   C778    1.409   .     A
C754   C779    1.406   .     A
C754   C617    1.521   1_565 S
C756   C211    1.192   1_556 S
C757   C762    1.384   .     A
C757   H791    1.084   .     S
C757   C768    1.396   .     A
C758   C763    1.398   .     A
C758   C769    1.397   .     A
C758   H792    1.084   .     S
C759   H793    1.084   .     S
C759   C764    1.384   .     A
C759   C769    1.396   .     A
C760   O810    1.303   .     A
C760   O809    1.308   .     A
C760   C767    1.484   .     S
C761   C768    1.397   .     A
C761   C765    1.398   .     A
C761   H794    1.084   .     S
C762   C766    1.418   .     A
C762   Cl781   1.759   .     S
C763   Cl782   1.765   .     S
C763   C767    1.421   .     A
C764   Cl783   1.759   .     S
C764   C767    1.418   .     A
C765   Cl784   1.765   .     S
C765   C766    1.421   .     A
C769   C700    1.470   1_655 S
C770   O802    1.397   .     S
C770   O816    1.221   .     D
C770   C771    1.478   .     S
C771   N799    1.383   .     A
C771   C778    1.420   .     A
C772   O804    1.393   .     S
C772   C775    1.481   .     S
C772   O803    1.217   .     D
C773   O805    1.220   .     D
C773   O806    1.397   .     S
C773   C776    1.477   .     S
C774   O807    1.217   .     D
C774   C777    1.482   .     S
C774   O808    1.393   .     S
C775   N800    1.390   .     A
C775   C779    1.424   .     A
C776   N799    1.383   .     A
C776   C780    1.420   .     A
C777   N800    1.390   .     A
C778   Cl785   1.773   .     S
C779   Cl786   1.774   .     S
C780   Cl787   1.773   .     S
Cu789  Cu790   2.698   .     S
Cu789  O814    1.936   .     S
Cu789  O801    1.970   .     S
Cu789  O810    1.970   .     S
Cu789  N800    2.027   .     S
Cu789  O812    1.936   .     S
Cu790  O813    1.936   .     S
Cu790  N799    2.027   .     S
Cu790  O809    1.970   .     S
Cu790  O815    1.936   .     S
Cu790  O811    1.970   .     S
H795   O802    1.014   .     S
H796   O804    1.014   .     S
H797   O806    1.014   .     S
H798   O808    1.014   .     S
