data_str_m2_o10_o17_pcu_sym.136
_audit_creation_date              2020-01-03
_audit_creation_method            'Materials Studio'
_symmetry_space_group_name_H-M    'P1'
_symmetry_Int_Tables_number       1
_symmetry_cell_setting            triclinic
loop_
_symmetry_equiv_pos_as_xyz
  x,y,z
_cell_length_a                    29.9228
_cell_length_b                    26.0033
_cell_length_c                    22.5649
_cell_angle_alpha                 101.4902
_cell_angle_beta                  95.2930
_cell_angle_gamma                 92.6092
loop_
_atom_site_label
_atom_site_type_symbol
_atom_site_fract_x
_atom_site_fract_y
_atom_site_fract_z
_atom_site_U_iso_or_equiv
_atom_site_adp_type
_atom_site_occupancy
O1     O     0.25325   0.09538   0.20659   0.00000  Uiso   1.00
O2     O     0.24674   0.23796   0.12674   0.00000  Uiso   1.00
O3     O     0.24480   0.08559   0.10279   0.00000  Uiso   1.00
O4     O     0.25520   0.24774   0.23055   0.00000  Uiso   1.00
C5     C     0.24685   0.06710   0.15216   0.00000  Uiso   1.00
C6     C     0.25315   0.26623   0.18118   0.00000  Uiso   1.00
O7     O     0.18935   0.17155   0.21857   0.00000  Uiso   1.00
O8     O     0.31064   0.16179   0.11476   0.00000  Uiso   1.00
O9     O     0.18090   0.16176   0.11477   0.00000  Uiso   1.00
O10    O     0.31910   0.17157   0.21857   0.00000  Uiso   1.00
C11    C     0.16466   0.16661   0.16695   0.00000  Uiso   1.00
C12    C     0.33534   0.16672   0.16638   0.00000  Uiso   1.00
Cu13   Cu    0.25500   0.17246   0.22813   0.00000  Uiso   1.00
Cu14   Cu    0.24499   0.16087   0.10521   0.00000  Uiso   1.00
C15    C     0.41017   0.21091   0.19764   0.00000  Uiso   1.00
C16    C     0.08983   0.12242   0.13569   0.00000  Uiso   1.00
C17    C     0.38351   0.16693   0.16595   0.00000  Uiso   1.00
C18    C     0.11649   0.16640   0.16738   0.00000  Uiso   1.00
C19    C     0.40255   0.12304   0.13482   0.00000  Uiso   1.00
C20    C     0.09745   0.21029   0.19851   0.00000  Uiso   1.00
C21    C     0.44907   0.12255   0.13542   0.00000  Uiso   1.00
C22    C     0.05093   0.21079   0.19790   0.00000  Uiso   1.00
C23    C     0.47659   0.16691   0.16711   0.00000  Uiso   1.00
C24    C     0.02341   0.16642   0.16621   0.00000  Uiso   1.00
C25    C     0.45718   0.21166   0.19946   0.00000  Uiso   1.00
C26    C     0.04282   0.12167   0.13387   0.00000  Uiso   1.00
C27    C     0.46816   0.07829   0.10441   0.00000  Uiso   1.00
C28    C     0.03184   0.25505   0.22890   0.00000  Uiso   1.00
C29    C     0.01464   0.07738   0.10232   0.00000  Uiso   1.00
C30    C     0.48536   0.25595   0.23099   0.00000  Uiso   1.00
H31    H     0.39332   0.24447   0.21904   0.00000  Uiso   1.00
H32    H     0.10668   0.08886   0.11430   0.00000  Uiso   1.00
H33    H     0.38104   0.08920   0.11067   0.00000  Uiso   1.00
H34    H     0.11896   0.24414   0.22265   0.00000  Uiso   1.00
H35    H     0.44650   0.04450   0.08045   0.00000  Uiso   1.00
H36    H     0.05350   0.28883   0.25286   0.00000  Uiso   1.00
C37    C     0.23724   0.01243   0.14827   0.00000  Uiso   1.00
C38    C     0.26276   0.32091   0.18506   0.00000  Uiso   1.00
N39    N     0.23744   0.15214   0.01284   0.00000  Uiso   1.00
N40    N     0.26255   0.18119   0.32049   0.00000  Uiso   1.00
C41    C     0.03129   0.02923   0.06626   0.00000  Uiso   1.00
H42    H     0.01389   0.32465   0.06456   0.00000  Uiso   1.00
O43    O     0.06228   0.03140   0.03508   0.00000  Uiso   1.00
C44    C     0.46871   0.30411   0.26703   0.00000  Uiso   1.00
H45    H     0.48610   0.00868   0.26870   0.00000  Uiso   1.00
O46    O     0.43772   0.30195   0.29822   0.00000  Uiso   1.00
C47    C     0.19347   0.32387   0.11275   0.00000  Uiso   1.00
H48    H     0.18066   0.00726   0.07463   0.00000  Uiso   1.00
O49    O     0.17018   0.28966   0.12748   0.00000  Uiso   1.00
C50    C     0.30653   0.00947   0.22058   0.00000  Uiso   1.00
H51    H     0.31934   0.32606   0.25869   0.00000  Uiso   1.00
O52    O     0.32982   0.04368   0.20586   0.00000  Uiso   1.00
N53    N     0.22315   0.10298   0.31162   0.00000  Uiso   1.00
O54    O     0.24762   0.06339   0.31503   0.00000  Uiso   1.00
O55    O     0.18104   0.09367   0.29032   0.00000  Uiso   1.00
N56    N     0.27684   0.23036   0.02171   0.00000  Uiso   1.00
O57    O     0.25235   0.26993   0.01830   0.00000  Uiso   1.00
O58    O     0.31895   0.23968   0.04299   0.00000  Uiso   1.00
O59    O     0.75325   0.09538   0.20659   0.00000  Uiso   1.00
O60    O     0.74674   0.23796   0.12674   0.00000  Uiso   1.00
O61    O     0.74480   0.08559   0.10279   0.00000  Uiso   1.00
O62    O     0.75520   0.24774   0.23055   0.00000  Uiso   1.00
C63    C     0.74685   0.06710   0.15216   0.00000  Uiso   1.00
C64    C     0.75315   0.26623   0.18118   0.00000  Uiso   1.00
O65    O     0.68935   0.17155   0.21857   0.00000  Uiso   1.00
O66    O     0.81064   0.16179   0.11476   0.00000  Uiso   1.00
O67    O     0.68090   0.16176   0.11477   0.00000  Uiso   1.00
O68    O     0.81910   0.17157   0.21857   0.00000  Uiso   1.00
C69    C     0.66466   0.16661   0.16695   0.00000  Uiso   1.00
C70    C     0.83534   0.16672   0.16638   0.00000  Uiso   1.00
Cu71   Cu    0.75500   0.17246   0.22813   0.00000  Uiso   1.00
Cu72   Cu    0.74499   0.16087   0.10521   0.00000  Uiso   1.00
C73    C     0.91017   0.21091   0.19764   0.00000  Uiso   1.00
C74    C     0.58983   0.12242   0.13569   0.00000  Uiso   1.00
C75    C     0.88351   0.16693   0.16595   0.00000  Uiso   1.00
C76    C     0.61649   0.16640   0.16738   0.00000  Uiso   1.00
C77    C     0.90255   0.12304   0.13482   0.00000  Uiso   1.00
C78    C     0.59745   0.21029   0.19851   0.00000  Uiso   1.00
C79    C     0.94907   0.12255   0.13542   0.00000  Uiso   1.00
C80    C     0.55093   0.21079   0.19790   0.00000  Uiso   1.00
C81    C     0.97659   0.16691   0.16711   0.00000  Uiso   1.00
C82    C     0.52341   0.16642   0.16621   0.00000  Uiso   1.00
C83    C     0.95718   0.21166   0.19946   0.00000  Uiso   1.00
C84    C     0.54282   0.12167   0.13387   0.00000  Uiso   1.00
C85    C     0.96816   0.07829   0.10441   0.00000  Uiso   1.00
C86    C     0.53184   0.25505   0.22890   0.00000  Uiso   1.00
C87    C     0.51464   0.07738   0.10232   0.00000  Uiso   1.00
C88    C     0.98536   0.25595   0.23099   0.00000  Uiso   1.00
H89    H     0.89332   0.24447   0.21904   0.00000  Uiso   1.00
H90    H     0.60668   0.08886   0.11430   0.00000  Uiso   1.00
H91    H     0.88104   0.08920   0.11067   0.00000  Uiso   1.00
H92    H     0.61896   0.24414   0.22265   0.00000  Uiso   1.00
H93    H     0.94650   0.04450   0.08045   0.00000  Uiso   1.00
H94    H     0.55350   0.28883   0.25286   0.00000  Uiso   1.00
C95    C     0.73724   0.01243   0.14827   0.00000  Uiso   1.00
C96    C     0.76276   0.32091   0.18506   0.00000  Uiso   1.00
N97    N     0.73744   0.15214   0.01284   0.00000  Uiso   1.00
N98    N     0.76255   0.18119   0.32049   0.00000  Uiso   1.00
C99    C     0.53129   0.02923   0.06626   0.00000  Uiso   1.00
H100   H     0.51389   0.32465   0.06456   0.00000  Uiso   1.00
O101   O     0.56228   0.03140   0.03508   0.00000  Uiso   1.00
C102   C     0.96871   0.30411   0.26703   0.00000  Uiso   1.00
H103   H     0.98610   0.00868   0.26870   0.00000  Uiso   1.00
O104   O     0.93772   0.30195   0.29822   0.00000  Uiso   1.00
C105   C     0.69347   0.32387   0.11275   0.00000  Uiso   1.00
H106   H     0.68066   0.00726   0.07463   0.00000  Uiso   1.00
O107   O     0.67018   0.28966   0.12748   0.00000  Uiso   1.00
C108   C     0.80653   0.00947   0.22058   0.00000  Uiso   1.00
H109   H     0.81934   0.32606   0.25869   0.00000  Uiso   1.00
O110   O     0.82982   0.04368   0.20586   0.00000  Uiso   1.00
N111   N     0.72315   0.10298   0.31162   0.00000  Uiso   1.00
O112   O     0.74762   0.06339   0.31503   0.00000  Uiso   1.00
O113   O     0.68104   0.09367   0.29032   0.00000  Uiso   1.00
N114   N     0.77684   0.23036   0.02171   0.00000  Uiso   1.00
O115   O     0.75235   0.26993   0.01830   0.00000  Uiso   1.00
O116   O     0.81895   0.23968   0.04299   0.00000  Uiso   1.00
O117   O     0.25325   0.42871   0.20659   0.00000  Uiso   1.00
O118   O     0.24674   0.57129   0.12674   0.00000  Uiso   1.00
O119   O     0.24480   0.41892   0.10279   0.00000  Uiso   1.00
O120   O     0.25520   0.58108   0.23055   0.00000  Uiso   1.00
C121   C     0.24685   0.40044   0.15216   0.00000  Uiso   1.00
C122   C     0.25315   0.59956   0.18118   0.00000  Uiso   1.00
O123   O     0.18935   0.50488   0.21857   0.00000  Uiso   1.00
O124   O     0.31064   0.49512   0.11476   0.00000  Uiso   1.00
O125   O     0.18090   0.49510   0.11477   0.00000  Uiso   1.00
O126   O     0.31910   0.50490   0.21857   0.00000  Uiso   1.00
C127   C     0.16466   0.49994   0.16695   0.00000  Uiso   1.00
C128   C     0.33534   0.50006   0.16638   0.00000  Uiso   1.00
Cu129  Cu    0.25500   0.50579   0.22813   0.00000  Uiso   1.00
Cu130  Cu    0.24499   0.49421   0.10521   0.00000  Uiso   1.00
C131   C     0.41017   0.54425   0.19764   0.00000  Uiso   1.00
C132   C     0.08983   0.45575   0.13569   0.00000  Uiso   1.00
C133   C     0.38351   0.50027   0.16595   0.00000  Uiso   1.00
C134   C     0.11649   0.49973   0.16738   0.00000  Uiso   1.00
C135   C     0.40255   0.45637   0.13482   0.00000  Uiso   1.00
C136   C     0.09745   0.54363   0.19851   0.00000  Uiso   1.00
C137   C     0.44907   0.45588   0.13542   0.00000  Uiso   1.00
C138   C     0.05093   0.54412   0.19790   0.00000  Uiso   1.00
C139   C     0.47659   0.50024   0.16711   0.00000  Uiso   1.00
C140   C     0.02341   0.49976   0.16621   0.00000  Uiso   1.00
C141   C     0.45718   0.54500   0.19946   0.00000  Uiso   1.00
C142   C     0.04282   0.45500   0.13387   0.00000  Uiso   1.00
C143   C     0.46816   0.41162   0.10441   0.00000  Uiso   1.00
C144   C     0.03184   0.58838   0.22890   0.00000  Uiso   1.00
C145   C     0.01464   0.41072   0.10232   0.00000  Uiso   1.00
C146   C     0.48536   0.58928   0.23099   0.00000  Uiso   1.00
H147   H     0.39332   0.57781   0.21904   0.00000  Uiso   1.00
H148   H     0.10668   0.42219   0.11430   0.00000  Uiso   1.00
H149   H     0.38104   0.42253   0.11067   0.00000  Uiso   1.00
H150   H     0.11896   0.57747   0.22265   0.00000  Uiso   1.00
H151   H     0.44650   0.37784   0.08045   0.00000  Uiso   1.00
H152   H     0.05350   0.62216   0.25286   0.00000  Uiso   1.00
C153   C     0.23724   0.34576   0.14827   0.00000  Uiso   1.00
C154   C     0.26276   0.65424   0.18506   0.00000  Uiso   1.00
N155   N     0.23744   0.48547   0.01284   0.00000  Uiso   1.00
N156   N     0.26255   0.51453   0.32049   0.00000  Uiso   1.00
C157   C     0.03129   0.36256   0.06626   0.00000  Uiso   1.00
H158   H     0.01389   0.65798   0.06456   0.00000  Uiso   1.00
O159   O     0.06228   0.36473   0.03508   0.00000  Uiso   1.00
C160   C     0.46871   0.63744   0.26703   0.00000  Uiso   1.00
H161   H     0.48610   0.34201   0.26870   0.00000  Uiso   1.00
O162   O     0.43772   0.63528   0.29822   0.00000  Uiso   1.00
C163   C     0.19347   0.65720   0.11275   0.00000  Uiso   1.00
H164   H     0.18066   0.34059   0.07463   0.00000  Uiso   1.00
O165   O     0.17018   0.62299   0.12748   0.00000  Uiso   1.00
C166   C     0.30653   0.34280   0.22058   0.00000  Uiso   1.00
H167   H     0.31934   0.65939   0.25869   0.00000  Uiso   1.00
O168   O     0.32982   0.37702   0.20586   0.00000  Uiso   1.00
N169   N     0.22315   0.43631   0.31162   0.00000  Uiso   1.00
O170   O     0.24762   0.39672   0.31503   0.00000  Uiso   1.00
O171   O     0.18104   0.42701   0.29032   0.00000  Uiso   1.00
N172   N     0.27684   0.56369   0.02171   0.00000  Uiso   1.00
O173   O     0.25235   0.60327   0.01830   0.00000  Uiso   1.00
O174   O     0.31895   0.57301   0.04299   0.00000  Uiso   1.00
O175   O     0.75325   0.42871   0.20659   0.00000  Uiso   1.00
O176   O     0.74674   0.57129   0.12674   0.00000  Uiso   1.00
O177   O     0.74480   0.41892   0.10279   0.00000  Uiso   1.00
O178   O     0.75520   0.58108   0.23055   0.00000  Uiso   1.00
C179   C     0.74685   0.40044   0.15216   0.00000  Uiso   1.00
C180   C     0.75315   0.59956   0.18118   0.00000  Uiso   1.00
O181   O     0.68935   0.50488   0.21857   0.00000  Uiso   1.00
O182   O     0.81064   0.49512   0.11476   0.00000  Uiso   1.00
O183   O     0.68090   0.49510   0.11477   0.00000  Uiso   1.00
O184   O     0.81910   0.50490   0.21857   0.00000  Uiso   1.00
C185   C     0.66466   0.49994   0.16695   0.00000  Uiso   1.00
C186   C     0.83534   0.50006   0.16638   0.00000  Uiso   1.00
Cu187  Cu    0.75500   0.50579   0.22813   0.00000  Uiso   1.00
Cu188  Cu    0.74499   0.49421   0.10521   0.00000  Uiso   1.00
C189   C     0.91017   0.54425   0.19764   0.00000  Uiso   1.00
C190   C     0.58983   0.45575   0.13569   0.00000  Uiso   1.00
C191   C     0.88351   0.50027   0.16595   0.00000  Uiso   1.00
C192   C     0.61649   0.49973   0.16738   0.00000  Uiso   1.00
C193   C     0.90255   0.45637   0.13482   0.00000  Uiso   1.00
C194   C     0.59745   0.54363   0.19851   0.00000  Uiso   1.00
C195   C     0.94907   0.45588   0.13542   0.00000  Uiso   1.00
C196   C     0.55093   0.54412   0.19790   0.00000  Uiso   1.00
C197   C     0.97659   0.50024   0.16711   0.00000  Uiso   1.00
C198   C     0.52341   0.49976   0.16621   0.00000  Uiso   1.00
C199   C     0.95718   0.54500   0.19946   0.00000  Uiso   1.00
C200   C     0.54282   0.45500   0.13387   0.00000  Uiso   1.00
C201   C     0.96816   0.41162   0.10441   0.00000  Uiso   1.00
C202   C     0.53184   0.58838   0.22890   0.00000  Uiso   1.00
C203   C     0.51464   0.41072   0.10232   0.00000  Uiso   1.00
C204   C     0.98536   0.58928   0.23099   0.00000  Uiso   1.00
H205   H     0.89332   0.57781   0.21904   0.00000  Uiso   1.00
H206   H     0.60668   0.42219   0.11430   0.00000  Uiso   1.00
H207   H     0.88104   0.42253   0.11067   0.00000  Uiso   1.00
H208   H     0.61896   0.57747   0.22265   0.00000  Uiso   1.00
H209   H     0.94650   0.37784   0.08045   0.00000  Uiso   1.00
H210   H     0.55350   0.62216   0.25286   0.00000  Uiso   1.00
C211   C     0.73724   0.34576   0.14827   0.00000  Uiso   1.00
C212   C     0.76276   0.65424   0.18506   0.00000  Uiso   1.00
N213   N     0.73744   0.48547   0.01284   0.00000  Uiso   1.00
N214   N     0.76255   0.51453   0.32049   0.00000  Uiso   1.00
C215   C     0.53129   0.36256   0.06626   0.00000  Uiso   1.00
H216   H     0.51389   0.65798   0.06456   0.00000  Uiso   1.00
O217   O     0.56228   0.36473   0.03508   0.00000  Uiso   1.00
C218   C     0.96871   0.63744   0.26703   0.00000  Uiso   1.00
H219   H     0.98610   0.34201   0.26870   0.00000  Uiso   1.00
O220   O     0.93772   0.63528   0.29822   0.00000  Uiso   1.00
C221   C     0.69347   0.65720   0.11275   0.00000  Uiso   1.00
H222   H     0.68066   0.34059   0.07463   0.00000  Uiso   1.00
O223   O     0.67018   0.62299   0.12748   0.00000  Uiso   1.00
C224   C     0.80653   0.34280   0.22058   0.00000  Uiso   1.00
H225   H     0.81934   0.65939   0.25869   0.00000  Uiso   1.00
O226   O     0.82982   0.37702   0.20586   0.00000  Uiso   1.00
N227   N     0.72315   0.43631   0.31162   0.00000  Uiso   1.00
O228   O     0.74762   0.39672   0.31503   0.00000  Uiso   1.00
O229   O     0.68104   0.42701   0.29032   0.00000  Uiso   1.00
N230   N     0.77684   0.56369   0.02171   0.00000  Uiso   1.00
O231   O     0.75235   0.60327   0.01830   0.00000  Uiso   1.00
O232   O     0.81895   0.57301   0.04299   0.00000  Uiso   1.00
O233   O     0.25325   0.76204   0.20659   0.00000  Uiso   1.00
O234   O     0.24674   0.90462   0.12674   0.00000  Uiso   1.00
O235   O     0.24480   0.75226   0.10279   0.00000  Uiso   1.00
O236   O     0.25520   0.91441   0.23055   0.00000  Uiso   1.00
C237   C     0.24685   0.73377   0.15216   0.00000  Uiso   1.00
C238   C     0.25315   0.93290   0.18118   0.00000  Uiso   1.00
O239   O     0.18935   0.83821   0.21857   0.00000  Uiso   1.00
O240   O     0.31064   0.82845   0.11476   0.00000  Uiso   1.00
O241   O     0.18090   0.82843   0.11477   0.00000  Uiso   1.00
O242   O     0.31910   0.83824   0.21857   0.00000  Uiso   1.00
C243   C     0.16466   0.83328   0.16695   0.00000  Uiso   1.00
C244   C     0.33534   0.83339   0.16638   0.00000  Uiso   1.00
Cu245  Cu    0.25500   0.83913   0.22813   0.00000  Uiso   1.00
Cu246  Cu    0.24499   0.82754   0.10521   0.00000  Uiso   1.00
C247   C     0.41017   0.87758   0.19764   0.00000  Uiso   1.00
C248   C     0.08983   0.78909   0.13569   0.00000  Uiso   1.00
C249   C     0.38351   0.83360   0.16595   0.00000  Uiso   1.00
C250   C     0.11649   0.83307   0.16738   0.00000  Uiso   1.00
C251   C     0.40255   0.78971   0.13482   0.00000  Uiso   1.00
C252   C     0.09745   0.87696   0.19851   0.00000  Uiso   1.00
C253   C     0.44907   0.78921   0.13542   0.00000  Uiso   1.00
C254   C     0.05093   0.87745   0.19790   0.00000  Uiso   1.00
C255   C     0.47659   0.83357   0.16711   0.00000  Uiso   1.00
C256   C     0.02341   0.83309   0.16621   0.00000  Uiso   1.00
C257   C     0.45718   0.87833   0.19946   0.00000  Uiso   1.00
C258   C     0.04282   0.78834   0.13387   0.00000  Uiso   1.00
C259   C     0.46816   0.74495   0.10441   0.00000  Uiso   1.00
C260   C     0.03184   0.92171   0.22890   0.00000  Uiso   1.00
C261   C     0.01464   0.74405   0.10232   0.00000  Uiso   1.00
C262   C     0.48536   0.92262   0.23099   0.00000  Uiso   1.00
H263   H     0.39332   0.91114   0.21904   0.00000  Uiso   1.00
H264   H     0.10668   0.75553   0.11430   0.00000  Uiso   1.00
H265   H     0.38104   0.75586   0.11067   0.00000  Uiso   1.00
H266   H     0.11896   0.91080   0.22265   0.00000  Uiso   1.00
H267   H     0.44650   0.71117   0.08045   0.00000  Uiso   1.00
H268   H     0.05350   0.95550   0.25286   0.00000  Uiso   1.00
C269   C     0.23724   0.67909   0.14827   0.00000  Uiso   1.00
C270   C     0.26276   0.98757   0.18506   0.00000  Uiso   1.00
N271   N     0.23744   0.81881   0.01284   0.00000  Uiso   1.00
N272   N     0.26255   0.84786   0.32049   0.00000  Uiso   1.00
C273   C     0.03129   0.69589   0.06626   0.00000  Uiso   1.00
H274   H     0.01389   0.99132   0.06456   0.00000  Uiso   1.00
O275   O     0.06228   0.69806   0.03508   0.00000  Uiso   1.00
C276   C     0.46871   0.97077   0.26703   0.00000  Uiso   1.00
H277   H     0.48610   0.67534   0.26870   0.00000  Uiso   1.00
O278   O     0.43772   0.96862   0.29822   0.00000  Uiso   1.00
C279   C     0.19347   0.99053   0.11275   0.00000  Uiso   1.00
H280   H     0.18066   0.67393   0.07463   0.00000  Uiso   1.00
O281   O     0.17018   0.95633   0.12748   0.00000  Uiso   1.00
C282   C     0.30653   0.67613   0.22058   0.00000  Uiso   1.00
H283   H     0.31934   0.99273   0.25869   0.00000  Uiso   1.00
O284   O     0.32982   0.71035   0.20586   0.00000  Uiso   1.00
N285   N     0.22315   0.76965   0.31162   0.00000  Uiso   1.00
O286   O     0.24762   0.73006   0.31503   0.00000  Uiso   1.00
O287   O     0.18104   0.76034   0.29032   0.00000  Uiso   1.00
N288   N     0.27684   0.89702   0.02171   0.00000  Uiso   1.00
O289   O     0.25235   0.93660   0.01830   0.00000  Uiso   1.00
O290   O     0.31895   0.90635   0.04299   0.00000  Uiso   1.00
O291   O     0.75325   0.76204   0.20659   0.00000  Uiso   1.00
O292   O     0.74674   0.90462   0.12674   0.00000  Uiso   1.00
O293   O     0.74480   0.75226   0.10279   0.00000  Uiso   1.00
O294   O     0.75520   0.91441   0.23055   0.00000  Uiso   1.00
C295   C     0.74685   0.73377   0.15216   0.00000  Uiso   1.00
C296   C     0.75315   0.93290   0.18118   0.00000  Uiso   1.00
O297   O     0.68935   0.83821   0.21857   0.00000  Uiso   1.00
O298   O     0.81064   0.82845   0.11476   0.00000  Uiso   1.00
O299   O     0.68090   0.82843   0.11477   0.00000  Uiso   1.00
O300   O     0.81910   0.83824   0.21857   0.00000  Uiso   1.00
C301   C     0.66466   0.83328   0.16695   0.00000  Uiso   1.00
C302   C     0.83534   0.83339   0.16638   0.00000  Uiso   1.00
Cu303  Cu    0.75500   0.83913   0.22813   0.00000  Uiso   1.00
Cu304  Cu    0.74499   0.82754   0.10521   0.00000  Uiso   1.00
C305   C     0.91017   0.87758   0.19764   0.00000  Uiso   1.00
C306   C     0.58983   0.78909   0.13569   0.00000  Uiso   1.00
C307   C     0.88351   0.83360   0.16595   0.00000  Uiso   1.00
C308   C     0.61649   0.83307   0.16738   0.00000  Uiso   1.00
C309   C     0.90255   0.78971   0.13482   0.00000  Uiso   1.00
C310   C     0.59745   0.87696   0.19851   0.00000  Uiso   1.00
C311   C     0.94907   0.78921   0.13542   0.00000  Uiso   1.00
C312   C     0.55093   0.87745   0.19790   0.00000  Uiso   1.00
C313   C     0.97659   0.83357   0.16711   0.00000  Uiso   1.00
C314   C     0.52341   0.83309   0.16621   0.00000  Uiso   1.00
C315   C     0.95718   0.87833   0.19946   0.00000  Uiso   1.00
C316   C     0.54282   0.78834   0.13387   0.00000  Uiso   1.00
C317   C     0.96816   0.74495   0.10441   0.00000  Uiso   1.00
C318   C     0.53184   0.92171   0.22890   0.00000  Uiso   1.00
C319   C     0.51464   0.74405   0.10232   0.00000  Uiso   1.00
C320   C     0.98536   0.92262   0.23099   0.00000  Uiso   1.00
H321   H     0.89332   0.91114   0.21904   0.00000  Uiso   1.00
H322   H     0.60668   0.75553   0.11430   0.00000  Uiso   1.00
H323   H     0.88104   0.75586   0.11067   0.00000  Uiso   1.00
H324   H     0.61896   0.91080   0.22265   0.00000  Uiso   1.00
H325   H     0.94650   0.71117   0.08045   0.00000  Uiso   1.00
H326   H     0.55350   0.95550   0.25286   0.00000  Uiso   1.00
C327   C     0.73724   0.67909   0.14827   0.00000  Uiso   1.00
C328   C     0.76276   0.98757   0.18506   0.00000  Uiso   1.00
N329   N     0.73744   0.81881   0.01284   0.00000  Uiso   1.00
N330   N     0.76255   0.84786   0.32049   0.00000  Uiso   1.00
C331   C     0.53129   0.69589   0.06626   0.00000  Uiso   1.00
H332   H     0.51389   0.99132   0.06456   0.00000  Uiso   1.00
O333   O     0.56228   0.69806   0.03508   0.00000  Uiso   1.00
C334   C     0.96871   0.97077   0.26703   0.00000  Uiso   1.00
H335   H     0.98610   0.67534   0.26870   0.00000  Uiso   1.00
O336   O     0.93772   0.96862   0.29822   0.00000  Uiso   1.00
C337   C     0.69347   0.99053   0.11275   0.00000  Uiso   1.00
H338   H     0.68066   0.67393   0.07463   0.00000  Uiso   1.00
O339   O     0.67018   0.95633   0.12748   0.00000  Uiso   1.00
C340   C     0.80653   0.67613   0.22058   0.00000  Uiso   1.00
H341   H     0.81934   0.99273   0.25869   0.00000  Uiso   1.00
O342   O     0.82982   0.71035   0.20586   0.00000  Uiso   1.00
N343   N     0.72315   0.76965   0.31162   0.00000  Uiso   1.00
O344   O     0.74762   0.73006   0.31503   0.00000  Uiso   1.00
O345   O     0.68104   0.76034   0.29032   0.00000  Uiso   1.00
N346   N     0.77684   0.89702   0.02171   0.00000  Uiso   1.00
O347   O     0.75235   0.93660   0.01830   0.00000  Uiso   1.00
O348   O     0.81895   0.90635   0.04299   0.00000  Uiso   1.00
O349   O     0.25325   0.09538   0.53992   0.00000  Uiso   1.00
O350   O     0.24674   0.23796   0.46008   0.00000  Uiso   1.00
O351   O     0.24480   0.08559   0.43612   0.00000  Uiso   1.00
O352   O     0.25520   0.24774   0.56388   0.00000  Uiso   1.00
C353   C     0.24685   0.06710   0.48549   0.00000  Uiso   1.00
C354   C     0.25315   0.26623   0.51451   0.00000  Uiso   1.00
O355   O     0.18935   0.17155   0.55191   0.00000  Uiso   1.00
O356   O     0.31064   0.16179   0.44809   0.00000  Uiso   1.00
O357   O     0.18090   0.16176   0.44810   0.00000  Uiso   1.00
O358   O     0.31910   0.17157   0.55190   0.00000  Uiso   1.00
C359   C     0.16466   0.16661   0.50028   0.00000  Uiso   1.00
C360   C     0.33534   0.16672   0.49972   0.00000  Uiso   1.00
Cu361  Cu    0.25500   0.17246   0.56146   0.00000  Uiso   1.00
Cu362  Cu    0.24499   0.16087   0.43854   0.00000  Uiso   1.00
C363   C     0.41017   0.21091   0.53097   0.00000  Uiso   1.00
C364   C     0.08983   0.12242   0.46903   0.00000  Uiso   1.00
C365   C     0.38351   0.16693   0.49929   0.00000  Uiso   1.00
C366   C     0.11649   0.16640   0.50071   0.00000  Uiso   1.00
C367   C     0.40255   0.12304   0.46815   0.00000  Uiso   1.00
C368   C     0.09745   0.21029   0.53185   0.00000  Uiso   1.00
C369   C     0.44907   0.12255   0.46876   0.00000  Uiso   1.00
C370   C     0.05093   0.21079   0.53123   0.00000  Uiso   1.00
C371   C     0.47659   0.16691   0.50045   0.00000  Uiso   1.00
C372   C     0.02341   0.16642   0.49955   0.00000  Uiso   1.00
C373   C     0.45718   0.21166   0.53279   0.00000  Uiso   1.00
C374   C     0.04282   0.12167   0.46720   0.00000  Uiso   1.00
C375   C     0.46816   0.07829   0.43775   0.00000  Uiso   1.00
C376   C     0.03184   0.25505   0.56224   0.00000  Uiso   1.00
C377   C     0.01464   0.07738   0.43566   0.00000  Uiso   1.00
C378   C     0.48536   0.25595   0.56432   0.00000  Uiso   1.00
H379   H     0.39332   0.24447   0.55237   0.00000  Uiso   1.00
H380   H     0.10668   0.08886   0.44763   0.00000  Uiso   1.00
H381   H     0.38104   0.08920   0.44401   0.00000  Uiso   1.00
H382   H     0.11896   0.24414   0.55599   0.00000  Uiso   1.00
H383   H     0.44650   0.04450   0.41379   0.00000  Uiso   1.00
H384   H     0.05350   0.28883   0.58619   0.00000  Uiso   1.00
C385   C     0.23724   0.01243   0.48161   0.00000  Uiso   1.00
C386   C     0.26276   0.32091   0.51839   0.00000  Uiso   1.00
N387   N     0.23744   0.15214   0.34617   0.00000  Uiso   1.00
N388   N     0.26255   0.18119   0.65383   0.00000  Uiso   1.00
C389   C     0.03129   0.02923   0.39959   0.00000  Uiso   1.00
H390   H     0.01389   0.32465   0.39789   0.00000  Uiso   1.00
O391   O     0.06228   0.03140   0.36841   0.00000  Uiso   1.00
C392   C     0.46871   0.30411   0.60036   0.00000  Uiso   1.00
H393   H     0.48610   0.00868   0.60203   0.00000  Uiso   1.00
O394   O     0.43772   0.30195   0.63155   0.00000  Uiso   1.00
C395   C     0.19347   0.32387   0.44609   0.00000  Uiso   1.00
H396   H     0.18066   0.00726   0.40796   0.00000  Uiso   1.00
O397   O     0.17018   0.28966   0.46082   0.00000  Uiso   1.00
C398   C     0.30653   0.00947   0.55392   0.00000  Uiso   1.00
H399   H     0.31934   0.32606   0.59202   0.00000  Uiso   1.00
O400   O     0.32982   0.04368   0.53920   0.00000  Uiso   1.00
N401   N     0.22315   0.10298   0.64496   0.00000  Uiso   1.00
O402   O     0.24762   0.06339   0.64836   0.00000  Uiso   1.00
O403   O     0.18104   0.09367   0.62365   0.00000  Uiso   1.00
N404   N     0.27684   0.23036   0.35504   0.00000  Uiso   1.00
O405   O     0.25235   0.26993   0.35163   0.00000  Uiso   1.00
O406   O     0.31895   0.23968   0.37633   0.00000  Uiso   1.00
O407   O     0.75325   0.09538   0.53992   0.00000  Uiso   1.00
O408   O     0.74674   0.23796   0.46008   0.00000  Uiso   1.00
O409   O     0.74480   0.08559   0.43612   0.00000  Uiso   1.00
O410   O     0.75520   0.24774   0.56388   0.00000  Uiso   1.00
C411   C     0.74685   0.06710   0.48549   0.00000  Uiso   1.00
C412   C     0.75315   0.26623   0.51451   0.00000  Uiso   1.00
O413   O     0.68935   0.17155   0.55191   0.00000  Uiso   1.00
O414   O     0.81064   0.16179   0.44809   0.00000  Uiso   1.00
O415   O     0.68090   0.16176   0.44810   0.00000  Uiso   1.00
O416   O     0.81910   0.17157   0.55190   0.00000  Uiso   1.00
C417   C     0.66466   0.16661   0.50028   0.00000  Uiso   1.00
C418   C     0.83534   0.16672   0.49972   0.00000  Uiso   1.00
Cu419  Cu    0.75500   0.17246   0.56146   0.00000  Uiso   1.00
Cu420  Cu    0.74499   0.16087   0.43854   0.00000  Uiso   1.00
C421   C     0.91017   0.21091   0.53097   0.00000  Uiso   1.00
C422   C     0.58983   0.12242   0.46903   0.00000  Uiso   1.00
C423   C     0.88351   0.16693   0.49929   0.00000  Uiso   1.00
C424   C     0.61649   0.16640   0.50071   0.00000  Uiso   1.00
C425   C     0.90255   0.12304   0.46815   0.00000  Uiso   1.00
C426   C     0.59745   0.21029   0.53185   0.00000  Uiso   1.00
C427   C     0.94907   0.12255   0.46876   0.00000  Uiso   1.00
C428   C     0.55093   0.21079   0.53123   0.00000  Uiso   1.00
C429   C     0.97659   0.16691   0.50045   0.00000  Uiso   1.00
C430   C     0.52341   0.16642   0.49955   0.00000  Uiso   1.00
C431   C     0.95718   0.21166   0.53279   0.00000  Uiso   1.00
C432   C     0.54282   0.12167   0.46720   0.00000  Uiso   1.00
C433   C     0.96816   0.07829   0.43775   0.00000  Uiso   1.00
C434   C     0.53184   0.25505   0.56224   0.00000  Uiso   1.00
C435   C     0.51464   0.07738   0.43566   0.00000  Uiso   1.00
C436   C     0.98536   0.25595   0.56432   0.00000  Uiso   1.00
H437   H     0.89332   0.24447   0.55237   0.00000  Uiso   1.00
H438   H     0.60668   0.08886   0.44763   0.00000  Uiso   1.00
H439   H     0.88104   0.08920   0.44401   0.00000  Uiso   1.00
H440   H     0.61896   0.24414   0.55599   0.00000  Uiso   1.00
H441   H     0.94650   0.04450   0.41379   0.00000  Uiso   1.00
H442   H     0.55350   0.28883   0.58619   0.00000  Uiso   1.00
C443   C     0.73724   0.01243   0.48161   0.00000  Uiso   1.00
C444   C     0.76276   0.32091   0.51839   0.00000  Uiso   1.00
N445   N     0.73744   0.15214   0.34617   0.00000  Uiso   1.00
N446   N     0.76255   0.18119   0.65383   0.00000  Uiso   1.00
C447   C     0.53129   0.02923   0.39959   0.00000  Uiso   1.00
H448   H     0.51389   0.32465   0.39789   0.00000  Uiso   1.00
O449   O     0.56228   0.03140   0.36841   0.00000  Uiso   1.00
C450   C     0.96871   0.30411   0.60036   0.00000  Uiso   1.00
H451   H     0.98610   0.00868   0.60203   0.00000  Uiso   1.00
O452   O     0.93772   0.30195   0.63155   0.00000  Uiso   1.00
C453   C     0.69347   0.32387   0.44609   0.00000  Uiso   1.00
H454   H     0.68066   0.00726   0.40796   0.00000  Uiso   1.00
O455   O     0.67018   0.28966   0.46082   0.00000  Uiso   1.00
C456   C     0.80653   0.00947   0.55392   0.00000  Uiso   1.00
H457   H     0.81934   0.32606   0.59202   0.00000  Uiso   1.00
O458   O     0.82982   0.04368   0.53920   0.00000  Uiso   1.00
N459   N     0.72315   0.10298   0.64496   0.00000  Uiso   1.00
O460   O     0.74762   0.06339   0.64836   0.00000  Uiso   1.00
O461   O     0.68104   0.09367   0.62365   0.00000  Uiso   1.00
N462   N     0.77684   0.23036   0.35504   0.00000  Uiso   1.00
O463   O     0.75235   0.26993   0.35163   0.00000  Uiso   1.00
O464   O     0.81895   0.23968   0.37633   0.00000  Uiso   1.00
O465   O     0.25325   0.42871   0.53992   0.00000  Uiso   1.00
O466   O     0.24674   0.57129   0.46008   0.00000  Uiso   1.00
O467   O     0.24480   0.41892   0.43612   0.00000  Uiso   1.00
O468   O     0.25520   0.58108   0.56388   0.00000  Uiso   1.00
C469   C     0.24685   0.40044   0.48549   0.00000  Uiso   1.00
C470   C     0.25315   0.59956   0.51451   0.00000  Uiso   1.00
O471   O     0.18935   0.50488   0.55191   0.00000  Uiso   1.00
O472   O     0.31064   0.49512   0.44809   0.00000  Uiso   1.00
O473   O     0.18090   0.49510   0.44810   0.00000  Uiso   1.00
O474   O     0.31910   0.50490   0.55190   0.00000  Uiso   1.00
C475   C     0.16466   0.49994   0.50028   0.00000  Uiso   1.00
C476   C     0.33534   0.50006   0.49972   0.00000  Uiso   1.00
Cu477  Cu    0.25500   0.50579   0.56146   0.00000  Uiso   1.00
Cu478  Cu    0.24499   0.49421   0.43854   0.00000  Uiso   1.00
C479   C     0.41017   0.54425   0.53097   0.00000  Uiso   1.00
C480   C     0.08983   0.45575   0.46903   0.00000  Uiso   1.00
C481   C     0.38351   0.50027   0.49929   0.00000  Uiso   1.00
C482   C     0.11649   0.49973   0.50071   0.00000  Uiso   1.00
C483   C     0.40255   0.45637   0.46815   0.00000  Uiso   1.00
C484   C     0.09745   0.54363   0.53185   0.00000  Uiso   1.00
C485   C     0.44907   0.45588   0.46876   0.00000  Uiso   1.00
C486   C     0.05093   0.54412   0.53123   0.00000  Uiso   1.00
C487   C     0.47659   0.50024   0.50045   0.00000  Uiso   1.00
C488   C     0.02341   0.49976   0.49955   0.00000  Uiso   1.00
C489   C     0.45718   0.54500   0.53279   0.00000  Uiso   1.00
C490   C     0.04282   0.45500   0.46720   0.00000  Uiso   1.00
C491   C     0.46816   0.41162   0.43775   0.00000  Uiso   1.00
C492   C     0.03184   0.58838   0.56224   0.00000  Uiso   1.00
C493   C     0.01464   0.41072   0.43566   0.00000  Uiso   1.00
C494   C     0.48536   0.58928   0.56432   0.00000  Uiso   1.00
H495   H     0.39332   0.57781   0.55237   0.00000  Uiso   1.00
H496   H     0.10668   0.42219   0.44763   0.00000  Uiso   1.00
H497   H     0.38104   0.42253   0.44401   0.00000  Uiso   1.00
H498   H     0.11896   0.57747   0.55599   0.00000  Uiso   1.00
H499   H     0.44650   0.37784   0.41379   0.00000  Uiso   1.00
H500   H     0.05350   0.62216   0.58619   0.00000  Uiso   1.00
C501   C     0.23724   0.34576   0.48161   0.00000  Uiso   1.00
C502   C     0.26276   0.65424   0.51839   0.00000  Uiso   1.00
N503   N     0.23744   0.48547   0.34617   0.00000  Uiso   1.00
N504   N     0.26255   0.51453   0.65383   0.00000  Uiso   1.00
C505   C     0.03129   0.36256   0.39959   0.00000  Uiso   1.00
H506   H     0.01389   0.65798   0.39789   0.00000  Uiso   1.00
O507   O     0.06228   0.36473   0.36841   0.00000  Uiso   1.00
C508   C     0.46871   0.63744   0.60036   0.00000  Uiso   1.00
H509   H     0.48610   0.34201   0.60203   0.00000  Uiso   1.00
O510   O     0.43772   0.63528   0.63155   0.00000  Uiso   1.00
C511   C     0.19347   0.65720   0.44609   0.00000  Uiso   1.00
H512   H     0.18066   0.34059   0.40796   0.00000  Uiso   1.00
O513   O     0.17018   0.62299   0.46082   0.00000  Uiso   1.00
C514   C     0.30653   0.34280   0.55392   0.00000  Uiso   1.00
H515   H     0.31934   0.65939   0.59202   0.00000  Uiso   1.00
O516   O     0.32982   0.37702   0.53920   0.00000  Uiso   1.00
N517   N     0.22315   0.43631   0.64496   0.00000  Uiso   1.00
O518   O     0.24762   0.39672   0.64836   0.00000  Uiso   1.00
O519   O     0.18104   0.42701   0.62365   0.00000  Uiso   1.00
N520   N     0.27684   0.56369   0.35504   0.00000  Uiso   1.00
O521   O     0.25235   0.60327   0.35163   0.00000  Uiso   1.00
O522   O     0.31895   0.57301   0.37633   0.00000  Uiso   1.00
O523   O     0.75325   0.42871   0.53992   0.00000  Uiso   1.00
O524   O     0.74674   0.57129   0.46008   0.00000  Uiso   1.00
O525   O     0.74480   0.41892   0.43612   0.00000  Uiso   1.00
O526   O     0.75520   0.58108   0.56388   0.00000  Uiso   1.00
C527   C     0.74685   0.40044   0.48549   0.00000  Uiso   1.00
C528   C     0.75315   0.59956   0.51451   0.00000  Uiso   1.00
O529   O     0.68935   0.50488   0.55191   0.00000  Uiso   1.00
O530   O     0.81064   0.49512   0.44809   0.00000  Uiso   1.00
O531   O     0.68090   0.49510   0.44810   0.00000  Uiso   1.00
O532   O     0.81910   0.50490   0.55190   0.00000  Uiso   1.00
C533   C     0.66466   0.49994   0.50028   0.00000  Uiso   1.00
C534   C     0.83534   0.50006   0.49972   0.00000  Uiso   1.00
Cu535  Cu    0.75500   0.50579   0.56146   0.00000  Uiso   1.00
Cu536  Cu    0.74499   0.49421   0.43854   0.00000  Uiso   1.00
C537   C     0.91017   0.54425   0.53097   0.00000  Uiso   1.00
C538   C     0.58983   0.45575   0.46903   0.00000  Uiso   1.00
C539   C     0.88351   0.50027   0.49929   0.00000  Uiso   1.00
C540   C     0.61649   0.49973   0.50071   0.00000  Uiso   1.00
C541   C     0.90255   0.45637   0.46815   0.00000  Uiso   1.00
C542   C     0.59745   0.54363   0.53185   0.00000  Uiso   1.00
C543   C     0.94907   0.45588   0.46876   0.00000  Uiso   1.00
C544   C     0.55093   0.54412   0.53123   0.00000  Uiso   1.00
C545   C     0.97659   0.50024   0.50045   0.00000  Uiso   1.00
C546   C     0.52341   0.49976   0.49955   0.00000  Uiso   1.00
C547   C     0.95718   0.54500   0.53279   0.00000  Uiso   1.00
C548   C     0.54282   0.45500   0.46720   0.00000  Uiso   1.00
C549   C     0.96816   0.41162   0.43775   0.00000  Uiso   1.00
C550   C     0.53184   0.58838   0.56224   0.00000  Uiso   1.00
C551   C     0.51464   0.41072   0.43566   0.00000  Uiso   1.00
C552   C     0.98536   0.58928   0.56432   0.00000  Uiso   1.00
H553   H     0.89332   0.57781   0.55237   0.00000  Uiso   1.00
H554   H     0.60668   0.42219   0.44763   0.00000  Uiso   1.00
H555   H     0.88104   0.42253   0.44401   0.00000  Uiso   1.00
H556   H     0.61896   0.57747   0.55599   0.00000  Uiso   1.00
H557   H     0.94650   0.37784   0.41379   0.00000  Uiso   1.00
H558   H     0.55350   0.62216   0.58619   0.00000  Uiso   1.00
C559   C     0.73724   0.34576   0.48161   0.00000  Uiso   1.00
C560   C     0.76276   0.65424   0.51839   0.00000  Uiso   1.00
N561   N     0.73744   0.48547   0.34617   0.00000  Uiso   1.00
N562   N     0.76255   0.51453   0.65383   0.00000  Uiso   1.00
C563   C     0.53129   0.36256   0.39959   0.00000  Uiso   1.00
H564   H     0.51389   0.65798   0.39789   0.00000  Uiso   1.00
O565   O     0.56228   0.36473   0.36841   0.00000  Uiso   1.00
C566   C     0.96871   0.63744   0.60036   0.00000  Uiso   1.00
H567   H     0.98610   0.34201   0.60203   0.00000  Uiso   1.00
O568   O     0.93772   0.63528   0.63155   0.00000  Uiso   1.00
C569   C     0.69347   0.65720   0.44609   0.00000  Uiso   1.00
H570   H     0.68066   0.34059   0.40796   0.00000  Uiso   1.00
O571   O     0.67018   0.62299   0.46082   0.00000  Uiso   1.00
C572   C     0.80653   0.34280   0.55392   0.00000  Uiso   1.00
H573   H     0.81934   0.65939   0.59202   0.00000  Uiso   1.00
O574   O     0.82982   0.37702   0.53920   0.00000  Uiso   1.00
N575   N     0.72315   0.43631   0.64496   0.00000  Uiso   1.00
O576   O     0.74762   0.39672   0.64836   0.00000  Uiso   1.00
O577   O     0.68104   0.42701   0.62365   0.00000  Uiso   1.00
N578   N     0.77684   0.56369   0.35504   0.00000  Uiso   1.00
O579   O     0.75235   0.60327   0.35163   0.00000  Uiso   1.00
O580   O     0.81895   0.57301   0.37633   0.00000  Uiso   1.00
O581   O     0.25325   0.76204   0.53992   0.00000  Uiso   1.00
O582   O     0.24674   0.90462   0.46008   0.00000  Uiso   1.00
O583   O     0.24480   0.75226   0.43612   0.00000  Uiso   1.00
O584   O     0.25520   0.91441   0.56388   0.00000  Uiso   1.00
C585   C     0.24685   0.73377   0.48549   0.00000  Uiso   1.00
C586   C     0.25315   0.93290   0.51451   0.00000  Uiso   1.00
O587   O     0.18935   0.83821   0.55191   0.00000  Uiso   1.00
O588   O     0.31064   0.82845   0.44809   0.00000  Uiso   1.00
O589   O     0.18090   0.82843   0.44810   0.00000  Uiso   1.00
O590   O     0.31910   0.83824   0.55190   0.00000  Uiso   1.00
C591   C     0.16466   0.83328   0.50028   0.00000  Uiso   1.00
C592   C     0.33534   0.83339   0.49972   0.00000  Uiso   1.00
Cu593  Cu    0.25500   0.83913   0.56146   0.00000  Uiso   1.00
Cu594  Cu    0.24499   0.82754   0.43854   0.00000  Uiso   1.00
C595   C     0.41017   0.87758   0.53097   0.00000  Uiso   1.00
C596   C     0.08983   0.78909   0.46903   0.00000  Uiso   1.00
C597   C     0.38351   0.83360   0.49929   0.00000  Uiso   1.00
C598   C     0.11649   0.83307   0.50071   0.00000  Uiso   1.00
C599   C     0.40255   0.78971   0.46815   0.00000  Uiso   1.00
C600   C     0.09745   0.87696   0.53185   0.00000  Uiso   1.00
C601   C     0.44907   0.78921   0.46876   0.00000  Uiso   1.00
C602   C     0.05093   0.87745   0.53123   0.00000  Uiso   1.00
C603   C     0.47659   0.83357   0.50045   0.00000  Uiso   1.00
C604   C     0.02341   0.83309   0.49955   0.00000  Uiso   1.00
C605   C     0.45718   0.87833   0.53279   0.00000  Uiso   1.00
C606   C     0.04282   0.78834   0.46720   0.00000  Uiso   1.00
C607   C     0.46816   0.74495   0.43775   0.00000  Uiso   1.00
C608   C     0.03184   0.92171   0.56224   0.00000  Uiso   1.00
C609   C     0.01464   0.74405   0.43566   0.00000  Uiso   1.00
C610   C     0.48536   0.92262   0.56432   0.00000  Uiso   1.00
H611   H     0.39332   0.91114   0.55237   0.00000  Uiso   1.00
H612   H     0.10668   0.75553   0.44763   0.00000  Uiso   1.00
H613   H     0.38104   0.75586   0.44401   0.00000  Uiso   1.00
H614   H     0.11896   0.91080   0.55599   0.00000  Uiso   1.00
H615   H     0.44650   0.71117   0.41379   0.00000  Uiso   1.00
H616   H     0.05350   0.95550   0.58619   0.00000  Uiso   1.00
C617   C     0.23724   0.67909   0.48161   0.00000  Uiso   1.00
C618   C     0.26276   0.98757   0.51839   0.00000  Uiso   1.00
N619   N     0.23744   0.81881   0.34617   0.00000  Uiso   1.00
N620   N     0.26255   0.84786   0.65383   0.00000  Uiso   1.00
C621   C     0.03129   0.69589   0.39959   0.00000  Uiso   1.00
H622   H     0.01389   0.99132   0.39789   0.00000  Uiso   1.00
O623   O     0.06228   0.69806   0.36841   0.00000  Uiso   1.00
C624   C     0.46871   0.97077   0.60036   0.00000  Uiso   1.00
H625   H     0.48610   0.67534   0.60203   0.00000  Uiso   1.00
O626   O     0.43772   0.96862   0.63155   0.00000  Uiso   1.00
C627   C     0.19347   0.99053   0.44609   0.00000  Uiso   1.00
H628   H     0.18066   0.67393   0.40796   0.00000  Uiso   1.00
O629   O     0.17018   0.95633   0.46082   0.00000  Uiso   1.00
C630   C     0.30653   0.67613   0.55392   0.00000  Uiso   1.00
H631   H     0.31934   0.99273   0.59202   0.00000  Uiso   1.00
O632   O     0.32982   0.71035   0.53920   0.00000  Uiso   1.00
N633   N     0.22315   0.76965   0.64496   0.00000  Uiso   1.00
O634   O     0.24762   0.73006   0.64836   0.00000  Uiso   1.00
O635   O     0.18104   0.76034   0.62365   0.00000  Uiso   1.00
N636   N     0.27684   0.89702   0.35504   0.00000  Uiso   1.00
O637   O     0.25235   0.93660   0.35163   0.00000  Uiso   1.00
O638   O     0.31895   0.90635   0.37633   0.00000  Uiso   1.00
O639   O     0.75325   0.76204   0.53992   0.00000  Uiso   1.00
O640   O     0.74674   0.90462   0.46008   0.00000  Uiso   1.00
O641   O     0.74480   0.75226   0.43612   0.00000  Uiso   1.00
O642   O     0.75520   0.91441   0.56388   0.00000  Uiso   1.00
C643   C     0.74685   0.73377   0.48549   0.00000  Uiso   1.00
C644   C     0.75315   0.93290   0.51451   0.00000  Uiso   1.00
O645   O     0.68935   0.83821   0.55191   0.00000  Uiso   1.00
O646   O     0.81064   0.82845   0.44809   0.00000  Uiso   1.00
O647   O     0.68090   0.82843   0.44810   0.00000  Uiso   1.00
O648   O     0.81910   0.83824   0.55190   0.00000  Uiso   1.00
C649   C     0.66466   0.83328   0.50028   0.00000  Uiso   1.00
C650   C     0.83534   0.83339   0.49972   0.00000  Uiso   1.00
Cu651  Cu    0.75500   0.83913   0.56146   0.00000  Uiso   1.00
Cu652  Cu    0.74499   0.82754   0.43854   0.00000  Uiso   1.00
C653   C     0.91017   0.87758   0.53097   0.00000  Uiso   1.00
C654   C     0.58983   0.78909   0.46903   0.00000  Uiso   1.00
C655   C     0.88351   0.83360   0.49929   0.00000  Uiso   1.00
C656   C     0.61649   0.83307   0.50071   0.00000  Uiso   1.00
C657   C     0.90255   0.78971   0.46815   0.00000  Uiso   1.00
C658   C     0.59745   0.87696   0.53185   0.00000  Uiso   1.00
C659   C     0.94907   0.78921   0.46876   0.00000  Uiso   1.00
C660   C     0.55093   0.87745   0.53123   0.00000  Uiso   1.00
C661   C     0.97659   0.83357   0.50045   0.00000  Uiso   1.00
C662   C     0.52341   0.83309   0.49955   0.00000  Uiso   1.00
C663   C     0.95718   0.87833   0.53279   0.00000  Uiso   1.00
C664   C     0.54282   0.78834   0.46720   0.00000  Uiso   1.00
C665   C     0.96816   0.74495   0.43775   0.00000  Uiso   1.00
C666   C     0.53184   0.92171   0.56224   0.00000  Uiso   1.00
C667   C     0.51464   0.74405   0.43566   0.00000  Uiso   1.00
C668   C     0.98536   0.92262   0.56432   0.00000  Uiso   1.00
H669   H     0.89332   0.91114   0.55237   0.00000  Uiso   1.00
H670   H     0.60668   0.75553   0.44763   0.00000  Uiso   1.00
H671   H     0.88104   0.75586   0.44401   0.00000  Uiso   1.00
H672   H     0.61896   0.91080   0.55599   0.00000  Uiso   1.00
H673   H     0.94650   0.71117   0.41379   0.00000  Uiso   1.00
H674   H     0.55350   0.95550   0.58619   0.00000  Uiso   1.00
C675   C     0.73724   0.67909   0.48161   0.00000  Uiso   1.00
C676   C     0.76276   0.98757   0.51839   0.00000  Uiso   1.00
N677   N     0.73744   0.81881   0.34617   0.00000  Uiso   1.00
N678   N     0.76255   0.84786   0.65383   0.00000  Uiso   1.00
C679   C     0.53129   0.69589   0.39959   0.00000  Uiso   1.00
H680   H     0.51389   0.99132   0.39789   0.00000  Uiso   1.00
O681   O     0.56228   0.69806   0.36841   0.00000  Uiso   1.00
C682   C     0.96871   0.97077   0.60036   0.00000  Uiso   1.00
H683   H     0.98610   0.67534   0.60203   0.00000  Uiso   1.00
O684   O     0.93772   0.96862   0.63155   0.00000  Uiso   1.00
C685   C     0.69347   0.99053   0.44609   0.00000  Uiso   1.00
H686   H     0.68066   0.67393   0.40796   0.00000  Uiso   1.00
O687   O     0.67018   0.95633   0.46082   0.00000  Uiso   1.00
C688   C     0.80653   0.67613   0.55392   0.00000  Uiso   1.00
H689   H     0.81934   0.99273   0.59202   0.00000  Uiso   1.00
O690   O     0.82982   0.71035   0.53920   0.00000  Uiso   1.00
N691   N     0.72315   0.76965   0.64496   0.00000  Uiso   1.00
O692   O     0.74762   0.73006   0.64836   0.00000  Uiso   1.00
O693   O     0.68104   0.76034   0.62365   0.00000  Uiso   1.00
N694   N     0.77684   0.89702   0.35504   0.00000  Uiso   1.00
O695   O     0.75235   0.93660   0.35163   0.00000  Uiso   1.00
O696   O     0.81895   0.90635   0.37633   0.00000  Uiso   1.00
O697   O     0.25325   0.09538   0.87326   0.00000  Uiso   1.00
O698   O     0.24674   0.23796   0.79341   0.00000  Uiso   1.00
O699   O     0.24480   0.08559   0.76945   0.00000  Uiso   1.00
O700   O     0.25520   0.24774   0.89721   0.00000  Uiso   1.00
C701   C     0.24685   0.06710   0.81882   0.00000  Uiso   1.00
C702   C     0.25315   0.26623   0.84784   0.00000  Uiso   1.00
O703   O     0.18935   0.17155   0.88524   0.00000  Uiso   1.00
O704   O     0.31064   0.16179   0.78143   0.00000  Uiso   1.00
O705   O     0.18090   0.16176   0.78143   0.00000  Uiso   1.00
O706   O     0.31910   0.17157   0.88523   0.00000  Uiso   1.00
C707   C     0.16466   0.16661   0.83362   0.00000  Uiso   1.00
C708   C     0.33534   0.16672   0.83305   0.00000  Uiso   1.00
Cu709  Cu    0.25500   0.17246   0.89479   0.00000  Uiso   1.00
Cu710  Cu    0.24499   0.16087   0.77187   0.00000  Uiso   1.00
C711   C     0.41017   0.21091   0.86430   0.00000  Uiso   1.00
C712   C     0.08983   0.12242   0.80236   0.00000  Uiso   1.00
C713   C     0.38351   0.16693   0.83262   0.00000  Uiso   1.00
C714   C     0.11649   0.16640   0.83404   0.00000  Uiso   1.00
C715   C     0.40255   0.12304   0.80148   0.00000  Uiso   1.00
C716   C     0.09745   0.21029   0.86518   0.00000  Uiso   1.00
C717   C     0.44907   0.12255   0.80209   0.00000  Uiso   1.00
C718   C     0.05093   0.21079   0.86457   0.00000  Uiso   1.00
C719   C     0.47659   0.16691   0.83378   0.00000  Uiso   1.00
C720   C     0.02341   0.16642   0.83288   0.00000  Uiso   1.00
C721   C     0.45718   0.21166   0.86612   0.00000  Uiso   1.00
C722   C     0.04282   0.12167   0.80053   0.00000  Uiso   1.00
C723   C     0.46816   0.07829   0.77108   0.00000  Uiso   1.00
C724   C     0.03184   0.25505   0.89557   0.00000  Uiso   1.00
C725   C     0.01464   0.07738   0.76899   0.00000  Uiso   1.00
C726   C     0.48536   0.25595   0.89766   0.00000  Uiso   1.00
H727   H     0.39332   0.24447   0.88571   0.00000  Uiso   1.00
H728   H     0.10668   0.08886   0.78096   0.00000  Uiso   1.00
H729   H     0.38104   0.08920   0.77734   0.00000  Uiso   1.00
H730   H     0.11896   0.24414   0.88932   0.00000  Uiso   1.00
H731   H     0.44650   0.04450   0.74712   0.00000  Uiso   1.00
H732   H     0.05350   0.28883   0.91952   0.00000  Uiso   1.00
C733   C     0.23724   0.01243   0.81494   0.00000  Uiso   1.00
C734   C     0.26276   0.32091   0.85173   0.00000  Uiso   1.00
N735   N     0.23744   0.15214   0.67951   0.00000  Uiso   1.00
N736   N     0.26255   0.18119   0.98716   0.00000  Uiso   1.00
C737   C     0.03129   0.02923   0.73292   0.00000  Uiso   1.00
H738   H     0.01389   0.32465   0.73123   0.00000  Uiso   1.00
O739   O     0.06228   0.03140   0.70174   0.00000  Uiso   1.00
C740   C     0.46871   0.30411   0.93370   0.00000  Uiso   1.00
H741   H     0.48610   0.00868   0.93536   0.00000  Uiso   1.00
O742   O     0.43772   0.30195   0.96489   0.00000  Uiso   1.00
C743   C     0.19347   0.32387   0.77942   0.00000  Uiso   1.00
H744   H     0.18066   0.00726   0.74130   0.00000  Uiso   1.00
O745   O     0.17018   0.28966   0.79415   0.00000  Uiso   1.00
C746   C     0.30653   0.00947   0.88725   0.00000  Uiso   1.00
H747   H     0.31934   0.32606   0.92536   0.00000  Uiso   1.00
O748   O     0.32982   0.04368   0.87253   0.00000  Uiso   1.00
N749   N     0.22315   0.10298   0.97829   0.00000  Uiso   1.00
O750   O     0.24762   0.06339   0.98170   0.00000  Uiso   1.00
O751   O     0.18104   0.09367   0.95698   0.00000  Uiso   1.00
N752   N     0.27684   0.23036   0.68837   0.00000  Uiso   1.00
O753   O     0.25235   0.26993   0.68497   0.00000  Uiso   1.00
O754   O     0.31895   0.23968   0.70966   0.00000  Uiso   1.00
O755   O     0.75325   0.09538   0.87326   0.00000  Uiso   1.00
O756   O     0.74674   0.23796   0.79341   0.00000  Uiso   1.00
O757   O     0.74480   0.08559   0.76945   0.00000  Uiso   1.00
O758   O     0.75520   0.24774   0.89721   0.00000  Uiso   1.00
C759   C     0.74685   0.06710   0.81882   0.00000  Uiso   1.00
C760   C     0.75315   0.26623   0.84784   0.00000  Uiso   1.00
O761   O     0.68935   0.17155   0.88524   0.00000  Uiso   1.00
O762   O     0.81064   0.16179   0.78143   0.00000  Uiso   1.00
O763   O     0.68090   0.16176   0.78143   0.00000  Uiso   1.00
O764   O     0.81910   0.17157   0.88523   0.00000  Uiso   1.00
C765   C     0.66466   0.16661   0.83362   0.00000  Uiso   1.00
C766   C     0.83534   0.16672   0.83305   0.00000  Uiso   1.00
Cu767  Cu    0.75500   0.17246   0.89479   0.00000  Uiso   1.00
Cu768  Cu    0.74499   0.16087   0.77187   0.00000  Uiso   1.00
C769   C     0.91017   0.21091   0.86430   0.00000  Uiso   1.00
C770   C     0.58983   0.12242   0.80236   0.00000  Uiso   1.00
C771   C     0.88351   0.16693   0.83262   0.00000  Uiso   1.00
C772   C     0.61649   0.16640   0.83404   0.00000  Uiso   1.00
C773   C     0.90255   0.12304   0.80148   0.00000  Uiso   1.00
C774   C     0.59745   0.21029   0.86518   0.00000  Uiso   1.00
C775   C     0.94907   0.12255   0.80209   0.00000  Uiso   1.00
C776   C     0.55093   0.21079   0.86457   0.00000  Uiso   1.00
C777   C     0.97659   0.16691   0.83378   0.00000  Uiso   1.00
C778   C     0.52341   0.16642   0.83288   0.00000  Uiso   1.00
C779   C     0.95718   0.21166   0.86612   0.00000  Uiso   1.00
C780   C     0.54282   0.12167   0.80053   0.00000  Uiso   1.00
C781   C     0.96816   0.07829   0.77108   0.00000  Uiso   1.00
C782   C     0.53184   0.25505   0.89557   0.00000  Uiso   1.00
C783   C     0.51464   0.07738   0.76899   0.00000  Uiso   1.00
C784   C     0.98536   0.25595   0.89766   0.00000  Uiso   1.00
H785   H     0.89332   0.24447   0.88571   0.00000  Uiso   1.00
H786   H     0.60668   0.08886   0.78096   0.00000  Uiso   1.00
H787   H     0.88104   0.08920   0.77734   0.00000  Uiso   1.00
H788   H     0.61896   0.24414   0.88932   0.00000  Uiso   1.00
H789   H     0.94650   0.04450   0.74712   0.00000  Uiso   1.00
H790   H     0.55350   0.28883   0.91952   0.00000  Uiso   1.00
C791   C     0.73724   0.01243   0.81494   0.00000  Uiso   1.00
C792   C     0.76276   0.32091   0.85173   0.00000  Uiso   1.00
N793   N     0.73744   0.15214   0.67951   0.00000  Uiso   1.00
N794   N     0.76255   0.18119   0.98716   0.00000  Uiso   1.00
C795   C     0.53129   0.02923   0.73292   0.00000  Uiso   1.00
H796   H     0.51389   0.32465   0.73123   0.00000  Uiso   1.00
O797   O     0.56228   0.03140   0.70174   0.00000  Uiso   1.00
C798   C     0.96871   0.30411   0.93370   0.00000  Uiso   1.00
H799   H     0.98610   0.00868   0.93536   0.00000  Uiso   1.00
O800   O     0.93772   0.30195   0.96489   0.00000  Uiso   1.00
C801   C     0.69347   0.32387   0.77942   0.00000  Uiso   1.00
H802   H     0.68066   0.00726   0.74130   0.00000  Uiso   1.00
O803   O     0.67018   0.28966   0.79415   0.00000  Uiso   1.00
C804   C     0.80653   0.00947   0.88725   0.00000  Uiso   1.00
H805   H     0.81934   0.32606   0.92536   0.00000  Uiso   1.00
O806   O     0.82982   0.04368   0.87253   0.00000  Uiso   1.00
N807   N     0.72315   0.10298   0.97829   0.00000  Uiso   1.00
O808   O     0.74762   0.06339   0.98170   0.00000  Uiso   1.00
O809   O     0.68104   0.09367   0.95698   0.00000  Uiso   1.00
N810   N     0.77684   0.23036   0.68837   0.00000  Uiso   1.00
O811   O     0.75235   0.26993   0.68497   0.00000  Uiso   1.00
O812   O     0.81895   0.23968   0.70966   0.00000  Uiso   1.00
O813   O     0.25325   0.42871   0.87326   0.00000  Uiso   1.00
O814   O     0.24674   0.57129   0.79341   0.00000  Uiso   1.00
O815   O     0.24480   0.41892   0.76945   0.00000  Uiso   1.00
O816   O     0.25520   0.58108   0.89721   0.00000  Uiso   1.00
C817   C     0.24685   0.40044   0.81882   0.00000  Uiso   1.00
C818   C     0.25315   0.59956   0.84784   0.00000  Uiso   1.00
O819   O     0.18935   0.50488   0.88524   0.00000  Uiso   1.00
O820   O     0.31064   0.49512   0.78143   0.00000  Uiso   1.00
O821   O     0.18090   0.49510   0.78143   0.00000  Uiso   1.00
O822   O     0.31910   0.50490   0.88523   0.00000  Uiso   1.00
C823   C     0.16466   0.49994   0.83362   0.00000  Uiso   1.00
C824   C     0.33534   0.50006   0.83305   0.00000  Uiso   1.00
Cu825  Cu    0.25500   0.50579   0.89479   0.00000  Uiso   1.00
Cu826  Cu    0.24499   0.49421   0.77187   0.00000  Uiso   1.00
C827   C     0.41017   0.54425   0.86430   0.00000  Uiso   1.00
C828   C     0.08983   0.45575   0.80236   0.00000  Uiso   1.00
C829   C     0.38351   0.50027   0.83262   0.00000  Uiso   1.00
C830   C     0.11649   0.49973   0.83404   0.00000  Uiso   1.00
C831   C     0.40255   0.45637   0.80148   0.00000  Uiso   1.00
C832   C     0.09745   0.54363   0.86518   0.00000  Uiso   1.00
C833   C     0.44907   0.45588   0.80209   0.00000  Uiso   1.00
C834   C     0.05093   0.54412   0.86457   0.00000  Uiso   1.00
C835   C     0.47659   0.50024   0.83378   0.00000  Uiso   1.00
C836   C     0.02341   0.49976   0.83288   0.00000  Uiso   1.00
C837   C     0.45718   0.54500   0.86612   0.00000  Uiso   1.00
C838   C     0.04282   0.45500   0.80053   0.00000  Uiso   1.00
C839   C     0.46816   0.41162   0.77108   0.00000  Uiso   1.00
C840   C     0.03184   0.58838   0.89557   0.00000  Uiso   1.00
C841   C     0.01464   0.41072   0.76899   0.00000  Uiso   1.00
C842   C     0.48536   0.58928   0.89766   0.00000  Uiso   1.00
H843   H     0.39332   0.57781   0.88571   0.00000  Uiso   1.00
H844   H     0.10668   0.42219   0.78096   0.00000  Uiso   1.00
H845   H     0.38104   0.42253   0.77734   0.00000  Uiso   1.00
H846   H     0.11896   0.57747   0.88932   0.00000  Uiso   1.00
H847   H     0.44650   0.37784   0.74712   0.00000  Uiso   1.00
H848   H     0.05350   0.62216   0.91952   0.00000  Uiso   1.00
C849   C     0.23724   0.34576   0.81494   0.00000  Uiso   1.00
C850   C     0.26276   0.65424   0.85173   0.00000  Uiso   1.00
N851   N     0.23744   0.48547   0.67951   0.00000  Uiso   1.00
N852   N     0.26255   0.51453   0.98716   0.00000  Uiso   1.00
C853   C     0.03129   0.36256   0.73292   0.00000  Uiso   1.00
H854   H     0.01389   0.65798   0.73123   0.00000  Uiso   1.00
O855   O     0.06228   0.36473   0.70174   0.00000  Uiso   1.00
C856   C     0.46871   0.63744   0.93370   0.00000  Uiso   1.00
H857   H     0.48610   0.34201   0.93536   0.00000  Uiso   1.00
O858   O     0.43772   0.63528   0.96489   0.00000  Uiso   1.00
C859   C     0.19347   0.65720   0.77942   0.00000  Uiso   1.00
H860   H     0.18066   0.34059   0.74130   0.00000  Uiso   1.00
O861   O     0.17018   0.62299   0.79415   0.00000  Uiso   1.00
C862   C     0.30653   0.34280   0.88725   0.00000  Uiso   1.00
H863   H     0.31934   0.65939   0.92536   0.00000  Uiso   1.00
O864   O     0.32982   0.37702   0.87253   0.00000  Uiso   1.00
N865   N     0.22315   0.43631   0.97829   0.00000  Uiso   1.00
O866   O     0.24762   0.39672   0.98170   0.00000  Uiso   1.00
O867   O     0.18104   0.42701   0.95698   0.00000  Uiso   1.00
N868   N     0.27684   0.56369   0.68837   0.00000  Uiso   1.00
O869   O     0.25235   0.60327   0.68497   0.00000  Uiso   1.00
O870   O     0.31895   0.57301   0.70966   0.00000  Uiso   1.00
O871   O     0.75325   0.42871   0.87326   0.00000  Uiso   1.00
O872   O     0.74674   0.57129   0.79341   0.00000  Uiso   1.00
O873   O     0.74480   0.41892   0.76945   0.00000  Uiso   1.00
O874   O     0.75520   0.58108   0.89721   0.00000  Uiso   1.00
C875   C     0.74685   0.40044   0.81882   0.00000  Uiso   1.00
C876   C     0.75315   0.59956   0.84784   0.00000  Uiso   1.00
O877   O     0.68935   0.50488   0.88524   0.00000  Uiso   1.00
O878   O     0.81064   0.49512   0.78143   0.00000  Uiso   1.00
O879   O     0.68090   0.49510   0.78143   0.00000  Uiso   1.00
O880   O     0.81910   0.50490   0.88523   0.00000  Uiso   1.00
C881   C     0.66466   0.49994   0.83362   0.00000  Uiso   1.00
C882   C     0.83534   0.50006   0.83305   0.00000  Uiso   1.00
Cu883  Cu    0.75500   0.50579   0.89479   0.00000  Uiso   1.00
Cu884  Cu    0.74499   0.49421   0.77187   0.00000  Uiso   1.00
C885   C     0.91017   0.54425   0.86430   0.00000  Uiso   1.00
C886   C     0.58983   0.45575   0.80236   0.00000  Uiso   1.00
C887   C     0.88351   0.50027   0.83262   0.00000  Uiso   1.00
C888   C     0.61649   0.49973   0.83404   0.00000  Uiso   1.00
C889   C     0.90255   0.45637   0.80148   0.00000  Uiso   1.00
C890   C     0.59745   0.54363   0.86518   0.00000  Uiso   1.00
C891   C     0.94907   0.45588   0.80209   0.00000  Uiso   1.00
C892   C     0.55093   0.54412   0.86457   0.00000  Uiso   1.00
C893   C     0.97659   0.50024   0.83378   0.00000  Uiso   1.00
C894   C     0.52341   0.49976   0.83288   0.00000  Uiso   1.00
C895   C     0.95718   0.54500   0.86612   0.00000  Uiso   1.00
C896   C     0.54282   0.45500   0.80053   0.00000  Uiso   1.00
C897   C     0.96816   0.41162   0.77108   0.00000  Uiso   1.00
C898   C     0.53184   0.58838   0.89557   0.00000  Uiso   1.00
C899   C     0.51464   0.41072   0.76899   0.00000  Uiso   1.00
C900   C     0.98536   0.58928   0.89766   0.00000  Uiso   1.00
H901   H     0.89332   0.57781   0.88571   0.00000  Uiso   1.00
H902   H     0.60668   0.42219   0.78096   0.00000  Uiso   1.00
H903   H     0.88104   0.42253   0.77734   0.00000  Uiso   1.00
H904   H     0.61896   0.57747   0.88932   0.00000  Uiso   1.00
H905   H     0.94650   0.37784   0.74712   0.00000  Uiso   1.00
H906   H     0.55350   0.62216   0.91952   0.00000  Uiso   1.00
C907   C     0.73724   0.34576   0.81494   0.00000  Uiso   1.00
C908   C     0.76276   0.65424   0.85173   0.00000  Uiso   1.00
N909   N     0.73744   0.48547   0.67951   0.00000  Uiso   1.00
N910   N     0.76255   0.51453   0.98716   0.00000  Uiso   1.00
C911   C     0.53129   0.36256   0.73292   0.00000  Uiso   1.00
H912   H     0.51389   0.65798   0.73123   0.00000  Uiso   1.00
O913   O     0.56228   0.36473   0.70174   0.00000  Uiso   1.00
C914   C     0.96871   0.63744   0.93370   0.00000  Uiso   1.00
H915   H     0.98610   0.34201   0.93536   0.00000  Uiso   1.00
O916   O     0.93772   0.63528   0.96489   0.00000  Uiso   1.00
C917   C     0.69347   0.65720   0.77942   0.00000  Uiso   1.00
H918   H     0.68066   0.34059   0.74130   0.00000  Uiso   1.00
O919   O     0.67018   0.62299   0.79415   0.00000  Uiso   1.00
C920   C     0.80653   0.34280   0.88725   0.00000  Uiso   1.00
H921   H     0.81934   0.65939   0.92536   0.00000  Uiso   1.00
O922   O     0.82982   0.37702   0.87253   0.00000  Uiso   1.00
N923   N     0.72315   0.43631   0.97829   0.00000  Uiso   1.00
O924   O     0.74762   0.39672   0.98170   0.00000  Uiso   1.00
O925   O     0.68104   0.42701   0.95698   0.00000  Uiso   1.00
N926   N     0.77684   0.56369   0.68837   0.00000  Uiso   1.00
O927   O     0.75235   0.60327   0.68497   0.00000  Uiso   1.00
O928   O     0.81895   0.57301   0.70966   0.00000  Uiso   1.00
O929   O     0.25325   0.76204   0.87326   0.00000  Uiso   1.00
O930   O     0.24674   0.90462   0.79341   0.00000  Uiso   1.00
O931   O     0.24480   0.75226   0.76945   0.00000  Uiso   1.00
O932   O     0.25520   0.91441   0.89721   0.00000  Uiso   1.00
C933   C     0.24685   0.73377   0.81882   0.00000  Uiso   1.00
C934   C     0.25315   0.93290   0.84784   0.00000  Uiso   1.00
O935   O     0.18935   0.83821   0.88524   0.00000  Uiso   1.00
O936   O     0.31064   0.82845   0.78143   0.00000  Uiso   1.00
O937   O     0.18090   0.82843   0.78143   0.00000  Uiso   1.00
O938   O     0.31910   0.83824   0.88523   0.00000  Uiso   1.00
C939   C     0.16466   0.83328   0.83362   0.00000  Uiso   1.00
C940   C     0.33534   0.83339   0.83305   0.00000  Uiso   1.00
Cu941  Cu    0.25500   0.83913   0.89479   0.00000  Uiso   1.00
Cu942  Cu    0.24499   0.82754   0.77187   0.00000  Uiso   1.00
C943   C     0.41017   0.87758   0.86430   0.00000  Uiso   1.00
C944   C     0.08983   0.78909   0.80236   0.00000  Uiso   1.00
C945   C     0.38351   0.83360   0.83262   0.00000  Uiso   1.00
C946   C     0.11649   0.83307   0.83404   0.00000  Uiso   1.00
C947   C     0.40255   0.78971   0.80148   0.00000  Uiso   1.00
C948   C     0.09745   0.87696   0.86518   0.00000  Uiso   1.00
C949   C     0.44907   0.78921   0.80209   0.00000  Uiso   1.00
C950   C     0.05093   0.87745   0.86457   0.00000  Uiso   1.00
C951   C     0.47659   0.83357   0.83378   0.00000  Uiso   1.00
C952   C     0.02341   0.83309   0.83288   0.00000  Uiso   1.00
C953   C     0.45718   0.87833   0.86612   0.00000  Uiso   1.00
C954   C     0.04282   0.78834   0.80053   0.00000  Uiso   1.00
C955   C     0.46816   0.74495   0.77108   0.00000  Uiso   1.00
C956   C     0.03184   0.92171   0.89557   0.00000  Uiso   1.00
C957   C     0.01464   0.74405   0.76899   0.00000  Uiso   1.00
C958   C     0.48536   0.92262   0.89766   0.00000  Uiso   1.00
H959   H     0.39332   0.91114   0.88571   0.00000  Uiso   1.00
H960   H     0.10668   0.75553   0.78096   0.00000  Uiso   1.00
H961   H     0.38104   0.75586   0.77734   0.00000  Uiso   1.00
H962   H     0.11896   0.91080   0.88932   0.00000  Uiso   1.00
H963   H     0.44650   0.71117   0.74712   0.00000  Uiso   1.00
H964   H     0.05350   0.95550   0.91952   0.00000  Uiso   1.00
C965   C     0.23724   0.67909   0.81494   0.00000  Uiso   1.00
C966   C     0.26276   0.98757   0.85173   0.00000  Uiso   1.00
N967   N     0.23744   0.81881   0.67951   0.00000  Uiso   1.00
N968   N     0.26255   0.84786   0.98716   0.00000  Uiso   1.00
C969   C     0.03129   0.69589   0.73292   0.00000  Uiso   1.00
H970   H     0.01389   0.99132   0.73123   0.00000  Uiso   1.00
O971   O     0.06228   0.69806   0.70174   0.00000  Uiso   1.00
C972   C     0.46871   0.97077   0.93370   0.00000  Uiso   1.00
H973   H     0.48610   0.67534   0.93536   0.00000  Uiso   1.00
O974   O     0.43772   0.96862   0.96489   0.00000  Uiso   1.00
C975   C     0.19347   0.99053   0.77942   0.00000  Uiso   1.00
H976   H     0.18066   0.67393   0.74130   0.00000  Uiso   1.00
O977   O     0.17018   0.95633   0.79415   0.00000  Uiso   1.00
C978   C     0.30653   0.67613   0.88725   0.00000  Uiso   1.00
H979   H     0.31934   0.99273   0.92536   0.00000  Uiso   1.00
O980   O     0.32982   0.71035   0.87253   0.00000  Uiso   1.00
N981   N     0.22315   0.76965   0.97829   0.00000  Uiso   1.00
O982   O     0.24762   0.73006   0.98170   0.00000  Uiso   1.00
O983   O     0.18104   0.76034   0.95698   0.00000  Uiso   1.00
N984   N     0.27684   0.89702   0.68837   0.00000  Uiso   1.00
O985   O     0.25235   0.93660   0.68497   0.00000  Uiso   1.00
O986   O     0.31895   0.90635   0.70966   0.00000  Uiso   1.00
O987   O     0.75325   0.76204   0.87326   0.00000  Uiso   1.00
O988   O     0.74674   0.90462   0.79341   0.00000  Uiso   1.00
O989   O     0.74480   0.75226   0.76945   0.00000  Uiso   1.00
O990   O     0.75520   0.91441   0.89721   0.00000  Uiso   1.00
C991   C     0.74685   0.73377   0.81882   0.00000  Uiso   1.00
C992   C     0.75315   0.93290   0.84784   0.00000  Uiso   1.00
O993   O     0.68935   0.83821   0.88524   0.00000  Uiso   1.00
O994   O     0.81064   0.82845   0.78143   0.00000  Uiso   1.00
O995   O     0.68090   0.82843   0.78143   0.00000  Uiso   1.00
O996   O     0.81910   0.83824   0.88523   0.00000  Uiso   1.00
C997   C     0.66466   0.83328   0.83362   0.00000  Uiso   1.00
C998   C     0.83534   0.83339   0.83305   0.00000  Uiso   1.00
Cu999  Cu    0.75500   0.83913   0.89479   0.00000  Uiso   1.00
Cu1000 Cu    0.74499   0.82754   0.77187   0.00000  Uiso   1.00
C1001  C     0.91017   0.87758   0.86430   0.00000  Uiso   1.00
C1002  C     0.58983   0.78909   0.80236   0.00000  Uiso   1.00
C1003  C     0.88351   0.83360   0.83262   0.00000  Uiso   1.00
C1004  C     0.61649   0.83307   0.83404   0.00000  Uiso   1.00
C1005  C     0.90255   0.78971   0.80148   0.00000  Uiso   1.00
C1006  C     0.59745   0.87696   0.86518   0.00000  Uiso   1.00
C1007  C     0.94907   0.78921   0.80209   0.00000  Uiso   1.00
C1008  C     0.55093   0.87745   0.86457   0.00000  Uiso   1.00
C1009  C     0.97659   0.83357   0.83378   0.00000  Uiso   1.00
C1010  C     0.52341   0.83309   0.83288   0.00000  Uiso   1.00
C1011  C     0.95718   0.87833   0.86612   0.00000  Uiso   1.00
C1012  C     0.54282   0.78834   0.80053   0.00000  Uiso   1.00
C1013  C     0.96816   0.74495   0.77108   0.00000  Uiso   1.00
C1014  C     0.53184   0.92171   0.89557   0.00000  Uiso   1.00
C1015  C     0.51464   0.74405   0.76899   0.00000  Uiso   1.00
C1016  C     0.98536   0.92262   0.89766   0.00000  Uiso   1.00
H1017  H     0.89332   0.91114   0.88571   0.00000  Uiso   1.00
H1018  H     0.60668   0.75553   0.78096   0.00000  Uiso   1.00
H1019  H     0.88104   0.75586   0.77734   0.00000  Uiso   1.00
H1020  H     0.61896   0.91080   0.88932   0.00000  Uiso   1.00
H1021  H     0.94650   0.71117   0.74712   0.00000  Uiso   1.00
H1022  H     0.55350   0.95550   0.91952   0.00000  Uiso   1.00
C1023  C     0.73724   0.67909   0.81494   0.00000  Uiso   1.00
C1024  C     0.76276   0.98757   0.85173   0.00000  Uiso   1.00
N1025  N     0.73744   0.81881   0.67951   0.00000  Uiso   1.00
N1026  N     0.76255   0.84786   0.98716   0.00000  Uiso   1.00
C1027  C     0.53129   0.69589   0.73292   0.00000  Uiso   1.00
H1028  H     0.51389   0.99132   0.73123   0.00000  Uiso   1.00
O1029  O     0.56228   0.69806   0.70174   0.00000  Uiso   1.00
C1030  C     0.96871   0.97077   0.93370   0.00000  Uiso   1.00
H1031  H     0.98610   0.67534   0.93536   0.00000  Uiso   1.00
O1032  O     0.93772   0.96862   0.96489   0.00000  Uiso   1.00
C1033  C     0.69347   0.99053   0.77942   0.00000  Uiso   1.00
H1034  H     0.68066   0.67393   0.74130   0.00000  Uiso   1.00
O1035  O     0.67018   0.95633   0.79415   0.00000  Uiso   1.00
C1036  C     0.80653   0.67613   0.88725   0.00000  Uiso   1.00
H1037  H     0.81934   0.99273   0.92536   0.00000  Uiso   1.00
O1038  O     0.82982   0.71035   0.87253   0.00000  Uiso   1.00
N1039  N     0.72315   0.76965   0.97829   0.00000  Uiso   1.00
O1040  O     0.74762   0.73006   0.98170   0.00000  Uiso   1.00
O1041  O     0.68104   0.76034   0.95698   0.00000  Uiso   1.00
N1042  N     0.77684   0.89702   0.68837   0.00000  Uiso   1.00
O1043  O     0.75235   0.93660   0.68497   0.00000  Uiso   1.00
O1044  O     0.81895   0.90635   0.70966   0.00000  Uiso   1.00
loop_
_geom_bond_atom_site_label_1
_geom_bond_atom_site_label_2
_geom_bond_distance
_geom_bond_site_symmetry_2
_ccdc_geom_bond_type
O1     C5      1.292   .     A
O1     Cu13    1.963   .     S
O2     Cu14    1.963   .     S
O2     C6      1.292   .     A
O3     Cu14    1.947   .     S
O3     C5      1.296   .     A
O4     C6      1.296   .     A
O4     Cu13    1.947   .     S
C5     C37     1.421   .     S
C6     C38     1.421   .     S
O7     C11     1.301   .     A
O7     Cu13    1.955   .     S
O8     C12     1.301   .     A
O8     Cu14    1.955   .     S
O9     Cu14    1.950   .     S
O9     C11     1.300   .     A
O10    C12     1.300   .     A
O10    Cu13    1.950   .     S
C11    C18     1.442   .     S
C12    C17     1.442   .     S
Cu13   N40     2.041   .     S
Cu13   Cu14    2.716   .     S
Cu14   N39     2.041   .     S
C15    H31     1.080   .     S
C15    C25     1.402   .     A
C15    C17     1.393   .     A
C16    C18     1.393   .     A
C16    C26     1.402   .     A
C16    H32     1.080   .     S
C17    C19     1.391   .     A
C18    C20     1.391   .     A
C19    C21     1.391   .     A
C19    H33     1.086   .     S
C20    H34     1.085   .     S
C20    C22     1.391   .     A
C21    C27     1.398   .     A
C21    C23     1.413   .     A
C22    C28     1.397   .     A
C22    C24     1.413   .     A
C23    C25     1.423   .     A
C23    C82     1.404   .     S
C24    C26     1.423   .     A
C24    C81     1.404   1_455 S
C25    C30     1.421   .     A
C26    C29     1.421   .     A
C27    H35     1.085   .     S
C27    C87     1.397   .     S
C28    H36     1.085   .     S
C28    C88     1.397   1_455 S
C29    C41     1.485   .     S
C29    C85     1.397   1_455 S
C30    C44     1.484   .     S
C30    C86     1.397   .     S
C37    C270    1.353   1_545 S
C37    C279    1.496   1_545 S
C38    C153    1.353   .     S
C38    C166    1.496   .     S
N39    N736    1.294   1_554 S
N39    N749    1.384   1_554 S
N40    N387    1.294   .     S
N40    N404    1.384   .     S
C41    O43     1.220   .     D
C41    H274    1.086   1_545 S
H42    C157    1.086   .     S
C44    O46     1.220   .     D
C44    H161    1.086   .     S
H45    C276    1.086   1_545 S
C47    O49     1.221   .     D
C47    C153    1.496   .     S
C47    H164    1.086   .     S
H48    C279    1.086   1_545 S
C50    O52     1.221   .     D
C50    C270    1.496   1_545 S
C50    H283    1.086   1_545 S
H51    C166    1.086   .     S
N53    O54     1.301   .     A
N53    O55     1.301   .     A
N53    N387    1.384   .     S
N56    O57     1.301   .     A
N56    O58     1.301   .     A
N56    N736    1.384   1_554 S
O59    C63     1.292   .     A
O59    Cu71    1.963   .     S
O60    Cu72    1.963   .     S
O60    C64     1.292   .     A
O61    Cu72    1.947   .     S
O61    C63     1.296   .     A
O62    C64     1.296   .     A
O62    Cu71    1.947   .     S
C63    C95     1.421   .     S
C64    C96     1.421   .     S
O65    C69     1.301   .     A
O65    Cu71    1.955   .     S
O66    C70     1.301   .     A
O66    Cu72    1.955   .     S
O67    Cu72    1.950   .     S
O67    C69     1.300   .     A
O68    C70     1.300   .     A
O68    Cu71    1.950   .     S
C69    C76     1.442   .     S
C70    C75     1.442   .     S
Cu71   N98     2.041   .     S
Cu71   Cu72    2.716   .     S
Cu72   N97     2.041   .     S
C73    H89     1.080   .     S
C73    C83     1.402   .     A
C73    C75     1.393   .     A
C74    C76     1.393   .     A
C74    C84     1.402   .     A
C74    H90     1.080   .     S
C75    C77     1.391   .     A
C76    C78     1.391   .     A
C77    C79     1.391   .     A
C77    H91     1.086   .     S
C78    H92     1.085   .     S
C78    C80     1.391   .     A
C79    C85     1.398   .     A
C79    C81     1.413   .     A
C80    C86     1.397   .     A
C80    C82     1.413   .     A
C81    C83     1.423   .     A
C81    C24     1.404   1_655 S
C82    C84     1.423   .     A
C83    C88     1.421   .     A
C84    C87     1.421   .     A
C85    H93     1.085   .     S
C85    C29     1.397   1_655 S
C86    H94     1.085   .     S
C87    C99     1.485   .     S
C88    C102    1.484   .     S
C88    C28     1.397   1_655 S
C95    C328    1.353   1_545 S
C95    C337    1.496   1_545 S
C96    C211    1.353   .     S
C96    C224    1.496   .     S
N97    N794    1.294   1_554 S
N97    N807    1.384   1_554 S
N98    N445    1.294   .     S
N98    N462    1.384   .     S
C99    O101    1.220   .     D
C99    H332    1.086   1_545 S
H100   C215    1.086   .     S
C102   O104    1.220   .     D
C102   H219    1.086   .     S
H103   C334    1.086   1_545 S
C105   O107    1.221   .     D
C105   C211    1.496   .     S
C105   H222    1.086   .     S
H106   C337    1.086   1_545 S
C108   O110    1.221   .     D
C108   C328    1.496   1_545 S
C108   H341    1.086   1_545 S
H109   C224    1.086   .     S
N111   O112    1.301   .     A
N111   O113    1.301   .     A
N111   N445    1.384   .     S
N114   O115    1.301   .     A
N114   O116    1.301   .     A
N114   N794    1.384   1_554 S
O117   C121    1.292   .     A
O117   Cu129   1.963   .     S
O118   Cu130   1.963   .     S
O118   C122    1.292   .     A
O119   Cu130   1.947   .     S
O119   C121    1.296   .     A
O120   C122    1.296   .     A
O120   Cu129   1.947   .     S
C121   C153    1.421   .     S
C122   C154    1.421   .     S
O123   C127    1.301   .     A
O123   Cu129   1.955   .     S
O124   C128    1.301   .     A
O124   Cu130   1.955   .     S
O125   Cu130   1.950   .     S
O125   C127    1.300   .     A
O126   C128    1.300   .     A
O126   Cu129   1.950   .     S
C127   C134    1.442   .     S
C128   C133    1.442   .     S
Cu129  N156    2.041   .     S
Cu129  Cu130   2.716   .     S
Cu130  N155    2.041   .     S
C131   H147    1.080   .     S
C131   C141    1.402   .     A
C131   C133    1.393   .     A
C132   C134    1.393   .     A
C132   C142    1.402   .     A
C132   H148    1.080   .     S
C133   C135    1.391   .     A
C134   C136    1.391   .     A
C135   C137    1.391   .     A
C135   H149    1.086   .     S
C136   H150    1.085   .     S
C136   C138    1.391   .     A
C137   C143    1.398   .     A
C137   C139    1.413   .     A
C138   C144    1.397   .     A
C138   C140    1.413   .     A
C139   C141    1.423   .     A
C139   C198    1.404   .     S
C140   C142    1.423   .     A
C140   C197    1.404   1_455 S
C141   C146    1.421   .     A
C142   C145    1.421   .     A
C143   H151    1.085   .     S
C143   C203    1.397   .     S
C144   H152    1.085   .     S
C144   C204    1.397   1_455 S
C145   C157    1.485   .     S
C145   C201    1.397   1_455 S
C146   C160    1.484   .     S
C146   C202    1.397   .     S
C154   C269    1.353   .     S
C154   C282    1.496   .     S
N155   N852    1.294   1_554 S
N155   N865    1.384   1_554 S
N156   N503    1.294   .     S
N156   N520    1.384   .     S
C157   O159    1.220   .     D
H158   C273    1.086   .     S
C160   O162    1.220   .     D
C160   H277    1.086   .     S
C163   O165    1.221   .     D
C163   C269    1.496   .     S
C163   H280    1.086   .     S
C166   O168    1.221   .     D
H167   C282    1.086   .     S
N169   O170    1.301   .     A
N169   O171    1.301   .     A
N169   N503    1.384   .     S
N172   O173    1.301   .     A
N172   O174    1.301   .     A
N172   N852    1.384   1_554 S
O175   C179    1.292   .     A
O175   Cu187   1.963   .     S
O176   Cu188   1.963   .     S
O176   C180    1.292   .     A
O177   Cu188   1.947   .     S
O177   C179    1.296   .     A
O178   C180    1.296   .     A
O178   Cu187   1.947   .     S
C179   C211    1.421   .     S
C180   C212    1.421   .     S
O181   C185    1.301   .     A
O181   Cu187   1.955   .     S
O182   C186    1.301   .     A
O182   Cu188   1.955   .     S
O183   Cu188   1.950   .     S
O183   C185    1.300   .     A
O184   C186    1.300   .     A
O184   Cu187   1.950   .     S
C185   C192    1.442   .     S
C186   C191    1.442   .     S
Cu187  N214    2.041   .     S
Cu187  Cu188   2.716   .     S
Cu188  N213    2.041   .     S
C189   H205    1.080   .     S
C189   C199    1.402   .     A
C189   C191    1.393   .     A
C190   C192    1.393   .     A
C190   C200    1.402   .     A
C190   H206    1.080   .     S
C191   C193    1.391   .     A
C192   C194    1.391   .     A
C193   C195    1.391   .     A
C193   H207    1.086   .     S
C194   H208    1.085   .     S
C194   C196    1.391   .     A
C195   C201    1.398   .     A
C195   C197    1.413   .     A
C196   C202    1.397   .     A
C196   C198    1.413   .     A
C197   C199    1.423   .     A
C197   C140    1.404   1_655 S
C198   C200    1.423   .     A
C199   C204    1.421   .     A
C200   C203    1.421   .     A
C201   H209    1.085   .     S
C201   C145    1.397   1_655 S
C202   H210    1.085   .     S
C203   C215    1.485   .     S
C204   C218    1.484   .     S
C204   C144    1.397   1_655 S
C212   C327    1.353   .     S
C212   C340    1.496   .     S
N213   N910    1.294   1_554 S
N213   N923    1.384   1_554 S
N214   N561    1.294   .     S
N214   N578    1.384   .     S
C215   O217    1.220   .     D
H216   C331    1.086   .     S
C218   O220    1.220   .     D
C218   H335    1.086   .     S
C221   O223    1.221   .     D
C221   C327    1.496   .     S
C221   H338    1.086   .     S
C224   O226    1.221   .     D
H225   C340    1.086   .     S
N227   O228    1.301   .     A
N227   O229    1.301   .     A
N227   N561    1.384   .     S
N230   O231    1.301   .     A
N230   O232    1.301   .     A
N230   N910    1.384   1_554 S
O233   C237    1.292   .     A
O233   Cu245   1.963   .     S
O234   Cu246   1.963   .     S
O234   C238    1.292   .     A
O235   Cu246   1.947   .     S
O235   C237    1.296   .     A
O236   C238    1.296   .     A
O236   Cu245   1.947   .     S
C237   C269    1.421   .     S
C238   C270    1.421   .     S
O239   C243    1.301   .     A
O239   Cu245   1.955   .     S
O240   C244    1.301   .     A
O240   Cu246   1.955   .     S
O241   Cu246   1.950   .     S
O241   C243    1.300   .     A
O242   C244    1.300   .     A
O242   Cu245   1.950   .     S
C243   C250    1.442   .     S
C244   C249    1.442   .     S
Cu245  N272    2.041   .     S
Cu245  Cu246   2.716   .     S
Cu246  N271    2.041   .     S
C247   H263    1.080   .     S
C247   C257    1.402   .     A
C247   C249    1.393   .     A
C248   C250    1.393   .     A
C248   C258    1.402   .     A
C248   H264    1.080   .     S
C249   C251    1.391   .     A
C250   C252    1.391   .     A
C251   C253    1.391   .     A
C251   H265    1.086   .     S
C252   H266    1.085   .     S
C252   C254    1.391   .     A
C253   C259    1.398   .     A
C253   C255    1.413   .     A
C254   C260    1.397   .     A
C254   C256    1.413   .     A
C255   C257    1.423   .     A
C255   C314    1.404   .     S
C256   C258    1.423   .     A
C256   C313    1.404   1_455 S
C257   C262    1.421   .     A
C258   C261    1.421   .     A
C259   H267    1.085   .     S
C259   C319    1.397   .     S
C260   H268    1.085   .     S
C260   C320    1.397   1_455 S
C261   C273    1.485   .     S
C261   C317    1.397   1_455 S
C262   C276    1.484   .     S
C262   C318    1.397   .     S
C270   C37     1.353   1_565 S
C270   C50     1.496   1_565 S
N271   N968    1.294   1_554 S
N271   N981    1.384   1_554 S
N272   N619    1.294   .     S
N272   N636    1.384   .     S
C273   O275    1.220   .     D
H274   C41     1.086   1_565 S
C276   O278    1.220   .     D
C276   H45     1.086   1_565 S
C279   O281    1.221   .     D
C279   C37     1.496   1_565 S
C279   H48     1.086   1_565 S
C282   O284    1.221   .     D
H283   C50     1.086   1_565 S
N285   O286    1.301   .     A
N285   O287    1.301   .     A
N285   N619    1.384   .     S
N288   O289    1.301   .     A
N288   O290    1.301   .     A
N288   N968    1.384   1_554 S
O291   C295    1.292   .     A
O291   Cu303   1.963   .     S
O292   Cu304   1.963   .     S
O292   C296    1.292   .     A
O293   Cu304   1.947   .     S
O293   C295    1.296   .     A
O294   C296    1.296   .     A
O294   Cu303   1.947   .     S
C295   C327    1.421   .     S
C296   C328    1.421   .     S
O297   C301    1.301   .     A
O297   Cu303   1.955   .     S
O298   C302    1.301   .     A
O298   Cu304   1.955   .     S
O299   Cu304   1.950   .     S
O299   C301    1.300   .     A
O300   C302    1.300   .     A
O300   Cu303   1.950   .     S
C301   C308    1.442   .     S
C302   C307    1.442   .     S
Cu303  N330    2.041   .     S
Cu303  Cu304   2.716   .     S
Cu304  N329    2.041   .     S
C305   H321    1.080   .     S
C305   C315    1.402   .     A
C305   C307    1.393   .     A
C306   C308    1.393   .     A
C306   C316    1.402   .     A
C306   H322    1.080   .     S
C307   C309    1.391   .     A
C308   C310    1.391   .     A
C309   C311    1.391   .     A
C309   H323    1.086   .     S
C310   H324    1.085   .     S
C310   C312    1.391   .     A
C311   C317    1.398   .     A
C311   C313    1.413   .     A
C312   C318    1.397   .     A
C312   C314    1.413   .     A
C313   C315    1.423   .     A
C313   C256    1.404   1_655 S
C314   C316    1.423   .     A
C315   C320    1.421   .     A
C316   C319    1.421   .     A
C317   H325    1.085   .     S
C317   C261    1.397   1_655 S
C318   H326    1.085   .     S
C319   C331    1.485   .     S
C320   C334    1.484   .     S
C320   C260    1.397   1_655 S
C328   C95     1.353   1_565 S
C328   C108    1.496   1_565 S
N329   N1026   1.294   1_554 S
N329   N1039   1.384   1_554 S
N330   N677    1.294   .     S
N330   N694    1.384   .     S
C331   O333    1.220   .     D
H332   C99     1.086   1_565 S
C334   O336    1.220   .     D
C334   H103    1.086   1_565 S
C337   O339    1.221   .     D
C337   C95     1.496   1_565 S
C337   H106    1.086   1_565 S
C340   O342    1.221   .     D
H341   C108    1.086   1_565 S
N343   O344    1.301   .     A
N343   O345    1.301   .     A
N343   N677    1.384   .     S
N346   O347    1.301   .     A
N346   O348    1.301   .     A
N346   N1026   1.384   1_554 S
O349   C353    1.292   .     A
O349   Cu361   1.963   .     S
O350   Cu362   1.963   .     S
O350   C354    1.292   .     A
O351   Cu362   1.947   .     S
O351   C353    1.296   .     A
O352   C354    1.296   .     A
O352   Cu361   1.947   .     S
C353   C385    1.421   .     S
C354   C386    1.421   .     S
O355   C359    1.301   .     A
O355   Cu361   1.955   .     S
O356   C360    1.301   .     A
O356   Cu362   1.955   .     S
O357   Cu362   1.950   .     S
O357   C359    1.300   .     A
O358   C360    1.300   .     A
O358   Cu361   1.950   .     S
C359   C366    1.442   .     S
C360   C365    1.442   .     S
Cu361  N388    2.041   .     S
Cu361  Cu362   2.716   .     S
Cu362  N387    2.041   .     S
C363   H379    1.080   .     S
C363   C373    1.402   .     A
C363   C365    1.393   .     A
C364   C366    1.393   .     A
C364   C374    1.402   .     A
C364   H380    1.080   .     S
C365   C367    1.391   .     A
C366   C368    1.391   .     A
C367   C369    1.391   .     A
C367   H381    1.086   .     S
C368   H382    1.085   .     S
C368   C370    1.391   .     A
C369   C375    1.398   .     A
C369   C371    1.413   .     A
C370   C376    1.397   .     A
C370   C372    1.413   .     A
C371   C373    1.423   .     A
C371   C430    1.404   .     S
C372   C374    1.423   .     A
C372   C429    1.404   1_455 S
C373   C378    1.421   .     A
C374   C377    1.421   .     A
C375   H383    1.085   .     S
C375   C435    1.397   .     S
C376   H384    1.085   .     S
C376   C436    1.397   1_455 S
C377   C389    1.485   .     S
C377   C433    1.397   1_455 S
C378   C392    1.484   .     S
C378   C434    1.397   .     S
C385   C618    1.353   1_545 S
C385   C627    1.496   1_545 S
C386   C501    1.353   .     S
C386   C514    1.496   .     S
N388   N735    1.294   .     S
N388   N752    1.384   .     S
C389   O391    1.220   .     D
C389   H622    1.086   1_545 S
H390   C505    1.086   .     S
C392   O394    1.220   .     D
C392   H509    1.086   .     S
H393   C624    1.086   1_545 S
C395   O397    1.221   .     D
C395   C501    1.496   .     S
C395   H512    1.086   .     S
H396   C627    1.086   1_545 S
C398   O400    1.221   .     D
C398   C618    1.496   1_545 S
C398   H631    1.086   1_545 S
H399   C514    1.086   .     S
N401   O402    1.301   .     A
N401   O403    1.301   .     A
N401   N735    1.384   .     S
N404   O405    1.301   .     A
N404   O406    1.301   .     A
O407   C411    1.292   .     A
O407   Cu419   1.963   .     S
O408   Cu420   1.963   .     S
O408   C412    1.292   .     A
O409   Cu420   1.947   .     S
O409   C411    1.296   .     A
O410   C412    1.296   .     A
O410   Cu419   1.947   .     S
C411   C443    1.421   .     S
C412   C444    1.421   .     S
O413   C417    1.301   .     A
O413   Cu419   1.955   .     S
O414   C418    1.301   .     A
O414   Cu420   1.955   .     S
O415   Cu420   1.950   .     S
O415   C417    1.300   .     A
O416   C418    1.300   .     A
O416   Cu419   1.950   .     S
C417   C424    1.442   .     S
C418   C423    1.442   .     S
Cu419  N446    2.041   .     S
Cu419  Cu420   2.716   .     S
Cu420  N445    2.041   .     S
C421   H437    1.080   .     S
C421   C431    1.402   .     A
C421   C423    1.393   .     A
C422   C424    1.393   .     A
C422   C432    1.402   .     A
C422   H438    1.080   .     S
C423   C425    1.391   .     A
C424   C426    1.391   .     A
C425   C427    1.391   .     A
C425   H439    1.086   .     S
C426   H440    1.085   .     S
C426   C428    1.391   .     A
C427   C433    1.398   .     A
C427   C429    1.413   .     A
C428   C434    1.397   .     A
C428   C430    1.413   .     A
C429   C431    1.423   .     A
C429   C372    1.404   1_655 S
C430   C432    1.423   .     A
C431   C436    1.421   .     A
C432   C435    1.421   .     A
C433   H441    1.085   .     S
C433   C377    1.397   1_655 S
C434   H442    1.085   .     S
C435   C447    1.485   .     S
C436   C450    1.484   .     S
C436   C376    1.397   1_655 S
C443   C676    1.353   1_545 S
C443   C685    1.496   1_545 S
C444   C559    1.353   .     S
C444   C572    1.496   .     S
N446   N793    1.294   .     S
N446   N810    1.384   .     S
C447   O449    1.220   .     D
C447   H680    1.086   1_545 S
H448   C563    1.086   .     S
C450   O452    1.220   .     D
C450   H567    1.086   .     S
H451   C682    1.086   1_545 S
C453   O455    1.221   .     D
C453   C559    1.496   .     S
C453   H570    1.086   .     S
H454   C685    1.086   1_545 S
C456   O458    1.221   .     D
C456   C676    1.496   1_545 S
C456   H689    1.086   1_545 S
H457   C572    1.086   .     S
N459   O460    1.301   .     A
N459   O461    1.301   .     A
N459   N793    1.384   .     S
N462   O463    1.301   .     A
N462   O464    1.301   .     A
O465   C469    1.292   .     A
O465   Cu477   1.963   .     S
O466   Cu478   1.963   .     S
O466   C470    1.292   .     A
O467   Cu478   1.947   .     S
O467   C469    1.296   .     A
O468   C470    1.296   .     A
O468   Cu477   1.947   .     S
C469   C501    1.421   .     S
C470   C502    1.421   .     S
O471   C475    1.301   .     A
O471   Cu477   1.955   .     S
O472   C476    1.301   .     A
O472   Cu478   1.955   .     S
O473   Cu478   1.950   .     S
O473   C475    1.300   .     A
O474   C476    1.300   .     A
O474   Cu477   1.950   .     S
C475   C482    1.442   .     S
C476   C481    1.442   .     S
Cu477  N504    2.041   .     S
Cu477  Cu478   2.716   .     S
Cu478  N503    2.041   .     S
C479   H495    1.080   .     S
C479   C489    1.402   .     A
C479   C481    1.393   .     A
C480   C482    1.393   .     A
C480   C490    1.402   .     A
C480   H496    1.080   .     S
C481   C483    1.391   .     A
C482   C484    1.391   .     A
C483   C485    1.391   .     A
C483   H497    1.086   .     S
C484   H498    1.085   .     S
C484   C486    1.391   .     A
C485   C491    1.398   .     A
C485   C487    1.413   .     A
C486   C492    1.397   .     A
C486   C488    1.413   .     A
C487   C489    1.423   .     A
C487   C546    1.404   .     S
C488   C490    1.423   .     A
C488   C545    1.404   1_455 S
C489   C494    1.421   .     A
C490   C493    1.421   .     A
C491   H499    1.085   .     S
C491   C551    1.397   .     S
C492   H500    1.085   .     S
C492   C552    1.397   1_455 S
C493   C505    1.485   .     S
C493   C549    1.397   1_455 S
C494   C508    1.484   .     S
C494   C550    1.397   .     S
C502   C617    1.353   .     S
C502   C630    1.496   .     S
N504   N851    1.294   .     S
N504   N868    1.384   .     S
C505   O507    1.220   .     D
H506   C621    1.086   .     S
C508   O510    1.220   .     D
C508   H625    1.086   .     S
C511   O513    1.221   .     D
C511   C617    1.496   .     S
C511   H628    1.086   .     S
C514   O516    1.221   .     D
H515   C630    1.086   .     S
N517   O518    1.301   .     A
N517   O519    1.301   .     A
N517   N851    1.384   .     S
N520   O521    1.301   .     A
N520   O522    1.301   .     A
O523   C527    1.292   .     A
O523   Cu535   1.963   .     S
O524   Cu536   1.963   .     S
O524   C528    1.292   .     A
O525   Cu536   1.947   .     S
O525   C527    1.296   .     A
O526   C528    1.296   .     A
O526   Cu535   1.947   .     S
C527   C559    1.421   .     S
C528   C560    1.421   .     S
O529   C533    1.301   .     A
O529   Cu535   1.955   .     S
O530   C534    1.301   .     A
O530   Cu536   1.955   .     S
O531   Cu536   1.950   .     S
O531   C533    1.300   .     A
O532   C534    1.300   .     A
O532   Cu535   1.950   .     S
C533   C540    1.442   .     S
C534   C539    1.442   .     S
Cu535  N562    2.041   .     S
Cu535  Cu536   2.716   .     S
Cu536  N561    2.041   .     S
C537   H553    1.080   .     S
C537   C547    1.402   .     A
C537   C539    1.393   .     A
C538   C540    1.393   .     A
C538   C548    1.402   .     A
C538   H554    1.080   .     S
C539   C541    1.391   .     A
C540   C542    1.391   .     A
C541   C543    1.391   .     A
C541   H555    1.086   .     S
C542   H556    1.085   .     S
C542   C544    1.391   .     A
C543   C549    1.398   .     A
C543   C545    1.413   .     A
C544   C550    1.397   .     A
C544   C546    1.413   .     A
C545   C547    1.423   .     A
C545   C488    1.404   1_655 S
C546   C548    1.423   .     A
C547   C552    1.421   .     A
C548   C551    1.421   .     A
C549   H557    1.085   .     S
C549   C493    1.397   1_655 S
C550   H558    1.085   .     S
C551   C563    1.485   .     S
C552   C566    1.484   .     S
C552   C492    1.397   1_655 S
C560   C675    1.353   .     S
C560   C688    1.496   .     S
N562   N909    1.294   .     S
N562   N926    1.384   .     S
C563   O565    1.220   .     D
H564   C679    1.086   .     S
C566   O568    1.220   .     D
C566   H683    1.086   .     S
C569   O571    1.221   .     D
C569   C675    1.496   .     S
C569   H686    1.086   .     S
C572   O574    1.221   .     D
H573   C688    1.086   .     S
N575   O576    1.301   .     A
N575   O577    1.301   .     A
N575   N909    1.384   .     S
N578   O579    1.301   .     A
N578   O580    1.301   .     A
O581   C585    1.292   .     A
O581   Cu593   1.963   .     S
O582   Cu594   1.963   .     S
O582   C586    1.292   .     A
O583   Cu594   1.947   .     S
O583   C585    1.296   .     A
O584   C586    1.296   .     A
O584   Cu593   1.947   .     S
C585   C617    1.421   .     S
C586   C618    1.421   .     S
O587   C591    1.301   .     A
O587   Cu593   1.955   .     S
O588   C592    1.301   .     A
O588   Cu594   1.955   .     S
O589   Cu594   1.950   .     S
O589   C591    1.300   .     A
O590   C592    1.300   .     A
O590   Cu593   1.950   .     S
C591   C598    1.442   .     S
C592   C597    1.442   .     S
Cu593  N620    2.041   .     S
Cu593  Cu594   2.716   .     S
Cu594  N619    2.041   .     S
C595   H611    1.080   .     S
C595   C605    1.402   .     A
C595   C597    1.393   .     A
C596   C598    1.393   .     A
C596   C606    1.402   .     A
C596   H612    1.080   .     S
C597   C599    1.391   .     A
C598   C600    1.391   .     A
C599   C601    1.391   .     A
C599   H613    1.086   .     S
C600   H614    1.085   .     S
C600   C602    1.391   .     A
C601   C607    1.398   .     A
C601   C603    1.413   .     A
C602   C608    1.397   .     A
C602   C604    1.413   .     A
C603   C605    1.423   .     A
C603   C662    1.404   .     S
C604   C606    1.423   .     A
C604   C661    1.404   1_455 S
C605   C610    1.421   .     A
C606   C609    1.421   .     A
C607   H615    1.085   .     S
C607   C667    1.397   .     S
C608   H616    1.085   .     S
C608   C668    1.397   1_455 S
C609   C621    1.485   .     S
C609   C665    1.397   1_455 S
C610   C624    1.484   .     S
C610   C666    1.397   .     S
C618   C385    1.353   1_565 S
C618   C398    1.496   1_565 S
N620   N967    1.294   .     S
N620   N984    1.384   .     S
C621   O623    1.220   .     D
H622   C389    1.086   1_565 S
C624   O626    1.220   .     D
C624   H393    1.086   1_565 S
C627   O629    1.221   .     D
C627   C385    1.496   1_565 S
C627   H396    1.086   1_565 S
C630   O632    1.221   .     D
H631   C398    1.086   1_565 S
N633   O634    1.301   .     A
N633   O635    1.301   .     A
N633   N967    1.384   .     S
N636   O637    1.301   .     A
N636   O638    1.301   .     A
O639   C643    1.292   .     A
O639   Cu651   1.963   .     S
O640   Cu652   1.963   .     S
O640   C644    1.292   .     A
O641   Cu652   1.947   .     S
O641   C643    1.296   .     A
O642   C644    1.296   .     A
O642   Cu651   1.947   .     S
C643   C675    1.421   .     S
C644   C676    1.421   .     S
O645   C649    1.301   .     A
O645   Cu651   1.955   .     S
O646   C650    1.301   .     A
O646   Cu652   1.955   .     S
O647   Cu652   1.950   .     S
O647   C649    1.300   .     A
O648   C650    1.300   .     A
O648   Cu651   1.950   .     S
C649   C656    1.442   .     S
C650   C655    1.442   .     S
Cu651  N678    2.041   .     S
Cu651  Cu652   2.716   .     S
Cu652  N677    2.041   .     S
C653   H669    1.080   .     S
C653   C663    1.402   .     A
C653   C655    1.393   .     A
C654   C656    1.393   .     A
C654   C664    1.402   .     A
C654   H670    1.080   .     S
C655   C657    1.391   .     A
C656   C658    1.391   .     A
C657   C659    1.391   .     A
C657   H671    1.086   .     S
C658   H672    1.085   .     S
C658   C660    1.391   .     A
C659   C665    1.398   .     A
C659   C661    1.413   .     A
C660   C666    1.397   .     A
C660   C662    1.413   .     A
C661   C663    1.423   .     A
C661   C604    1.404   1_655 S
C662   C664    1.423   .     A
C663   C668    1.421   .     A
C664   C667    1.421   .     A
C665   H673    1.085   .     S
C665   C609    1.397   1_655 S
C666   H674    1.085   .     S
C667   C679    1.485   .     S
C668   C682    1.484   .     S
C668   C608    1.397   1_655 S
C676   C443    1.353   1_565 S
C676   C456    1.496   1_565 S
N678   N1025   1.294   .     S
N678   N1042   1.384   .     S
C679   O681    1.220   .     D
H680   C447    1.086   1_565 S
C682   O684    1.220   .     D
C682   H451    1.086   1_565 S
C685   O687    1.221   .     D
C685   C443    1.496   1_565 S
C685   H454    1.086   1_565 S
C688   O690    1.221   .     D
H689   C456    1.086   1_565 S
N691   O692    1.301   .     A
N691   O693    1.301   .     A
N691   N1025   1.384   .     S
N694   O695    1.301   .     A
N694   O696    1.301   .     A
O697   C701    1.292   .     A
O697   Cu709   1.963   .     S
O698   Cu710   1.963   .     S
O698   C702    1.292   .     A
O699   Cu710   1.947   .     S
O699   C701    1.296   .     A
O700   C702    1.296   .     A
O700   Cu709   1.947   .     S
C701   C733    1.421   .     S
C702   C734    1.421   .     S
O703   C707    1.301   .     A
O703   Cu709   1.955   .     S
O704   C708    1.301   .     A
O704   Cu710   1.955   .     S
O705   Cu710   1.950   .     S
O705   C707    1.300   .     A
O706   C708    1.300   .     A
O706   Cu709   1.950   .     S
C707   C714    1.442   .     S
C708   C713    1.442   .     S
Cu709  N736    2.041   .     S
Cu709  Cu710   2.716   .     S
Cu710  N735    2.041   .     S
C711   H727    1.080   .     S
C711   C721    1.402   .     A
C711   C713    1.393   .     A
C712   C714    1.393   .     A
C712   C722    1.402   .     A
C712   H728    1.080   .     S
C713   C715    1.391   .     A
C714   C716    1.391   .     A
C715   C717    1.391   .     A
C715   H729    1.086   .     S
C716   H730    1.085   .     S
C716   C718    1.391   .     A
C717   C723    1.398   .     A
C717   C719    1.413   .     A
C718   C724    1.397   .     A
C718   C720    1.413   .     A
C719   C721    1.423   .     A
C719   C778    1.404   .     S
C720   C722    1.423   .     A
C720   C777    1.404   1_455 S
C721   C726    1.421   .     A
C722   C725    1.421   .     A
C723   H731    1.085   .     S
C723   C783    1.397   .     S
C724   H732    1.085   .     S
C724   C784    1.397   1_455 S
C725   C737    1.485   .     S
C725   C781    1.397   1_455 S
C726   C740    1.484   .     S
C726   C782    1.397   .     S
C733   C966    1.353   1_545 S
C733   C975    1.496   1_545 S
C734   C849    1.353   .     S
C734   C862    1.496   .     S
N736   N39     1.294   1_556 S
N736   N56     1.384   1_556 S
C737   O739    1.220   .     D
C737   H970    1.086   1_545 S
H738   C853    1.086   .     S
C740   O742    1.220   .     D
C740   H857    1.086   .     S
H741   C972    1.086   1_545 S
C743   O745    1.221   .     D
C743   C849    1.496   .     S
C743   H860    1.086   .     S
H744   C975    1.086   1_545 S
C746   O748    1.221   .     D
C746   C966    1.496   1_545 S
C746   H979    1.086   1_545 S
H747   C862    1.086   .     S
N749   O750    1.301   .     A
N749   O751    1.301   .     A
N749   N39     1.384   1_556 S
N752   O753    1.301   .     A
N752   O754    1.301   .     A
O755   C759    1.292   .     A
O755   Cu767   1.963   .     S
O756   Cu768   1.963   .     S
O756   C760    1.292   .     A
O757   Cu768   1.947   .     S
O757   C759    1.296   .     A
O758   C760    1.296   .     A
O758   Cu767   1.947   .     S
C759   C791    1.421   .     S
C760   C792    1.421   .     S
O761   C765    1.301   .     A
O761   Cu767   1.955   .     S
O762   C766    1.301   .     A
O762   Cu768   1.955   .     S
O763   Cu768   1.950   .     S
O763   C765    1.300   .     A
O764   C766    1.300   .     A
O764   Cu767   1.950   .     S
C765   C772    1.442   .     S
C766   C771    1.442   .     S
Cu767  N794    2.041   .     S
Cu767  Cu768   2.716   .     S
Cu768  N793    2.041   .     S
C769   H785    1.080   .     S
C769   C779    1.402   .     A
C769   C771    1.393   .     A
C770   C772    1.393   .     A
C770   C780    1.402   .     A
C770   H786    1.080   .     S
C771   C773    1.391   .     A
C772   C774    1.391   .     A
C773   C775    1.391   .     A
C773   H787    1.086   .     S
C774   H788    1.085   .     S
C774   C776    1.391   .     A
C775   C781    1.398   .     A
C775   C777    1.413   .     A
C776   C782    1.397   .     A
C776   C778    1.413   .     A
C777   C779    1.423   .     A
C777   C720    1.404   1_655 S
C778   C780    1.423   .     A
C779   C784    1.421   .     A
C780   C783    1.421   .     A
C781   H789    1.085   .     S
C781   C725    1.397   1_655 S
C782   H790    1.085   .     S
C783   C795    1.485   .     S
C784   C798    1.484   .     S
C784   C724    1.397   1_655 S
C791   C1024   1.353   1_545 S
C791   C1033   1.496   1_545 S
C792   C907    1.353   .     S
C792   C920    1.496   .     S
N794   N97     1.294   1_556 S
N794   N114    1.384   1_556 S
C795   O797    1.220   .     D
C795   H1028   1.086   1_545 S
H796   C911    1.086   .     S
C798   O800    1.220   .     D
C798   H915    1.086   .     S
H799   C1030   1.086   1_545 S
C801   O803    1.221   .     D
C801   C907    1.496   .     S
C801   H918    1.086   .     S
H802   C1033   1.086   1_545 S
C804   O806    1.221   .     D
C804   C1024   1.496   1_545 S
C804   H1037   1.086   1_545 S
H805   C920    1.086   .     S
N807   O808    1.301   .     A
N807   O809    1.301   .     A
N807   N97     1.384   1_556 S
N810   O811    1.301   .     A
N810   O812    1.301   .     A
O813   C817    1.292   .     A
O813   Cu825   1.963   .     S
O814   Cu826   1.963   .     S
O814   C818    1.292   .     A
O815   Cu826   1.947   .     S
O815   C817    1.296   .     A
O816   C818    1.296   .     A
O816   Cu825   1.947   .     S
C817   C849    1.421   .     S
C818   C850    1.421   .     S
O819   C823    1.301   .     A
O819   Cu825   1.955   .     S
O820   C824    1.301   .     A
O820   Cu826   1.955   .     S
O821   Cu826   1.950   .     S
O821   C823    1.300   .     A
O822   C824    1.300   .     A
O822   Cu825   1.950   .     S
C823   C830    1.442   .     S
C824   C829    1.442   .     S
Cu825  N852    2.041   .     S
Cu825  Cu826   2.716   .     S
Cu826  N851    2.041   .     S
C827   H843    1.080   .     S
C827   C837    1.402   .     A
C827   C829    1.393   .     A
C828   C830    1.393   .     A
C828   C838    1.402   .     A
C828   H844    1.080   .     S
C829   C831    1.391   .     A
C830   C832    1.391   .     A
C831   C833    1.391   .     A
C831   H845    1.086   .     S
C832   H846    1.085   .     S
C832   C834    1.391   .     A
C833   C839    1.398   .     A
C833   C835    1.413   .     A
C834   C840    1.397   .     A
C834   C836    1.413   .     A
C835   C837    1.423   .     A
C835   C894    1.404   .     S
C836   C838    1.423   .     A
C836   C893    1.404   1_455 S
C837   C842    1.421   .     A
C838   C841    1.421   .     A
C839   H847    1.085   .     S
C839   C899    1.397   .     S
C840   H848    1.085   .     S
C840   C900    1.397   1_455 S
C841   C853    1.485   .     S
C841   C897    1.397   1_455 S
C842   C856    1.484   .     S
C842   C898    1.397   .     S
C850   C965    1.353   .     S
C850   C978    1.496   .     S
N852   N155    1.294   1_556 S
N852   N172    1.384   1_556 S
C853   O855    1.220   .     D
H854   C969    1.086   .     S
C856   O858    1.220   .     D
C856   H973    1.086   .     S
C859   O861    1.221   .     D
C859   C965    1.496   .     S
C859   H976    1.086   .     S
C862   O864    1.221   .     D
H863   C978    1.086   .     S
N865   O866    1.301   .     A
N865   O867    1.301   .     A
N865   N155    1.384   1_556 S
N868   O869    1.301   .     A
N868   O870    1.301   .     A
O871   C875    1.292   .     A
O871   Cu883   1.963   .     S
O872   Cu884   1.963   .     S
O872   C876    1.292   .     A
O873   Cu884   1.947   .     S
O873   C875    1.296   .     A
O874   C876    1.296   .     A
O874   Cu883   1.947   .     S
C875   C907    1.421   .     S
C876   C908    1.421   .     S
O877   C881    1.301   .     A
O877   Cu883   1.955   .     S
O878   C882    1.301   .     A
O878   Cu884   1.955   .     S
O879   Cu884   1.950   .     S
O879   C881    1.300   .     A
O880   C882    1.300   .     A
O880   Cu883   1.950   .     S
C881   C888    1.442   .     S
C882   C887    1.442   .     S
Cu883  N910    2.041   .     S
Cu883  Cu884   2.716   .     S
Cu884  N909    2.041   .     S
C885   H901    1.080   .     S
C885   C895    1.402   .     A
C885   C887    1.393   .     A
C886   C888    1.393   .     A
C886   C896    1.402   .     A
C886   H902    1.080   .     S
C887   C889    1.391   .     A
C888   C890    1.391   .     A
C889   C891    1.391   .     A
C889   H903    1.086   .     S
C890   H904    1.085   .     S
C890   C892    1.391   .     A
C891   C897    1.398   .     A
C891   C893    1.413   .     A
C892   C898    1.397   .     A
C892   C894    1.413   .     A
C893   C895    1.423   .     A
C893   C836    1.404   1_655 S
C894   C896    1.423   .     A
C895   C900    1.421   .     A
C896   C899    1.421   .     A
C897   H905    1.085   .     S
C897   C841    1.397   1_655 S
C898   H906    1.085   .     S
C899   C911    1.485   .     S
C900   C914    1.484   .     S
C900   C840    1.397   1_655 S
C908   C1023   1.353   .     S
C908   C1036   1.496   .     S
N910   N213    1.294   1_556 S
N910   N230    1.384   1_556 S
C911   O913    1.220   .     D
H912   C1027   1.086   .     S
C914   O916    1.220   .     D
C914   H1031   1.086   .     S
C917   O919    1.221   .     D
C917   C1023   1.496   .     S
C917   H1034   1.086   .     S
C920   O922    1.221   .     D
H921   C1036   1.086   .     S
N923   O924    1.301   .     A
N923   O925    1.301   .     A
N923   N213    1.384   1_556 S
N926   O927    1.301   .     A
N926   O928    1.301   .     A
O929   C933    1.292   .     A
O929   Cu941   1.963   .     S
O930   Cu942   1.963   .     S
O930   C934    1.292   .     A
O931   Cu942   1.947   .     S
O931   C933    1.296   .     A
O932   C934    1.296   .     A
O932   Cu941   1.947   .     S
C933   C965    1.421   .     S
C934   C966    1.421   .     S
O935   C939    1.301   .     A
O935   Cu941   1.955   .     S
O936   C940    1.301   .     A
O936   Cu942   1.955   .     S
O937   Cu942   1.950   .     S
O937   C939    1.300   .     A
O938   C940    1.300   .     A
O938   Cu941   1.950   .     S
C939   C946    1.442   .     S
C940   C945    1.442   .     S
Cu941  N968    2.041   .     S
Cu941  Cu942   2.716   .     S
Cu942  N967    2.041   .     S
C943   H959    1.080   .     S
C943   C953    1.402   .     A
C943   C945    1.393   .     A
C944   C946    1.393   .     A
C944   C954    1.402   .     A
C944   H960    1.080   .     S
C945   C947    1.391   .     A
C946   C948    1.391   .     A
C947   C949    1.391   .     A
C947   H961    1.086   .     S
C948   H962    1.085   .     S
C948   C950    1.391   .     A
C949   C955    1.398   .     A
C949   C951    1.413   .     A
C950   C956    1.397   .     A
C950   C952    1.413   .     A
C951   C953    1.423   .     A
C951   C1010   1.404   .     S
C952   C954    1.423   .     A
C952   C1009   1.404   1_455 S
C953   C958    1.421   .     A
C954   C957    1.421   .     A
C955   H963    1.085   .     S
C955   C1015   1.397   .     S
C956   H964    1.085   .     S
C956   C1016   1.397   1_455 S
C957   C969    1.485   .     S
C957   C1013   1.397   1_455 S
C958   C972    1.484   .     S
C958   C1014   1.397   .     S
C966   C733    1.353   1_565 S
C966   C746    1.496   1_565 S
N968   N271    1.294   1_556 S
N968   N288    1.384   1_556 S
C969   O971    1.220   .     D
H970   C737    1.086   1_565 S
C972   O974    1.220   .     D
C972   H741    1.086   1_565 S
C975   O977    1.221   .     D
C975   C733    1.496   1_565 S
C975   H744    1.086   1_565 S
C978   O980    1.221   .     D
H979   C746    1.086   1_565 S
N981   O982    1.301   .     A
N981   O983    1.301   .     A
N981   N271    1.384   1_556 S
N984   O985    1.301   .     A
N984   O986    1.301   .     A
O987   C991    1.292   .     A
O987   Cu999   1.963   .     S
O988   Cu1000  1.963   .     S
O988   C992    1.292   .     A
O989   Cu1000  1.947   .     S
O989   C991    1.296   .     A
O990   C992    1.296   .     A
O990   Cu999   1.947   .     S
C991   C1023   1.421   .     S
C992   C1024   1.421   .     S
O993   C997    1.301   .     A
O993   Cu999   1.955   .     S
O994   C998    1.301   .     A
O994   Cu1000  1.955   .     S
O995   Cu1000  1.950   .     S
O995   C997    1.300   .     A
O996   C998    1.300   .     A
O996   Cu999   1.950   .     S
C997   C1004   1.442   .     S
C998   C1003   1.442   .     S
Cu999  N1026   2.041   .     S
Cu999  Cu1000  2.716   .     S
Cu1000 N1025   2.041   .     S
C1001  H1017   1.080   .     S
C1001  C1011   1.402   .     A
C1001  C1003   1.393   .     A
C1002  C1004   1.393   .     A
C1002  C1012   1.402   .     A
C1002  H1018   1.080   .     S
C1003  C1005   1.391   .     A
C1004  C1006   1.391   .     A
C1005  C1007   1.391   .     A
C1005  H1019   1.086   .     S
C1006  H1020   1.085   .     S
C1006  C1008   1.391   .     A
C1007  C1013   1.398   .     A
C1007  C1009   1.413   .     A
C1008  C1014   1.397   .     A
C1008  C1010   1.413   .     A
C1009  C1011   1.423   .     A
C1009  C952    1.404   1_655 S
C1010  C1012   1.423   .     A
C1011  C1016   1.421   .     A
C1012  C1015   1.421   .     A
C1013  H1021   1.085   .     S
C1013  C957    1.397   1_655 S
C1014  H1022   1.085   .     S
C1015  C1027   1.485   .     S
C1016  C1030   1.484   .     S
C1016  C956    1.397   1_655 S
C1024  C791    1.353   1_565 S
C1024  C804    1.496   1_565 S
N1026  N329    1.294   1_556 S
N1026  N346    1.384   1_556 S
C1027  O1029   1.220   .     D
H1028  C795    1.086   1_565 S
C1030  O1032   1.220   .     D
C1030  H799    1.086   1_565 S
C1033  O1035   1.221   .     D
C1033  C791    1.496   1_565 S
C1033  H802    1.086   1_565 S
C1036  O1038   1.221   .     D
H1037  C804    1.086   1_565 S
N1039  O1040   1.301   .     A
N1039  O1041   1.301   .     A
N1039  N329    1.384   1_556 S
N1042  O1043   1.301   .     A
N1042  O1044   1.301   .     A
