data_str_m2_o10_o18_pcu_sym.23
_audit_creation_date              2020-01-03
_audit_creation_method            'Materials Studio'
_symmetry_space_group_name_H-M    'P1'
_symmetry_Int_Tables_number       1
_symmetry_cell_setting            triclinic
loop_
_symmetry_equiv_pos_as_xyz
  x,y,z
_cell_length_a                    22.2859
_cell_length_b                    26.0182
_cell_length_c                    31.5578
_cell_angle_alpha                 94.3314
_cell_angle_beta                  75.0501
_cell_angle_gamma                 103.2695
loop_
_atom_site_label
_atom_site_type_symbol
_atom_site_fract_x
_atom_site_fract_y
_atom_site_fract_z
_atom_site_U_iso_or_equiv
_atom_site_adp_type
_atom_site_occupancy
C1     C     0.18175   0.26675   0.25129   0.00000  Uiso   1.00
C2     C     0.20542   0.17098   0.16690   0.00000  Uiso   1.00
C3     C     0.10469   0.15779   0.38117   0.00000  Uiso   1.00
C4     C     0.22959   0.17998   0.11974   0.00000  Uiso   1.00
C5     C     0.02217   0.12429   0.44579   0.00000  Uiso   1.00
C6     C     0.30410   0.23182   0.05959   0.00000  Uiso   1.00
C7     C     0.04085   0.13683   0.40110   0.00000  Uiso   1.00
C8     C     0.28605   0.21678   0.10368   0.00000  Uiso   1.00
C9     C     0.14887   0.17096   0.40677   0.00000  Uiso   1.00
C10    C     0.19015   0.15827   0.09213   0.00000  Uiso   1.00
C11    C     0.13125   0.16243   0.45210   0.00000  Uiso   1.00
C12    C     0.15161   0.06658   0.24865   0.00000  Uiso   1.00
C13    C     0.20335   0.17582   0.04900   0.00000  Uiso   1.00
C14    C     0.06753   0.13664   0.47123   0.00000  Uiso   1.00
C15    C     0.26237   0.21147   0.03238   0.00000  Uiso   1.00
C16    C     0.17583   0.17770   0.47853   0.00000  Uiso   1.00
C17    C     0.15830   0.16110   0.02280   0.00000  Uiso   1.00
C18    C     0.27124   0.05257   0.44983   0.00000  Uiso   1.00
C19    C     0.20328   0.04633   0.44524   0.00000  Uiso   1.00
C20    C     0.17704   0.32418   0.42950   0.00000  Uiso   1.00
C21    C     0.07913   0.26675   0.05224   0.00000  Uiso   1.00
C22    C     0.11173   0.31760   0.07206   0.00000  Uiso   1.00
C23    C     0.09496   0.13336   0.04021   0.00000  Uiso   1.00
C24    C     0.17742   0.31437   0.07629   0.00000  Uiso   1.00
C25    C     0.23627   0.21111   0.46262   0.00000  Uiso   1.00
C26    C     0.05034   0.12272   0.01527   0.00000  Uiso   1.00
C27    C     0.27802   0.22805   0.48913   0.00000  Uiso   1.00
C28    C     0.19025   0.32276   0.25191   0.00000  Uiso   1.00
C29    C     0.14316   0.01058   0.24794   0.00000  Uiso   1.00
C30    C     0.12799   0.16287   0.33327   0.00000  Uiso   1.00
Cu31   Cu    0.10737   0.16108   0.24516   0.00000  Uiso   1.00
Cu32   Cu    0.22596   0.17225   0.25483   0.00000  Uiso   1.00
H33    H     0.00209   0.10277   0.03070   0.00000  Uiso   1.00
H34    H     0.09785   0.32000   0.24418   0.00000  Uiso   1.00
H35    H     0.00131   0.20513   0.28453   0.00000  Uiso   1.00
H36    H     0.33202   0.12820   0.21547   0.00000  Uiso   1.00
H37    H     0.27161   0.02397   0.47416   0.00000  Uiso   1.00
H38    H     0.30144   0.04233   0.41760   0.00000  Uiso   1.00
H39    H     0.17201   0.05460   0.47741   0.00000  Uiso   1.00
H40    H     0.20283   0.07536   0.42130   0.00000  Uiso   1.00
H41    H     0.20628   0.31566   0.39661   0.00000  Uiso   1.00
H42    H     0.12736   0.32090   0.42730   0.00000  Uiso   1.00
H43    H     0.17706   0.29454   0.45292   0.00000  Uiso   1.00
H44    H     0.32287   0.25485   0.47544   0.00000  Uiso   1.00
H45    H     0.11016   0.25880   0.01998   0.00000  Uiso   1.00
H46    H     0.07406   0.23312   0.07367   0.00000  Uiso   1.00
H47    H     0.11682   0.01812   0.05098   0.00000  Uiso   1.00
H48    H     0.08174   0.32487   0.10504   0.00000  Uiso   1.00
H49    H     0.19962   0.01854   0.09075   0.00000  Uiso   1.00
H50    H     0.20849   0.30817   0.04351   0.00000  Uiso   1.00
H51    H     0.17349   0.28137   0.09793   0.00000  Uiso   1.00
H52    H     0.14834   0.12870   0.10585   0.00000  Uiso   1.00
H53    H     0.19781   0.18581   0.39011   0.00000  Uiso   1.00
H54    H     0.31399   0.23631   0.12610   0.00000  Uiso   1.00
H55    H     0.00585   0.12811   0.38180   0.00000  Uiso   1.00
H56    H     0.07695   0.12167   0.07393   0.00000  Uiso   1.00
H57    H     0.25175   0.22770   0.43034   0.00000  Uiso   1.00
H58    H     0.23556   0.01334   0.25566   0.00000  Uiso   1.00
N59    N     0.31506   0.18068   0.26212   0.00000  Uiso   1.00
N60    N     0.01827   0.15265   0.23788   0.00000  Uiso   1.00
O61    O     0.12815   0.23809   0.24686   0.00000  Uiso   1.00
O62    O     0.02151   0.27399   0.04503   0.00000  Uiso   1.00
O63    O     0.20518   0.09524   0.25314   0.00000  Uiso   1.00
O64    O     0.22829   0.24753   0.25502   0.00000  Uiso   1.00
O65    O     0.10504   0.08580   0.24497   0.00000  Uiso   1.00
O66    O     0.08851   0.15930   0.30854   0.00000  Uiso   1.00
O67    O     0.24482   0.17403   0.19145   0.00000  Uiso   1.00
O68    O     0.18866   0.16874   0.31671   0.00000  Uiso   1.00
O69    O     0.14468   0.16460   0.18329   0.00000  Uiso   1.00
O70    O     0.29196   0.10432   0.46561   0.00000  Uiso   1.00
C71    C     0.51508   0.26675   0.25129   0.00000  Uiso   1.00
C72    C     0.53876   0.17098   0.16690   0.00000  Uiso   1.00
C73    C     0.43802   0.15779   0.38117   0.00000  Uiso   1.00
C74    C     0.56292   0.17998   0.11974   0.00000  Uiso   1.00
C75    C     0.35550   0.12429   0.44579   0.00000  Uiso   1.00
C76    C     0.63744   0.23182   0.05959   0.00000  Uiso   1.00
C77    C     0.37418   0.13683   0.40110   0.00000  Uiso   1.00
C78    C     0.61939   0.21678   0.10368   0.00000  Uiso   1.00
C79    C     0.48221   0.17096   0.40677   0.00000  Uiso   1.00
C80    C     0.52349   0.15827   0.09213   0.00000  Uiso   1.00
C81    C     0.46458   0.16243   0.45210   0.00000  Uiso   1.00
C82    C     0.48495   0.06658   0.24865   0.00000  Uiso   1.00
C83    C     0.53669   0.17582   0.04900   0.00000  Uiso   1.00
C84    C     0.40086   0.13664   0.47123   0.00000  Uiso   1.00
C85    C     0.59570   0.21147   0.03238   0.00000  Uiso   1.00
C86    C     0.50916   0.17770   0.47853   0.00000  Uiso   1.00
C87    C     0.49163   0.16110   0.02280   0.00000  Uiso   1.00
C88    C     0.60457   0.05257   0.44983   0.00000  Uiso   1.00
C89    C     0.53662   0.04633   0.44524   0.00000  Uiso   1.00
C90    C     0.51037   0.32418   0.42950   0.00000  Uiso   1.00
C91    C     0.41246   0.26675   0.05224   0.00000  Uiso   1.00
C92    C     0.44506   0.31760   0.07206   0.00000  Uiso   1.00
C93    C     0.42829   0.13336   0.04021   0.00000  Uiso   1.00
C94    C     0.51075   0.31437   0.07629   0.00000  Uiso   1.00
C95    C     0.56961   0.21111   0.46262   0.00000  Uiso   1.00
C96    C     0.38368   0.12272   0.01527   0.00000  Uiso   1.00
C97    C     0.61135   0.22805   0.48913   0.00000  Uiso   1.00
C98    C     0.52358   0.32276   0.25191   0.00000  Uiso   1.00
C99    C     0.47650   0.01058   0.24794   0.00000  Uiso   1.00
C100   C     0.46133   0.16287   0.33327   0.00000  Uiso   1.00
Cu101  Cu    0.44071   0.16108   0.24516   0.00000  Uiso   1.00
Cu102  Cu    0.55929   0.17225   0.25483   0.00000  Uiso   1.00
H103   H     0.33543   0.10277   0.03070   0.00000  Uiso   1.00
H104   H     0.43119   0.32000   0.24418   0.00000  Uiso   1.00
H105   H     0.33464   0.20513   0.28453   0.00000  Uiso   1.00
H106   H     0.66535   0.12820   0.21547   0.00000  Uiso   1.00
H107   H     0.60494   0.02397   0.47416   0.00000  Uiso   1.00
H108   H     0.63477   0.04233   0.41760   0.00000  Uiso   1.00
H109   H     0.50534   0.05460   0.47741   0.00000  Uiso   1.00
H110   H     0.53616   0.07536   0.42130   0.00000  Uiso   1.00
H111   H     0.53961   0.31566   0.39661   0.00000  Uiso   1.00
H112   H     0.46070   0.32090   0.42730   0.00000  Uiso   1.00
H113   H     0.51039   0.29454   0.45292   0.00000  Uiso   1.00
H114   H     0.65620   0.25485   0.47544   0.00000  Uiso   1.00
H115   H     0.44349   0.25880   0.01998   0.00000  Uiso   1.00
H116   H     0.40739   0.23312   0.07367   0.00000  Uiso   1.00
H117   H     0.45015   0.01812   0.05098   0.00000  Uiso   1.00
H118   H     0.41507   0.32487   0.10504   0.00000  Uiso   1.00
H119   H     0.53296   0.01854   0.09075   0.00000  Uiso   1.00
H120   H     0.54182   0.30817   0.04351   0.00000  Uiso   1.00
H121   H     0.50682   0.28137   0.09793   0.00000  Uiso   1.00
H122   H     0.48168   0.12870   0.10585   0.00000  Uiso   1.00
H123   H     0.53115   0.18581   0.39011   0.00000  Uiso   1.00
H124   H     0.64732   0.23631   0.12610   0.00000  Uiso   1.00
H125   H     0.33918   0.12811   0.38180   0.00000  Uiso   1.00
H126   H     0.41028   0.12167   0.07393   0.00000  Uiso   1.00
H127   H     0.58508   0.22770   0.43034   0.00000  Uiso   1.00
H128   H     0.56889   0.01334   0.25566   0.00000  Uiso   1.00
N129   N     0.64839   0.18068   0.26212   0.00000  Uiso   1.00
N130   N     0.35161   0.15265   0.23788   0.00000  Uiso   1.00
O131   O     0.46148   0.23809   0.24686   0.00000  Uiso   1.00
O132   O     0.35485   0.27399   0.04503   0.00000  Uiso   1.00
O133   O     0.53852   0.09524   0.25314   0.00000  Uiso   1.00
O134   O     0.56163   0.24753   0.25502   0.00000  Uiso   1.00
O135   O     0.43837   0.08580   0.24497   0.00000  Uiso   1.00
O136   O     0.42185   0.15930   0.30854   0.00000  Uiso   1.00
O137   O     0.57815   0.17403   0.19145   0.00000  Uiso   1.00
O138   O     0.52199   0.16874   0.31671   0.00000  Uiso   1.00
O139   O     0.47801   0.16460   0.18329   0.00000  Uiso   1.00
O140   O     0.62529   0.10432   0.46561   0.00000  Uiso   1.00
C141   C     0.84842   0.26675   0.25129   0.00000  Uiso   1.00
C142   C     0.87209   0.17098   0.16690   0.00000  Uiso   1.00
C143   C     0.77135   0.15779   0.38117   0.00000  Uiso   1.00
C144   C     0.89625   0.17998   0.11974   0.00000  Uiso   1.00
C145   C     0.68883   0.12429   0.44579   0.00000  Uiso   1.00
C146   C     0.97077   0.23182   0.05959   0.00000  Uiso   1.00
C147   C     0.70751   0.13683   0.40110   0.00000  Uiso   1.00
C148   C     0.95272   0.21678   0.10368   0.00000  Uiso   1.00
C149   C     0.81554   0.17096   0.40677   0.00000  Uiso   1.00
C150   C     0.85682   0.15827   0.09213   0.00000  Uiso   1.00
C151   C     0.79792   0.16243   0.45210   0.00000  Uiso   1.00
C152   C     0.81828   0.06658   0.24865   0.00000  Uiso   1.00
C153   C     0.87002   0.17582   0.04900   0.00000  Uiso   1.00
C154   C     0.73419   0.13664   0.47123   0.00000  Uiso   1.00
C155   C     0.92903   0.21147   0.03238   0.00000  Uiso   1.00
C156   C     0.84249   0.17770   0.47853   0.00000  Uiso   1.00
C157   C     0.82496   0.16110   0.02280   0.00000  Uiso   1.00
C158   C     0.93790   0.05257   0.44983   0.00000  Uiso   1.00
C159   C     0.86995   0.04633   0.44524   0.00000  Uiso   1.00
C160   C     0.84370   0.32418   0.42950   0.00000  Uiso   1.00
C161   C     0.74579   0.26675   0.05224   0.00000  Uiso   1.00
C162   C     0.77839   0.31760   0.07206   0.00000  Uiso   1.00
C163   C     0.76162   0.13336   0.04021   0.00000  Uiso   1.00
C164   C     0.84408   0.31437   0.07629   0.00000  Uiso   1.00
C165   C     0.90294   0.21111   0.46262   0.00000  Uiso   1.00
C166   C     0.71701   0.12272   0.01527   0.00000  Uiso   1.00
C167   C     0.94468   0.22805   0.48913   0.00000  Uiso   1.00
C168   C     0.85691   0.32276   0.25191   0.00000  Uiso   1.00
C169   C     0.80983   0.01058   0.24794   0.00000  Uiso   1.00
C170   C     0.79466   0.16287   0.33327   0.00000  Uiso   1.00
Cu171  Cu    0.77404   0.16108   0.24516   0.00000  Uiso   1.00
Cu172  Cu    0.89263   0.17225   0.25483   0.00000  Uiso   1.00
H173   H     0.66876   0.10277   0.03070   0.00000  Uiso   1.00
H174   H     0.76452   0.32000   0.24418   0.00000  Uiso   1.00
H175   H     0.66798   0.20513   0.28453   0.00000  Uiso   1.00
H176   H     0.99869   0.12820   0.21547   0.00000  Uiso   1.00
H177   H     0.93827   0.02397   0.47416   0.00000  Uiso   1.00
H178   H     0.96810   0.04233   0.41760   0.00000  Uiso   1.00
H179   H     0.83868   0.05460   0.47741   0.00000  Uiso   1.00
H180   H     0.86949   0.07536   0.42130   0.00000  Uiso   1.00
H181   H     0.87294   0.31566   0.39661   0.00000  Uiso   1.00
H182   H     0.79403   0.32090   0.42730   0.00000  Uiso   1.00
H183   H     0.84372   0.29454   0.45292   0.00000  Uiso   1.00
H184   H     0.98953   0.25485   0.47544   0.00000  Uiso   1.00
H185   H     0.77683   0.25880   0.01998   0.00000  Uiso   1.00
H186   H     0.74073   0.23312   0.07367   0.00000  Uiso   1.00
H187   H     0.78348   0.01812   0.05098   0.00000  Uiso   1.00
H188   H     0.74840   0.32487   0.10504   0.00000  Uiso   1.00
H189   H     0.86629   0.01854   0.09075   0.00000  Uiso   1.00
H190   H     0.87515   0.30817   0.04351   0.00000  Uiso   1.00
H191   H     0.84015   0.28137   0.09793   0.00000  Uiso   1.00
H192   H     0.81501   0.12870   0.10585   0.00000  Uiso   1.00
H193   H     0.86448   0.18581   0.39011   0.00000  Uiso   1.00
H194   H     0.98066   0.23631   0.12610   0.00000  Uiso   1.00
H195   H     0.67251   0.12811   0.38180   0.00000  Uiso   1.00
H196   H     0.74361   0.12167   0.07393   0.00000  Uiso   1.00
H197   H     0.91841   0.22770   0.43034   0.00000  Uiso   1.00
H198   H     0.90223   0.01334   0.25566   0.00000  Uiso   1.00
N199   N     0.98173   0.18068   0.26212   0.00000  Uiso   1.00
N200   N     0.68494   0.15265   0.23788   0.00000  Uiso   1.00
O201   O     0.79482   0.23809   0.24686   0.00000  Uiso   1.00
O202   O     0.68818   0.27399   0.04503   0.00000  Uiso   1.00
O203   O     0.87185   0.09524   0.25314   0.00000  Uiso   1.00
O204   O     0.89496   0.24753   0.25502   0.00000  Uiso   1.00
O205   O     0.77171   0.08580   0.24497   0.00000  Uiso   1.00
O206   O     0.75518   0.15930   0.30854   0.00000  Uiso   1.00
O207   O     0.91149   0.17403   0.19145   0.00000  Uiso   1.00
O208   O     0.85532   0.16874   0.31671   0.00000  Uiso   1.00
O209   O     0.81134   0.16460   0.18329   0.00000  Uiso   1.00
O210   O     0.95862   0.10432   0.46561   0.00000  Uiso   1.00
C211   C     0.18175   0.60009   0.25129   0.00000  Uiso   1.00
C212   C     0.20542   0.50431   0.16690   0.00000  Uiso   1.00
C213   C     0.10469   0.49112   0.38117   0.00000  Uiso   1.00
C214   C     0.22959   0.51332   0.11974   0.00000  Uiso   1.00
C215   C     0.02217   0.45763   0.44579   0.00000  Uiso   1.00
C216   C     0.30410   0.56515   0.05959   0.00000  Uiso   1.00
C217   C     0.04085   0.47016   0.40110   0.00000  Uiso   1.00
C218   C     0.28605   0.55011   0.10368   0.00000  Uiso   1.00
C219   C     0.14887   0.50429   0.40677   0.00000  Uiso   1.00
C220   C     0.19015   0.49160   0.09213   0.00000  Uiso   1.00
C221   C     0.13125   0.49576   0.45210   0.00000  Uiso   1.00
C222   C     0.15161   0.39991   0.24865   0.00000  Uiso   1.00
C223   C     0.20335   0.50915   0.04900   0.00000  Uiso   1.00
C224   C     0.06753   0.46997   0.47123   0.00000  Uiso   1.00
C225   C     0.26237   0.54481   0.03238   0.00000  Uiso   1.00
C226   C     0.17583   0.51103   0.47853   0.00000  Uiso   1.00
C227   C     0.15830   0.49443   0.02280   0.00000  Uiso   1.00
C228   C     0.27124   0.38590   0.44983   0.00000  Uiso   1.00
C229   C     0.20328   0.37967   0.44524   0.00000  Uiso   1.00
C230   C     0.17704   0.65751   0.42950   0.00000  Uiso   1.00
C231   C     0.07913   0.60008   0.05224   0.00000  Uiso   1.00
C232   C     0.11173   0.65094   0.07206   0.00000  Uiso   1.00
C233   C     0.09496   0.46670   0.04021   0.00000  Uiso   1.00
C234   C     0.17742   0.64770   0.07629   0.00000  Uiso   1.00
C235   C     0.23627   0.54445   0.46262   0.00000  Uiso   1.00
C236   C     0.05034   0.45605   0.01527   0.00000  Uiso   1.00
C237   C     0.27802   0.56138   0.48913   0.00000  Uiso   1.00
C238   C     0.19025   0.65609   0.25191   0.00000  Uiso   1.00
C239   C     0.14316   0.34391   0.24794   0.00000  Uiso   1.00
C240   C     0.12799   0.49621   0.33327   0.00000  Uiso   1.00
Cu241  Cu    0.10737   0.49441   0.24516   0.00000  Uiso   1.00
Cu242  Cu    0.22596   0.50559   0.25483   0.00000  Uiso   1.00
H243   H     0.00209   0.43610   0.03070   0.00000  Uiso   1.00
H244   H     0.09785   0.65333   0.24418   0.00000  Uiso   1.00
H245   H     0.00131   0.53846   0.28453   0.00000  Uiso   1.00
H246   H     0.33202   0.46153   0.21547   0.00000  Uiso   1.00
H247   H     0.27161   0.35731   0.47416   0.00000  Uiso   1.00
H248   H     0.30144   0.37567   0.41760   0.00000  Uiso   1.00
H249   H     0.17201   0.38794   0.47741   0.00000  Uiso   1.00
H250   H     0.20283   0.40870   0.42130   0.00000  Uiso   1.00
H251   H     0.20628   0.64900   0.39661   0.00000  Uiso   1.00
H252   H     0.12736   0.65423   0.42730   0.00000  Uiso   1.00
H253   H     0.17706   0.62787   0.45292   0.00000  Uiso   1.00
H254   H     0.32287   0.58818   0.47544   0.00000  Uiso   1.00
H255   H     0.11016   0.59213   0.01998   0.00000  Uiso   1.00
H256   H     0.07406   0.56645   0.07367   0.00000  Uiso   1.00
H257   H     0.11682   0.35145   0.05098   0.00000  Uiso   1.00
H258   H     0.08174   0.65820   0.10504   0.00000  Uiso   1.00
H259   H     0.19962   0.35188   0.09075   0.00000  Uiso   1.00
H260   H     0.20849   0.64150   0.04351   0.00000  Uiso   1.00
H261   H     0.17349   0.61470   0.09793   0.00000  Uiso   1.00
H262   H     0.14834   0.46204   0.10585   0.00000  Uiso   1.00
H263   H     0.19781   0.51915   0.39011   0.00000  Uiso   1.00
H264   H     0.31399   0.56964   0.12610   0.00000  Uiso   1.00
H265   H     0.00585   0.46145   0.38180   0.00000  Uiso   1.00
H266   H     0.07695   0.45500   0.07393   0.00000  Uiso   1.00
H267   H     0.25175   0.56103   0.43034   0.00000  Uiso   1.00
H268   H     0.23556   0.34667   0.25566   0.00000  Uiso   1.00
N269   N     0.31506   0.51401   0.26212   0.00000  Uiso   1.00
N270   N     0.01827   0.48599   0.23788   0.00000  Uiso   1.00
O271   O     0.12815   0.57142   0.24686   0.00000  Uiso   1.00
O272   O     0.02151   0.60732   0.04503   0.00000  Uiso   1.00
O273   O     0.20518   0.42858   0.25314   0.00000  Uiso   1.00
O274   O     0.22829   0.58086   0.25502   0.00000  Uiso   1.00
O275   O     0.10504   0.41914   0.24497   0.00000  Uiso   1.00
O276   O     0.08851   0.49263   0.30854   0.00000  Uiso   1.00
O277   O     0.24482   0.50737   0.19145   0.00000  Uiso   1.00
O278   O     0.18866   0.50207   0.31671   0.00000  Uiso   1.00
O279   O     0.14468   0.49793   0.18329   0.00000  Uiso   1.00
O280   O     0.29196   0.43765   0.46561   0.00000  Uiso   1.00
C281   C     0.51508   0.60009   0.25129   0.00000  Uiso   1.00
C282   C     0.53876   0.50431   0.16690   0.00000  Uiso   1.00
C283   C     0.43802   0.49112   0.38117   0.00000  Uiso   1.00
C284   C     0.56292   0.51332   0.11974   0.00000  Uiso   1.00
C285   C     0.35550   0.45763   0.44579   0.00000  Uiso   1.00
C286   C     0.63744   0.56515   0.05959   0.00000  Uiso   1.00
C287   C     0.37418   0.47016   0.40110   0.00000  Uiso   1.00
C288   C     0.61939   0.55011   0.10368   0.00000  Uiso   1.00
C289   C     0.48221   0.50429   0.40677   0.00000  Uiso   1.00
C290   C     0.52349   0.49160   0.09213   0.00000  Uiso   1.00
C291   C     0.46458   0.49576   0.45210   0.00000  Uiso   1.00
C292   C     0.48495   0.39991   0.24865   0.00000  Uiso   1.00
C293   C     0.53669   0.50915   0.04900   0.00000  Uiso   1.00
C294   C     0.40086   0.46997   0.47123   0.00000  Uiso   1.00
C295   C     0.59570   0.54481   0.03238   0.00000  Uiso   1.00
C296   C     0.50916   0.51103   0.47853   0.00000  Uiso   1.00
C297   C     0.49163   0.49443   0.02280   0.00000  Uiso   1.00
C298   C     0.60457   0.38590   0.44983   0.00000  Uiso   1.00
C299   C     0.53662   0.37967   0.44524   0.00000  Uiso   1.00
C300   C     0.51037   0.65751   0.42950   0.00000  Uiso   1.00
C301   C     0.41246   0.60008   0.05224   0.00000  Uiso   1.00
C302   C     0.44506   0.65094   0.07206   0.00000  Uiso   1.00
C303   C     0.42829   0.46670   0.04021   0.00000  Uiso   1.00
C304   C     0.51075   0.64770   0.07629   0.00000  Uiso   1.00
C305   C     0.56961   0.54445   0.46262   0.00000  Uiso   1.00
C306   C     0.38368   0.45605   0.01527   0.00000  Uiso   1.00
C307   C     0.61135   0.56138   0.48913   0.00000  Uiso   1.00
C308   C     0.52358   0.65609   0.25191   0.00000  Uiso   1.00
C309   C     0.47650   0.34391   0.24794   0.00000  Uiso   1.00
C310   C     0.46133   0.49621   0.33327   0.00000  Uiso   1.00
Cu311  Cu    0.44071   0.49441   0.24516   0.00000  Uiso   1.00
Cu312  Cu    0.55929   0.50559   0.25483   0.00000  Uiso   1.00
H313   H     0.33543   0.43610   0.03070   0.00000  Uiso   1.00
H314   H     0.43119   0.65333   0.24418   0.00000  Uiso   1.00
H315   H     0.33464   0.53846   0.28453   0.00000  Uiso   1.00
H316   H     0.66535   0.46153   0.21547   0.00000  Uiso   1.00
H317   H     0.60494   0.35731   0.47416   0.00000  Uiso   1.00
H318   H     0.63477   0.37567   0.41760   0.00000  Uiso   1.00
H319   H     0.50534   0.38794   0.47741   0.00000  Uiso   1.00
H320   H     0.53616   0.40870   0.42130   0.00000  Uiso   1.00
H321   H     0.53961   0.64900   0.39661   0.00000  Uiso   1.00
H322   H     0.46070   0.65423   0.42730   0.00000  Uiso   1.00
H323   H     0.51039   0.62787   0.45292   0.00000  Uiso   1.00
H324   H     0.65620   0.58818   0.47544   0.00000  Uiso   1.00
H325   H     0.44349   0.59213   0.01998   0.00000  Uiso   1.00
H326   H     0.40739   0.56645   0.07367   0.00000  Uiso   1.00
H327   H     0.45015   0.35145   0.05098   0.00000  Uiso   1.00
H328   H     0.41507   0.65820   0.10504   0.00000  Uiso   1.00
H329   H     0.53296   0.35188   0.09075   0.00000  Uiso   1.00
H330   H     0.54182   0.64150   0.04351   0.00000  Uiso   1.00
H331   H     0.50682   0.61470   0.09793   0.00000  Uiso   1.00
H332   H     0.48168   0.46204   0.10585   0.00000  Uiso   1.00
H333   H     0.53115   0.51915   0.39011   0.00000  Uiso   1.00
H334   H     0.64732   0.56964   0.12610   0.00000  Uiso   1.00
H335   H     0.33918   0.46145   0.38180   0.00000  Uiso   1.00
H336   H     0.41028   0.45500   0.07393   0.00000  Uiso   1.00
H337   H     0.58508   0.56103   0.43034   0.00000  Uiso   1.00
H338   H     0.56889   0.34667   0.25566   0.00000  Uiso   1.00
N339   N     0.64839   0.51401   0.26212   0.00000  Uiso   1.00
N340   N     0.35161   0.48599   0.23788   0.00000  Uiso   1.00
O341   O     0.46148   0.57142   0.24686   0.00000  Uiso   1.00
O342   O     0.35485   0.60732   0.04503   0.00000  Uiso   1.00
O343   O     0.53852   0.42858   0.25314   0.00000  Uiso   1.00
O344   O     0.56163   0.58086   0.25502   0.00000  Uiso   1.00
O345   O     0.43837   0.41914   0.24497   0.00000  Uiso   1.00
O346   O     0.42185   0.49263   0.30854   0.00000  Uiso   1.00
O347   O     0.57815   0.50737   0.19145   0.00000  Uiso   1.00
O348   O     0.52199   0.50207   0.31671   0.00000  Uiso   1.00
O349   O     0.47801   0.49793   0.18329   0.00000  Uiso   1.00
O350   O     0.62529   0.43765   0.46561   0.00000  Uiso   1.00
C351   C     0.84842   0.60009   0.25129   0.00000  Uiso   1.00
C352   C     0.87209   0.50431   0.16690   0.00000  Uiso   1.00
C353   C     0.77135   0.49112   0.38117   0.00000  Uiso   1.00
C354   C     0.89625   0.51332   0.11974   0.00000  Uiso   1.00
C355   C     0.68883   0.45763   0.44579   0.00000  Uiso   1.00
C356   C     0.97077   0.56515   0.05959   0.00000  Uiso   1.00
C357   C     0.70751   0.47016   0.40110   0.00000  Uiso   1.00
C358   C     0.95272   0.55011   0.10368   0.00000  Uiso   1.00
C359   C     0.81554   0.50429   0.40677   0.00000  Uiso   1.00
C360   C     0.85682   0.49160   0.09213   0.00000  Uiso   1.00
C361   C     0.79792   0.49576   0.45210   0.00000  Uiso   1.00
C362   C     0.81828   0.39991   0.24865   0.00000  Uiso   1.00
C363   C     0.87002   0.50915   0.04900   0.00000  Uiso   1.00
C364   C     0.73419   0.46997   0.47123   0.00000  Uiso   1.00
C365   C     0.92903   0.54481   0.03238   0.00000  Uiso   1.00
C366   C     0.84249   0.51103   0.47853   0.00000  Uiso   1.00
C367   C     0.82496   0.49443   0.02280   0.00000  Uiso   1.00
C368   C     0.93790   0.38590   0.44983   0.00000  Uiso   1.00
C369   C     0.86995   0.37967   0.44524   0.00000  Uiso   1.00
C370   C     0.84370   0.65751   0.42950   0.00000  Uiso   1.00
C371   C     0.74579   0.60008   0.05224   0.00000  Uiso   1.00
C372   C     0.77839   0.65094   0.07206   0.00000  Uiso   1.00
C373   C     0.76162   0.46670   0.04021   0.00000  Uiso   1.00
C374   C     0.84408   0.64770   0.07629   0.00000  Uiso   1.00
C375   C     0.90294   0.54445   0.46262   0.00000  Uiso   1.00
C376   C     0.71701   0.45605   0.01527   0.00000  Uiso   1.00
C377   C     0.94468   0.56138   0.48913   0.00000  Uiso   1.00
C378   C     0.85691   0.65609   0.25191   0.00000  Uiso   1.00
C379   C     0.80983   0.34391   0.24794   0.00000  Uiso   1.00
C380   C     0.79466   0.49621   0.33327   0.00000  Uiso   1.00
Cu381  Cu    0.77404   0.49441   0.24516   0.00000  Uiso   1.00
Cu382  Cu    0.89263   0.50559   0.25483   0.00000  Uiso   1.00
H383   H     0.66876   0.43610   0.03070   0.00000  Uiso   1.00
H384   H     0.76452   0.65333   0.24418   0.00000  Uiso   1.00
H385   H     0.66798   0.53846   0.28453   0.00000  Uiso   1.00
H386   H     0.99869   0.46153   0.21547   0.00000  Uiso   1.00
H387   H     0.93827   0.35731   0.47416   0.00000  Uiso   1.00
H388   H     0.96810   0.37567   0.41760   0.00000  Uiso   1.00
H389   H     0.83868   0.38794   0.47741   0.00000  Uiso   1.00
H390   H     0.86949   0.40870   0.42130   0.00000  Uiso   1.00
H391   H     0.87294   0.64900   0.39661   0.00000  Uiso   1.00
H392   H     0.79403   0.65423   0.42730   0.00000  Uiso   1.00
H393   H     0.84372   0.62787   0.45292   0.00000  Uiso   1.00
H394   H     0.98953   0.58818   0.47544   0.00000  Uiso   1.00
H395   H     0.77683   0.59213   0.01998   0.00000  Uiso   1.00
H396   H     0.74073   0.56645   0.07367   0.00000  Uiso   1.00
H397   H     0.78348   0.35145   0.05098   0.00000  Uiso   1.00
H398   H     0.74840   0.65820   0.10504   0.00000  Uiso   1.00
H399   H     0.86629   0.35188   0.09075   0.00000  Uiso   1.00
H400   H     0.87515   0.64150   0.04351   0.00000  Uiso   1.00
H401   H     0.84015   0.61470   0.09793   0.00000  Uiso   1.00
H402   H     0.81501   0.46204   0.10585   0.00000  Uiso   1.00
H403   H     0.86448   0.51915   0.39011   0.00000  Uiso   1.00
H404   H     0.98066   0.56964   0.12610   0.00000  Uiso   1.00
H405   H     0.67251   0.46145   0.38180   0.00000  Uiso   1.00
H406   H     0.74361   0.45500   0.07393   0.00000  Uiso   1.00
H407   H     0.91841   0.56103   0.43034   0.00000  Uiso   1.00
H408   H     0.90223   0.34667   0.25566   0.00000  Uiso   1.00
N409   N     0.98173   0.51401   0.26212   0.00000  Uiso   1.00
N410   N     0.68494   0.48599   0.23788   0.00000  Uiso   1.00
O411   O     0.79482   0.57142   0.24686   0.00000  Uiso   1.00
O412   O     0.68818   0.60732   0.04503   0.00000  Uiso   1.00
O413   O     0.87185   0.42858   0.25314   0.00000  Uiso   1.00
O414   O     0.89496   0.58086   0.25502   0.00000  Uiso   1.00
O415   O     0.77171   0.41914   0.24497   0.00000  Uiso   1.00
O416   O     0.75518   0.49263   0.30854   0.00000  Uiso   1.00
O417   O     0.91149   0.50737   0.19145   0.00000  Uiso   1.00
O418   O     0.85532   0.50207   0.31671   0.00000  Uiso   1.00
O419   O     0.81134   0.49793   0.18329   0.00000  Uiso   1.00
O420   O     0.95862   0.43765   0.46561   0.00000  Uiso   1.00
C421   C     0.18175   0.93342   0.25129   0.00000  Uiso   1.00
C422   C     0.20542   0.83765   0.16690   0.00000  Uiso   1.00
C423   C     0.10469   0.82445   0.38117   0.00000  Uiso   1.00
C424   C     0.22959   0.84665   0.11974   0.00000  Uiso   1.00
C425   C     0.02217   0.79096   0.44579   0.00000  Uiso   1.00
C426   C     0.30410   0.89849   0.05959   0.00000  Uiso   1.00
C427   C     0.04085   0.80349   0.40110   0.00000  Uiso   1.00
C428   C     0.28605   0.88345   0.10368   0.00000  Uiso   1.00
C429   C     0.14887   0.83762   0.40677   0.00000  Uiso   1.00
C430   C     0.19015   0.82493   0.09213   0.00000  Uiso   1.00
C431   C     0.13125   0.82910   0.45210   0.00000  Uiso   1.00
C432   C     0.15161   0.73325   0.24865   0.00000  Uiso   1.00
C433   C     0.20335   0.84248   0.04900   0.00000  Uiso   1.00
C434   C     0.06753   0.80330   0.47123   0.00000  Uiso   1.00
C435   C     0.26237   0.87814   0.03238   0.00000  Uiso   1.00
C436   C     0.17583   0.84437   0.47853   0.00000  Uiso   1.00
C437   C     0.15830   0.82776   0.02280   0.00000  Uiso   1.00
C438   C     0.27124   0.71924   0.44983   0.00000  Uiso   1.00
C439   C     0.20328   0.71300   0.44524   0.00000  Uiso   1.00
C440   C     0.17704   0.99085   0.42950   0.00000  Uiso   1.00
C441   C     0.07913   0.93342   0.05224   0.00000  Uiso   1.00
C442   C     0.11173   0.98427   0.07206   0.00000  Uiso   1.00
C443   C     0.09496   0.80003   0.04021   0.00000  Uiso   1.00
C444   C     0.17742   0.98103   0.07629   0.00000  Uiso   1.00
C445   C     0.23627   0.87778   0.46262   0.00000  Uiso   1.00
C446   C     0.05034   0.78938   0.01527   0.00000  Uiso   1.00
C447   C     0.27802   0.89471   0.48913   0.00000  Uiso   1.00
C448   C     0.19025   0.98942   0.25191   0.00000  Uiso   1.00
C449   C     0.14316   0.67724   0.24794   0.00000  Uiso   1.00
C450   C     0.12799   0.82954   0.33327   0.00000  Uiso   1.00
Cu451  Cu    0.10737   0.82775   0.24516   0.00000  Uiso   1.00
Cu452  Cu    0.22596   0.83892   0.25483   0.00000  Uiso   1.00
H453   H     0.00209   0.76944   0.03070   0.00000  Uiso   1.00
H454   H     0.09785   0.98666   0.24418   0.00000  Uiso   1.00
H455   H     0.00131   0.87179   0.28453   0.00000  Uiso   1.00
H456   H     0.33202   0.79487   0.21547   0.00000  Uiso   1.00
H457   H     0.27161   0.69064   0.47416   0.00000  Uiso   1.00
H458   H     0.30144   0.70900   0.41760   0.00000  Uiso   1.00
H459   H     0.17201   0.72127   0.47741   0.00000  Uiso   1.00
H460   H     0.20283   0.74203   0.42130   0.00000  Uiso   1.00
H461   H     0.20628   0.98233   0.39661   0.00000  Uiso   1.00
H462   H     0.12736   0.98757   0.42730   0.00000  Uiso   1.00
H463   H     0.17706   0.96120   0.45292   0.00000  Uiso   1.00
H464   H     0.32287   0.92152   0.47544   0.00000  Uiso   1.00
H465   H     0.11016   0.92546   0.01998   0.00000  Uiso   1.00
H466   H     0.07406   0.89979   0.07367   0.00000  Uiso   1.00
H467   H     0.11682   0.68479   0.05098   0.00000  Uiso   1.00
H468   H     0.08174   0.99154   0.10504   0.00000  Uiso   1.00
H469   H     0.19962   0.68521   0.09075   0.00000  Uiso   1.00
H470   H     0.20849   0.97484   0.04351   0.00000  Uiso   1.00
H471   H     0.17349   0.94804   0.09793   0.00000  Uiso   1.00
H472   H     0.14834   0.79537   0.10585   0.00000  Uiso   1.00
H473   H     0.19781   0.85248   0.39011   0.00000  Uiso   1.00
H474   H     0.31399   0.90298   0.12610   0.00000  Uiso   1.00
H475   H     0.00585   0.79478   0.38180   0.00000  Uiso   1.00
H476   H     0.07695   0.78833   0.07393   0.00000  Uiso   1.00
H477   H     0.25175   0.89437   0.43034   0.00000  Uiso   1.00
H478   H     0.23556   0.68000   0.25566   0.00000  Uiso   1.00
N479   N     0.31506   0.84735   0.26212   0.00000  Uiso   1.00
N480   N     0.01827   0.81932   0.23788   0.00000  Uiso   1.00
O481   O     0.12815   0.90476   0.24686   0.00000  Uiso   1.00
O482   O     0.02151   0.94066   0.04503   0.00000  Uiso   1.00
O483   O     0.20518   0.76191   0.25314   0.00000  Uiso   1.00
O484   O     0.22829   0.91420   0.25502   0.00000  Uiso   1.00
O485   O     0.10504   0.75247   0.24497   0.00000  Uiso   1.00
O486   O     0.08851   0.82597   0.30854   0.00000  Uiso   1.00
O487   O     0.24482   0.84070   0.19145   0.00000  Uiso   1.00
O488   O     0.18866   0.83540   0.31671   0.00000  Uiso   1.00
O489   O     0.14468   0.83126   0.18329   0.00000  Uiso   1.00
O490   O     0.29196   0.77098   0.46561   0.00000  Uiso   1.00
C491   C     0.51508   0.93342   0.25129   0.00000  Uiso   1.00
C492   C     0.53876   0.83765   0.16690   0.00000  Uiso   1.00
C493   C     0.43802   0.82445   0.38117   0.00000  Uiso   1.00
C494   C     0.56292   0.84665   0.11974   0.00000  Uiso   1.00
C495   C     0.35550   0.79096   0.44579   0.00000  Uiso   1.00
C496   C     0.63744   0.89849   0.05959   0.00000  Uiso   1.00
C497   C     0.37418   0.80349   0.40110   0.00000  Uiso   1.00
C498   C     0.61939   0.88345   0.10368   0.00000  Uiso   1.00
C499   C     0.48221   0.83762   0.40677   0.00000  Uiso   1.00
C500   C     0.52349   0.82493   0.09213   0.00000  Uiso   1.00
C501   C     0.46458   0.82910   0.45210   0.00000  Uiso   1.00
C502   C     0.48495   0.73325   0.24865   0.00000  Uiso   1.00
C503   C     0.53669   0.84248   0.04900   0.00000  Uiso   1.00
C504   C     0.40086   0.80330   0.47123   0.00000  Uiso   1.00
C505   C     0.59570   0.87814   0.03238   0.00000  Uiso   1.00
C506   C     0.50916   0.84437   0.47853   0.00000  Uiso   1.00
C507   C     0.49163   0.82776   0.02280   0.00000  Uiso   1.00
C508   C     0.60457   0.71924   0.44983   0.00000  Uiso   1.00
C509   C     0.53662   0.71300   0.44524   0.00000  Uiso   1.00
C510   C     0.51037   0.99085   0.42950   0.00000  Uiso   1.00
C511   C     0.41246   0.93342   0.05224   0.00000  Uiso   1.00
C512   C     0.44506   0.98427   0.07206   0.00000  Uiso   1.00
C513   C     0.42829   0.80003   0.04021   0.00000  Uiso   1.00
C514   C     0.51075   0.98103   0.07629   0.00000  Uiso   1.00
C515   C     0.56961   0.87778   0.46262   0.00000  Uiso   1.00
C516   C     0.38368   0.78938   0.01527   0.00000  Uiso   1.00
C517   C     0.61135   0.89471   0.48913   0.00000  Uiso   1.00
C518   C     0.52358   0.98942   0.25191   0.00000  Uiso   1.00
C519   C     0.47650   0.67724   0.24794   0.00000  Uiso   1.00
C520   C     0.46133   0.82954   0.33327   0.00000  Uiso   1.00
Cu521  Cu    0.44071   0.82775   0.24516   0.00000  Uiso   1.00
Cu522  Cu    0.55929   0.83892   0.25483   0.00000  Uiso   1.00
H523   H     0.33543   0.76944   0.03070   0.00000  Uiso   1.00
H524   H     0.43119   0.98666   0.24418   0.00000  Uiso   1.00
H525   H     0.33464   0.87179   0.28453   0.00000  Uiso   1.00
H526   H     0.66535   0.79487   0.21547   0.00000  Uiso   1.00
H527   H     0.60494   0.69064   0.47416   0.00000  Uiso   1.00
H528   H     0.63477   0.70900   0.41760   0.00000  Uiso   1.00
H529   H     0.50534   0.72127   0.47741   0.00000  Uiso   1.00
H530   H     0.53616   0.74203   0.42130   0.00000  Uiso   1.00
H531   H     0.53961   0.98233   0.39661   0.00000  Uiso   1.00
H532   H     0.46070   0.98757   0.42730   0.00000  Uiso   1.00
H533   H     0.51039   0.96120   0.45292   0.00000  Uiso   1.00
H534   H     0.65620   0.92152   0.47544   0.00000  Uiso   1.00
H535   H     0.44349   0.92546   0.01998   0.00000  Uiso   1.00
H536   H     0.40739   0.89979   0.07367   0.00000  Uiso   1.00
H537   H     0.45015   0.68479   0.05098   0.00000  Uiso   1.00
H538   H     0.41507   0.99154   0.10504   0.00000  Uiso   1.00
H539   H     0.53296   0.68521   0.09075   0.00000  Uiso   1.00
H540   H     0.54182   0.97484   0.04351   0.00000  Uiso   1.00
H541   H     0.50682   0.94804   0.09793   0.00000  Uiso   1.00
H542   H     0.48168   0.79537   0.10585   0.00000  Uiso   1.00
H543   H     0.53115   0.85248   0.39011   0.00000  Uiso   1.00
H544   H     0.64732   0.90298   0.12610   0.00000  Uiso   1.00
H545   H     0.33918   0.79478   0.38180   0.00000  Uiso   1.00
H546   H     0.41028   0.78833   0.07393   0.00000  Uiso   1.00
H547   H     0.58508   0.89437   0.43034   0.00000  Uiso   1.00
H548   H     0.56889   0.68000   0.25566   0.00000  Uiso   1.00
N549   N     0.64839   0.84735   0.26212   0.00000  Uiso   1.00
N550   N     0.35161   0.81932   0.23788   0.00000  Uiso   1.00
O551   O     0.46148   0.90476   0.24686   0.00000  Uiso   1.00
O552   O     0.35485   0.94066   0.04503   0.00000  Uiso   1.00
O553   O     0.53852   0.76191   0.25314   0.00000  Uiso   1.00
O554   O     0.56163   0.91420   0.25502   0.00000  Uiso   1.00
O555   O     0.43837   0.75247   0.24497   0.00000  Uiso   1.00
O556   O     0.42185   0.82597   0.30854   0.00000  Uiso   1.00
O557   O     0.57815   0.84070   0.19145   0.00000  Uiso   1.00
O558   O     0.52199   0.83540   0.31671   0.00000  Uiso   1.00
O559   O     0.47801   0.83126   0.18329   0.00000  Uiso   1.00
O560   O     0.62529   0.77098   0.46561   0.00000  Uiso   1.00
C561   C     0.84842   0.93342   0.25129   0.00000  Uiso   1.00
C562   C     0.87209   0.83765   0.16690   0.00000  Uiso   1.00
C563   C     0.77135   0.82445   0.38117   0.00000  Uiso   1.00
C564   C     0.89625   0.84665   0.11974   0.00000  Uiso   1.00
C565   C     0.68883   0.79096   0.44579   0.00000  Uiso   1.00
C566   C     0.97077   0.89849   0.05959   0.00000  Uiso   1.00
C567   C     0.70751   0.80349   0.40110   0.00000  Uiso   1.00
C568   C     0.95272   0.88345   0.10368   0.00000  Uiso   1.00
C569   C     0.81554   0.83762   0.40677   0.00000  Uiso   1.00
C570   C     0.85682   0.82493   0.09213   0.00000  Uiso   1.00
C571   C     0.79792   0.82910   0.45210   0.00000  Uiso   1.00
C572   C     0.81828   0.73325   0.24865   0.00000  Uiso   1.00
C573   C     0.87002   0.84248   0.04900   0.00000  Uiso   1.00
C574   C     0.73419   0.80330   0.47123   0.00000  Uiso   1.00
C575   C     0.92903   0.87814   0.03238   0.00000  Uiso   1.00
C576   C     0.84249   0.84437   0.47853   0.00000  Uiso   1.00
C577   C     0.82496   0.82776   0.02280   0.00000  Uiso   1.00
C578   C     0.93790   0.71924   0.44983   0.00000  Uiso   1.00
C579   C     0.86995   0.71300   0.44524   0.00000  Uiso   1.00
C580   C     0.84370   0.99085   0.42950   0.00000  Uiso   1.00
C581   C     0.74579   0.93342   0.05224   0.00000  Uiso   1.00
C582   C     0.77839   0.98427   0.07206   0.00000  Uiso   1.00
C583   C     0.76162   0.80003   0.04021   0.00000  Uiso   1.00
C584   C     0.84408   0.98103   0.07629   0.00000  Uiso   1.00
C585   C     0.90294   0.87778   0.46262   0.00000  Uiso   1.00
C586   C     0.71701   0.78938   0.01527   0.00000  Uiso   1.00
C587   C     0.94468   0.89471   0.48913   0.00000  Uiso   1.00
C588   C     0.85691   0.98942   0.25191   0.00000  Uiso   1.00
C589   C     0.80983   0.67724   0.24794   0.00000  Uiso   1.00
C590   C     0.79466   0.82954   0.33327   0.00000  Uiso   1.00
Cu591  Cu    0.77404   0.82775   0.24516   0.00000  Uiso   1.00
Cu592  Cu    0.89263   0.83892   0.25483   0.00000  Uiso   1.00
H593   H     0.66876   0.76944   0.03070   0.00000  Uiso   1.00
H594   H     0.76452   0.98666   0.24418   0.00000  Uiso   1.00
H595   H     0.66798   0.87179   0.28453   0.00000  Uiso   1.00
H596   H     0.99869   0.79487   0.21547   0.00000  Uiso   1.00
H597   H     0.93827   0.69064   0.47416   0.00000  Uiso   1.00
H598   H     0.96810   0.70900   0.41760   0.00000  Uiso   1.00
H599   H     0.83868   0.72127   0.47741   0.00000  Uiso   1.00
H600   H     0.86949   0.74203   0.42130   0.00000  Uiso   1.00
H601   H     0.87294   0.98233   0.39661   0.00000  Uiso   1.00
H602   H     0.79403   0.98757   0.42730   0.00000  Uiso   1.00
H603   H     0.84372   0.96120   0.45292   0.00000  Uiso   1.00
H604   H     0.98953   0.92152   0.47544   0.00000  Uiso   1.00
H605   H     0.77683   0.92546   0.01998   0.00000  Uiso   1.00
H606   H     0.74073   0.89979   0.07367   0.00000  Uiso   1.00
H607   H     0.78348   0.68479   0.05098   0.00000  Uiso   1.00
H608   H     0.74840   0.99154   0.10504   0.00000  Uiso   1.00
H609   H     0.86629   0.68521   0.09075   0.00000  Uiso   1.00
H610   H     0.87515   0.97484   0.04351   0.00000  Uiso   1.00
H611   H     0.84015   0.94804   0.09793   0.00000  Uiso   1.00
H612   H     0.81501   0.79537   0.10585   0.00000  Uiso   1.00
H613   H     0.86448   0.85248   0.39011   0.00000  Uiso   1.00
H614   H     0.98066   0.90298   0.12610   0.00000  Uiso   1.00
H615   H     0.67251   0.79478   0.38180   0.00000  Uiso   1.00
H616   H     0.74361   0.78833   0.07393   0.00000  Uiso   1.00
H617   H     0.91841   0.89437   0.43034   0.00000  Uiso   1.00
H618   H     0.90223   0.68000   0.25566   0.00000  Uiso   1.00
N619   N     0.98173   0.84735   0.26212   0.00000  Uiso   1.00
N620   N     0.68494   0.81932   0.23788   0.00000  Uiso   1.00
O621   O     0.79482   0.90476   0.24686   0.00000  Uiso   1.00
O622   O     0.68818   0.94066   0.04503   0.00000  Uiso   1.00
O623   O     0.87185   0.76191   0.25314   0.00000  Uiso   1.00
O624   O     0.89496   0.91420   0.25502   0.00000  Uiso   1.00
O625   O     0.77171   0.75247   0.24497   0.00000  Uiso   1.00
O626   O     0.75518   0.82597   0.30854   0.00000  Uiso   1.00
O627   O     0.91149   0.84070   0.19145   0.00000  Uiso   1.00
O628   O     0.85532   0.83540   0.31671   0.00000  Uiso   1.00
O629   O     0.81134   0.83126   0.18329   0.00000  Uiso   1.00
O630   O     0.95862   0.77098   0.46561   0.00000  Uiso   1.00
C631   C     0.18175   0.26675   0.75129   0.00000  Uiso   1.00
C632   C     0.20542   0.17098   0.66690   0.00000  Uiso   1.00
C633   C     0.10469   0.15779   0.88117   0.00000  Uiso   1.00
C634   C     0.22959   0.17998   0.61974   0.00000  Uiso   1.00
C635   C     0.02217   0.12429   0.94579   0.00000  Uiso   1.00
C636   C     0.30410   0.23182   0.55959   0.00000  Uiso   1.00
C637   C     0.04085   0.13683   0.90110   0.00000  Uiso   1.00
C638   C     0.28605   0.21678   0.60368   0.00000  Uiso   1.00
C639   C     0.14887   0.17096   0.90677   0.00000  Uiso   1.00
C640   C     0.19015   0.15827   0.59213   0.00000  Uiso   1.00
C641   C     0.13125   0.16243   0.95210   0.00000  Uiso   1.00
C642   C     0.15161   0.06658   0.74865   0.00000  Uiso   1.00
C643   C     0.20335   0.17582   0.54900   0.00000  Uiso   1.00
C644   C     0.06753   0.13664   0.97123   0.00000  Uiso   1.00
C645   C     0.26237   0.21147   0.53238   0.00000  Uiso   1.00
C646   C     0.17583   0.17770   0.97853   0.00000  Uiso   1.00
C647   C     0.15830   0.16110   0.52280   0.00000  Uiso   1.00
C648   C     0.27124   0.05257   0.94983   0.00000  Uiso   1.00
C649   C     0.20328   0.04633   0.94524   0.00000  Uiso   1.00
C650   C     0.17704   0.32418   0.92950   0.00000  Uiso   1.00
C651   C     0.07913   0.26675   0.55224   0.00000  Uiso   1.00
C652   C     0.11173   0.31760   0.57206   0.00000  Uiso   1.00
C653   C     0.09496   0.13336   0.54021   0.00000  Uiso   1.00
C654   C     0.17742   0.31437   0.57629   0.00000  Uiso   1.00
C655   C     0.23627   0.21111   0.96262   0.00000  Uiso   1.00
C656   C     0.05034   0.12272   0.51527   0.00000  Uiso   1.00
C657   C     0.27802   0.22805   0.98913   0.00000  Uiso   1.00
C658   C     0.19025   0.32276   0.75191   0.00000  Uiso   1.00
C659   C     0.14316   0.01058   0.74794   0.00000  Uiso   1.00
C660   C     0.12799   0.16287   0.83327   0.00000  Uiso   1.00
Cu661  Cu    0.10737   0.16108   0.74516   0.00000  Uiso   1.00
Cu662  Cu    0.22596   0.17225   0.75483   0.00000  Uiso   1.00
H663   H     0.00209   0.10277   0.53070   0.00000  Uiso   1.00
H664   H     0.09785   0.32000   0.74418   0.00000  Uiso   1.00
H665   H     0.00131   0.20513   0.78453   0.00000  Uiso   1.00
H666   H     0.33202   0.12820   0.71547   0.00000  Uiso   1.00
H667   H     0.27161   0.02397   0.97416   0.00000  Uiso   1.00
H668   H     0.30144   0.04233   0.91760   0.00000  Uiso   1.00
H669   H     0.17201   0.05460   0.97741   0.00000  Uiso   1.00
H670   H     0.20283   0.07536   0.92130   0.00000  Uiso   1.00
H671   H     0.20628   0.31566   0.89661   0.00000  Uiso   1.00
H672   H     0.12736   0.32090   0.92730   0.00000  Uiso   1.00
H673   H     0.17706   0.29454   0.95292   0.00000  Uiso   1.00
H674   H     0.32287   0.25485   0.97544   0.00000  Uiso   1.00
H675   H     0.11016   0.25880   0.51998   0.00000  Uiso   1.00
H676   H     0.07406   0.23312   0.57367   0.00000  Uiso   1.00
H677   H     0.11682   0.01812   0.55098   0.00000  Uiso   1.00
H678   H     0.08174   0.32487   0.60504   0.00000  Uiso   1.00
H679   H     0.19962   0.01854   0.59075   0.00000  Uiso   1.00
H680   H     0.20849   0.30817   0.54351   0.00000  Uiso   1.00
H681   H     0.17349   0.28137   0.59793   0.00000  Uiso   1.00
H682   H     0.14834   0.12870   0.60585   0.00000  Uiso   1.00
H683   H     0.19781   0.18581   0.89011   0.00000  Uiso   1.00
H684   H     0.31399   0.23631   0.62610   0.00000  Uiso   1.00
H685   H     0.00585   0.12811   0.88180   0.00000  Uiso   1.00
H686   H     0.07695   0.12167   0.57393   0.00000  Uiso   1.00
H687   H     0.25175   0.22770   0.93034   0.00000  Uiso   1.00
H688   H     0.23556   0.01334   0.75566   0.00000  Uiso   1.00
N689   N     0.31506   0.18068   0.76212   0.00000  Uiso   1.00
N690   N     0.01827   0.15265   0.73788   0.00000  Uiso   1.00
O691   O     0.12815   0.23809   0.74686   0.00000  Uiso   1.00
O692   O     0.02151   0.27399   0.54503   0.00000  Uiso   1.00
O693   O     0.20518   0.09524   0.75314   0.00000  Uiso   1.00
O694   O     0.22829   0.24753   0.75502   0.00000  Uiso   1.00
O695   O     0.10504   0.08580   0.74497   0.00000  Uiso   1.00
O696   O     0.08851   0.15930   0.80854   0.00000  Uiso   1.00
O697   O     0.24482   0.17403   0.69145   0.00000  Uiso   1.00
O698   O     0.18866   0.16874   0.81671   0.00000  Uiso   1.00
O699   O     0.14468   0.16460   0.68329   0.00000  Uiso   1.00
O700   O     0.29196   0.10432   0.96561   0.00000  Uiso   1.00
C701   C     0.51508   0.26675   0.75129   0.00000  Uiso   1.00
C702   C     0.53876   0.17098   0.66690   0.00000  Uiso   1.00
C703   C     0.43802   0.15779   0.88117   0.00000  Uiso   1.00
C704   C     0.56292   0.17998   0.61974   0.00000  Uiso   1.00
C705   C     0.35550   0.12429   0.94579   0.00000  Uiso   1.00
C706   C     0.63744   0.23182   0.55959   0.00000  Uiso   1.00
C707   C     0.37418   0.13683   0.90110   0.00000  Uiso   1.00
C708   C     0.61939   0.21678   0.60368   0.00000  Uiso   1.00
C709   C     0.48221   0.17096   0.90677   0.00000  Uiso   1.00
C710   C     0.52349   0.15827   0.59213   0.00000  Uiso   1.00
C711   C     0.46458   0.16243   0.95210   0.00000  Uiso   1.00
C712   C     0.48495   0.06658   0.74865   0.00000  Uiso   1.00
C713   C     0.53669   0.17582   0.54900   0.00000  Uiso   1.00
C714   C     0.40086   0.13664   0.97123   0.00000  Uiso   1.00
C715   C     0.59570   0.21147   0.53238   0.00000  Uiso   1.00
C716   C     0.50916   0.17770   0.97853   0.00000  Uiso   1.00
C717   C     0.49163   0.16110   0.52280   0.00000  Uiso   1.00
C718   C     0.60457   0.05257   0.94983   0.00000  Uiso   1.00
C719   C     0.53662   0.04633   0.94524   0.00000  Uiso   1.00
C720   C     0.51037   0.32418   0.92950   0.00000  Uiso   1.00
C721   C     0.41246   0.26675   0.55224   0.00000  Uiso   1.00
C722   C     0.44506   0.31760   0.57206   0.00000  Uiso   1.00
C723   C     0.42829   0.13336   0.54021   0.00000  Uiso   1.00
C724   C     0.51075   0.31437   0.57629   0.00000  Uiso   1.00
C725   C     0.56961   0.21111   0.96262   0.00000  Uiso   1.00
C726   C     0.38368   0.12272   0.51527   0.00000  Uiso   1.00
C727   C     0.61135   0.22805   0.98913   0.00000  Uiso   1.00
C728   C     0.52358   0.32276   0.75191   0.00000  Uiso   1.00
C729   C     0.47650   0.01058   0.74794   0.00000  Uiso   1.00
C730   C     0.46133   0.16287   0.83327   0.00000  Uiso   1.00
Cu731  Cu    0.44071   0.16108   0.74516   0.00000  Uiso   1.00
Cu732  Cu    0.55929   0.17225   0.75483   0.00000  Uiso   1.00
H733   H     0.33543   0.10277   0.53070   0.00000  Uiso   1.00
H734   H     0.43119   0.32000   0.74418   0.00000  Uiso   1.00
H735   H     0.33464   0.20513   0.78453   0.00000  Uiso   1.00
H736   H     0.66535   0.12820   0.71547   0.00000  Uiso   1.00
H737   H     0.60494   0.02397   0.97416   0.00000  Uiso   1.00
H738   H     0.63477   0.04233   0.91760   0.00000  Uiso   1.00
H739   H     0.50534   0.05460   0.97741   0.00000  Uiso   1.00
H740   H     0.53616   0.07536   0.92130   0.00000  Uiso   1.00
H741   H     0.53961   0.31566   0.89661   0.00000  Uiso   1.00
H742   H     0.46070   0.32090   0.92730   0.00000  Uiso   1.00
H743   H     0.51039   0.29454   0.95292   0.00000  Uiso   1.00
H744   H     0.65620   0.25485   0.97544   0.00000  Uiso   1.00
H745   H     0.44349   0.25880   0.51998   0.00000  Uiso   1.00
H746   H     0.40739   0.23312   0.57367   0.00000  Uiso   1.00
H747   H     0.45015   0.01812   0.55098   0.00000  Uiso   1.00
H748   H     0.41507   0.32487   0.60504   0.00000  Uiso   1.00
H749   H     0.53296   0.01854   0.59075   0.00000  Uiso   1.00
H750   H     0.54182   0.30817   0.54351   0.00000  Uiso   1.00
H751   H     0.50682   0.28137   0.59793   0.00000  Uiso   1.00
H752   H     0.48168   0.12870   0.60585   0.00000  Uiso   1.00
H753   H     0.53115   0.18581   0.89011   0.00000  Uiso   1.00
H754   H     0.64732   0.23631   0.62610   0.00000  Uiso   1.00
H755   H     0.33918   0.12811   0.88180   0.00000  Uiso   1.00
H756   H     0.41028   0.12167   0.57393   0.00000  Uiso   1.00
H757   H     0.58508   0.22770   0.93034   0.00000  Uiso   1.00
H758   H     0.56889   0.01334   0.75566   0.00000  Uiso   1.00
N759   N     0.64839   0.18068   0.76212   0.00000  Uiso   1.00
N760   N     0.35161   0.15265   0.73788   0.00000  Uiso   1.00
O761   O     0.46148   0.23809   0.74686   0.00000  Uiso   1.00
O762   O     0.35485   0.27399   0.54503   0.00000  Uiso   1.00
O763   O     0.53852   0.09524   0.75314   0.00000  Uiso   1.00
O764   O     0.56163   0.24753   0.75502   0.00000  Uiso   1.00
O765   O     0.43837   0.08580   0.74497   0.00000  Uiso   1.00
O766   O     0.42185   0.15930   0.80854   0.00000  Uiso   1.00
O767   O     0.57815   0.17403   0.69145   0.00000  Uiso   1.00
O768   O     0.52199   0.16874   0.81671   0.00000  Uiso   1.00
O769   O     0.47801   0.16460   0.68329   0.00000  Uiso   1.00
O770   O     0.62529   0.10432   0.96561   0.00000  Uiso   1.00
C771   C     0.84842   0.26675   0.75129   0.00000  Uiso   1.00
C772   C     0.87209   0.17098   0.66690   0.00000  Uiso   1.00
C773   C     0.77135   0.15779   0.88117   0.00000  Uiso   1.00
C774   C     0.89625   0.17998   0.61974   0.00000  Uiso   1.00
C775   C     0.68883   0.12429   0.94579   0.00000  Uiso   1.00
C776   C     0.97077   0.23182   0.55959   0.00000  Uiso   1.00
C777   C     0.70751   0.13683   0.90110   0.00000  Uiso   1.00
C778   C     0.95272   0.21678   0.60368   0.00000  Uiso   1.00
C779   C     0.81554   0.17096   0.90677   0.00000  Uiso   1.00
C780   C     0.85682   0.15827   0.59213   0.00000  Uiso   1.00
C781   C     0.79792   0.16243   0.95210   0.00000  Uiso   1.00
C782   C     0.81828   0.06658   0.74865   0.00000  Uiso   1.00
C783   C     0.87002   0.17582   0.54900   0.00000  Uiso   1.00
C784   C     0.73419   0.13664   0.97123   0.00000  Uiso   1.00
C785   C     0.92903   0.21147   0.53238   0.00000  Uiso   1.00
C786   C     0.84249   0.17770   0.97853   0.00000  Uiso   1.00
C787   C     0.82496   0.16110   0.52280   0.00000  Uiso   1.00
C788   C     0.93790   0.05257   0.94983   0.00000  Uiso   1.00
C789   C     0.86995   0.04633   0.94524   0.00000  Uiso   1.00
C790   C     0.84370   0.32418   0.92950   0.00000  Uiso   1.00
C791   C     0.74579   0.26675   0.55224   0.00000  Uiso   1.00
C792   C     0.77839   0.31760   0.57206   0.00000  Uiso   1.00
C793   C     0.76162   0.13336   0.54021   0.00000  Uiso   1.00
C794   C     0.84408   0.31437   0.57629   0.00000  Uiso   1.00
C795   C     0.90294   0.21111   0.96262   0.00000  Uiso   1.00
C796   C     0.71701   0.12272   0.51527   0.00000  Uiso   1.00
C797   C     0.94468   0.22805   0.98913   0.00000  Uiso   1.00
C798   C     0.85691   0.32276   0.75191   0.00000  Uiso   1.00
C799   C     0.80983   0.01058   0.74794   0.00000  Uiso   1.00
C800   C     0.79466   0.16287   0.83327   0.00000  Uiso   1.00
Cu801  Cu    0.77404   0.16108   0.74516   0.00000  Uiso   1.00
Cu802  Cu    0.89263   0.17225   0.75483   0.00000  Uiso   1.00
H803   H     0.66876   0.10277   0.53070   0.00000  Uiso   1.00
H804   H     0.76452   0.32000   0.74418   0.00000  Uiso   1.00
H805   H     0.66798   0.20513   0.78453   0.00000  Uiso   1.00
H806   H     0.99869   0.12820   0.71547   0.00000  Uiso   1.00
H807   H     0.93827   0.02397   0.97416   0.00000  Uiso   1.00
H808   H     0.96810   0.04233   0.91760   0.00000  Uiso   1.00
H809   H     0.83868   0.05460   0.97741   0.00000  Uiso   1.00
H810   H     0.86949   0.07536   0.92130   0.00000  Uiso   1.00
H811   H     0.87294   0.31566   0.89661   0.00000  Uiso   1.00
H812   H     0.79403   0.32090   0.92730   0.00000  Uiso   1.00
H813   H     0.84372   0.29454   0.95292   0.00000  Uiso   1.00
H814   H     0.98953   0.25485   0.97544   0.00000  Uiso   1.00
H815   H     0.77683   0.25880   0.51998   0.00000  Uiso   1.00
H816   H     0.74073   0.23312   0.57367   0.00000  Uiso   1.00
H817   H     0.78348   0.01812   0.55098   0.00000  Uiso   1.00
H818   H     0.74840   0.32487   0.60504   0.00000  Uiso   1.00
H819   H     0.86629   0.01854   0.59075   0.00000  Uiso   1.00
H820   H     0.87515   0.30817   0.54351   0.00000  Uiso   1.00
H821   H     0.84015   0.28137   0.59793   0.00000  Uiso   1.00
H822   H     0.81501   0.12870   0.60585   0.00000  Uiso   1.00
H823   H     0.86448   0.18581   0.89011   0.00000  Uiso   1.00
H824   H     0.98066   0.23631   0.62610   0.00000  Uiso   1.00
H825   H     0.67251   0.12811   0.88180   0.00000  Uiso   1.00
H826   H     0.74361   0.12167   0.57393   0.00000  Uiso   1.00
H827   H     0.91841   0.22770   0.93034   0.00000  Uiso   1.00
H828   H     0.90223   0.01334   0.75566   0.00000  Uiso   1.00
N829   N     0.98173   0.18068   0.76212   0.00000  Uiso   1.00
N830   N     0.68494   0.15265   0.73788   0.00000  Uiso   1.00
O831   O     0.79482   0.23809   0.74686   0.00000  Uiso   1.00
O832   O     0.68818   0.27399   0.54503   0.00000  Uiso   1.00
O833   O     0.87185   0.09524   0.75314   0.00000  Uiso   1.00
O834   O     0.89496   0.24753   0.75502   0.00000  Uiso   1.00
O835   O     0.77171   0.08580   0.74497   0.00000  Uiso   1.00
O836   O     0.75518   0.15930   0.80854   0.00000  Uiso   1.00
O837   O     0.91149   0.17403   0.69145   0.00000  Uiso   1.00
O838   O     0.85532   0.16874   0.81671   0.00000  Uiso   1.00
O839   O     0.81134   0.16460   0.68329   0.00000  Uiso   1.00
O840   O     0.95862   0.10432   0.96561   0.00000  Uiso   1.00
C841   C     0.18175   0.60009   0.75129   0.00000  Uiso   1.00
C842   C     0.20542   0.50431   0.66690   0.00000  Uiso   1.00
C843   C     0.10469   0.49112   0.88117   0.00000  Uiso   1.00
C844   C     0.22959   0.51332   0.61974   0.00000  Uiso   1.00
C845   C     0.02217   0.45763   0.94579   0.00000  Uiso   1.00
C846   C     0.30410   0.56515   0.55959   0.00000  Uiso   1.00
C847   C     0.04085   0.47016   0.90110   0.00000  Uiso   1.00
C848   C     0.28605   0.55011   0.60368   0.00000  Uiso   1.00
C849   C     0.14887   0.50429   0.90677   0.00000  Uiso   1.00
C850   C     0.19015   0.49160   0.59213   0.00000  Uiso   1.00
C851   C     0.13125   0.49576   0.95210   0.00000  Uiso   1.00
C852   C     0.15161   0.39991   0.74865   0.00000  Uiso   1.00
C853   C     0.20335   0.50915   0.54900   0.00000  Uiso   1.00
C854   C     0.06753   0.46997   0.97123   0.00000  Uiso   1.00
C855   C     0.26237   0.54481   0.53238   0.00000  Uiso   1.00
C856   C     0.17583   0.51103   0.97853   0.00000  Uiso   1.00
C857   C     0.15830   0.49443   0.52280   0.00000  Uiso   1.00
C858   C     0.27124   0.38590   0.94983   0.00000  Uiso   1.00
C859   C     0.20328   0.37967   0.94524   0.00000  Uiso   1.00
C860   C     0.17704   0.65751   0.92950   0.00000  Uiso   1.00
C861   C     0.07913   0.60008   0.55224   0.00000  Uiso   1.00
C862   C     0.11173   0.65094   0.57206   0.00000  Uiso   1.00
C863   C     0.09496   0.46670   0.54021   0.00000  Uiso   1.00
C864   C     0.17742   0.64770   0.57629   0.00000  Uiso   1.00
C865   C     0.23627   0.54445   0.96262   0.00000  Uiso   1.00
C866   C     0.05034   0.45605   0.51527   0.00000  Uiso   1.00
C867   C     0.27802   0.56138   0.98913   0.00000  Uiso   1.00
C868   C     0.19025   0.65609   0.75191   0.00000  Uiso   1.00
C869   C     0.14316   0.34391   0.74794   0.00000  Uiso   1.00
C870   C     0.12799   0.49621   0.83327   0.00000  Uiso   1.00
Cu871  Cu    0.10737   0.49441   0.74516   0.00000  Uiso   1.00
Cu872  Cu    0.22596   0.50559   0.75483   0.00000  Uiso   1.00
H873   H     0.00209   0.43610   0.53070   0.00000  Uiso   1.00
H874   H     0.09785   0.65333   0.74418   0.00000  Uiso   1.00
H875   H     0.00131   0.53846   0.78453   0.00000  Uiso   1.00
H876   H     0.33202   0.46153   0.71547   0.00000  Uiso   1.00
H877   H     0.27161   0.35731   0.97416   0.00000  Uiso   1.00
H878   H     0.30144   0.37567   0.91760   0.00000  Uiso   1.00
H879   H     0.17201   0.38794   0.97741   0.00000  Uiso   1.00
H880   H     0.20283   0.40870   0.92130   0.00000  Uiso   1.00
H881   H     0.20628   0.64900   0.89661   0.00000  Uiso   1.00
H882   H     0.12736   0.65423   0.92730   0.00000  Uiso   1.00
H883   H     0.17706   0.62787   0.95292   0.00000  Uiso   1.00
H884   H     0.32287   0.58818   0.97544   0.00000  Uiso   1.00
H885   H     0.11016   0.59213   0.51998   0.00000  Uiso   1.00
H886   H     0.07406   0.56645   0.57367   0.00000  Uiso   1.00
H887   H     0.11682   0.35145   0.55098   0.00000  Uiso   1.00
H888   H     0.08174   0.65820   0.60504   0.00000  Uiso   1.00
H889   H     0.19962   0.35188   0.59075   0.00000  Uiso   1.00
H890   H     0.20849   0.64150   0.54351   0.00000  Uiso   1.00
H891   H     0.17349   0.61470   0.59793   0.00000  Uiso   1.00
H892   H     0.14834   0.46204   0.60585   0.00000  Uiso   1.00
H893   H     0.19781   0.51915   0.89011   0.00000  Uiso   1.00
H894   H     0.31399   0.56964   0.62610   0.00000  Uiso   1.00
H895   H     0.00585   0.46145   0.88180   0.00000  Uiso   1.00
H896   H     0.07695   0.45500   0.57393   0.00000  Uiso   1.00
H897   H     0.25175   0.56103   0.93034   0.00000  Uiso   1.00
H898   H     0.23556   0.34667   0.75566   0.00000  Uiso   1.00
N899   N     0.31506   0.51401   0.76212   0.00000  Uiso   1.00
N900   N     0.01827   0.48599   0.73788   0.00000  Uiso   1.00
O901   O     0.12815   0.57142   0.74686   0.00000  Uiso   1.00
O902   O     0.02151   0.60732   0.54503   0.00000  Uiso   1.00
O903   O     0.20518   0.42858   0.75314   0.00000  Uiso   1.00
O904   O     0.22829   0.58086   0.75502   0.00000  Uiso   1.00
O905   O     0.10504   0.41914   0.74497   0.00000  Uiso   1.00
O906   O     0.08851   0.49263   0.80854   0.00000  Uiso   1.00
O907   O     0.24482   0.50737   0.69145   0.00000  Uiso   1.00
O908   O     0.18866   0.50207   0.81671   0.00000  Uiso   1.00
O909   O     0.14468   0.49793   0.68329   0.00000  Uiso   1.00
O910   O     0.29196   0.43765   0.96561   0.00000  Uiso   1.00
C911   C     0.51508   0.60009   0.75129   0.00000  Uiso   1.00
C912   C     0.53876   0.50431   0.66690   0.00000  Uiso   1.00
C913   C     0.43802   0.49112   0.88117   0.00000  Uiso   1.00
C914   C     0.56292   0.51332   0.61974   0.00000  Uiso   1.00
C915   C     0.35550   0.45763   0.94579   0.00000  Uiso   1.00
C916   C     0.63744   0.56515   0.55959   0.00000  Uiso   1.00
C917   C     0.37418   0.47016   0.90110   0.00000  Uiso   1.00
C918   C     0.61939   0.55011   0.60368   0.00000  Uiso   1.00
C919   C     0.48221   0.50429   0.90677   0.00000  Uiso   1.00
C920   C     0.52349   0.49160   0.59213   0.00000  Uiso   1.00
C921   C     0.46458   0.49576   0.95210   0.00000  Uiso   1.00
C922   C     0.48495   0.39991   0.74865   0.00000  Uiso   1.00
C923   C     0.53669   0.50915   0.54900   0.00000  Uiso   1.00
C924   C     0.40086   0.46997   0.97123   0.00000  Uiso   1.00
C925   C     0.59570   0.54481   0.53238   0.00000  Uiso   1.00
C926   C     0.50916   0.51103   0.97853   0.00000  Uiso   1.00
C927   C     0.49163   0.49443   0.52280   0.00000  Uiso   1.00
C928   C     0.60457   0.38590   0.94983   0.00000  Uiso   1.00
C929   C     0.53662   0.37967   0.94524   0.00000  Uiso   1.00
C930   C     0.51037   0.65751   0.92950   0.00000  Uiso   1.00
C931   C     0.41246   0.60008   0.55224   0.00000  Uiso   1.00
C932   C     0.44506   0.65094   0.57206   0.00000  Uiso   1.00
C933   C     0.42829   0.46670   0.54021   0.00000  Uiso   1.00
C934   C     0.51075   0.64770   0.57629   0.00000  Uiso   1.00
C935   C     0.56961   0.54445   0.96262   0.00000  Uiso   1.00
C936   C     0.38368   0.45605   0.51527   0.00000  Uiso   1.00
C937   C     0.61135   0.56138   0.98913   0.00000  Uiso   1.00
C938   C     0.52358   0.65609   0.75191   0.00000  Uiso   1.00
C939   C     0.47650   0.34391   0.74794   0.00000  Uiso   1.00
C940   C     0.46133   0.49621   0.83327   0.00000  Uiso   1.00
Cu941  Cu    0.44071   0.49441   0.74516   0.00000  Uiso   1.00
Cu942  Cu    0.55929   0.50559   0.75483   0.00000  Uiso   1.00
H943   H     0.33543   0.43610   0.53070   0.00000  Uiso   1.00
H944   H     0.43119   0.65333   0.74418   0.00000  Uiso   1.00
H945   H     0.33464   0.53846   0.78453   0.00000  Uiso   1.00
H946   H     0.66535   0.46153   0.71547   0.00000  Uiso   1.00
H947   H     0.60494   0.35731   0.97416   0.00000  Uiso   1.00
H948   H     0.63477   0.37567   0.91760   0.00000  Uiso   1.00
H949   H     0.50534   0.38794   0.97741   0.00000  Uiso   1.00
H950   H     0.53616   0.40870   0.92130   0.00000  Uiso   1.00
H951   H     0.53961   0.64900   0.89661   0.00000  Uiso   1.00
H952   H     0.46070   0.65423   0.92730   0.00000  Uiso   1.00
H953   H     0.51039   0.62787   0.95292   0.00000  Uiso   1.00
H954   H     0.65620   0.58818   0.97544   0.00000  Uiso   1.00
H955   H     0.44349   0.59213   0.51998   0.00000  Uiso   1.00
H956   H     0.40739   0.56645   0.57367   0.00000  Uiso   1.00
H957   H     0.45015   0.35145   0.55098   0.00000  Uiso   1.00
H958   H     0.41507   0.65820   0.60504   0.00000  Uiso   1.00
H959   H     0.53296   0.35188   0.59075   0.00000  Uiso   1.00
H960   H     0.54182   0.64150   0.54351   0.00000  Uiso   1.00
H961   H     0.50682   0.61470   0.59793   0.00000  Uiso   1.00
H962   H     0.48168   0.46204   0.60585   0.00000  Uiso   1.00
H963   H     0.53115   0.51915   0.89011   0.00000  Uiso   1.00
H964   H     0.64732   0.56964   0.62610   0.00000  Uiso   1.00
H965   H     0.33918   0.46145   0.88180   0.00000  Uiso   1.00
H966   H     0.41028   0.45500   0.57393   0.00000  Uiso   1.00
H967   H     0.58508   0.56103   0.93034   0.00000  Uiso   1.00
H968   H     0.56889   0.34667   0.75566   0.00000  Uiso   1.00
N969   N     0.64839   0.51401   0.76212   0.00000  Uiso   1.00
N970   N     0.35161   0.48599   0.73788   0.00000  Uiso   1.00
O971   O     0.46148   0.57142   0.74686   0.00000  Uiso   1.00
O972   O     0.35485   0.60732   0.54503   0.00000  Uiso   1.00
O973   O     0.53852   0.42858   0.75314   0.00000  Uiso   1.00
O974   O     0.56163   0.58086   0.75502   0.00000  Uiso   1.00
O975   O     0.43837   0.41914   0.74497   0.00000  Uiso   1.00
O976   O     0.42185   0.49263   0.80854   0.00000  Uiso   1.00
O977   O     0.57815   0.50737   0.69145   0.00000  Uiso   1.00
O978   O     0.52199   0.50207   0.81671   0.00000  Uiso   1.00
O979   O     0.47801   0.49793   0.68329   0.00000  Uiso   1.00
O980   O     0.62529   0.43765   0.96561   0.00000  Uiso   1.00
C981   C     0.84842   0.60009   0.75129   0.00000  Uiso   1.00
C982   C     0.87209   0.50431   0.66690   0.00000  Uiso   1.00
C983   C     0.77135   0.49112   0.88117   0.00000  Uiso   1.00
C984   C     0.89625   0.51332   0.61974   0.00000  Uiso   1.00
C985   C     0.68883   0.45763   0.94579   0.00000  Uiso   1.00
C986   C     0.97077   0.56515   0.55959   0.00000  Uiso   1.00
C987   C     0.70751   0.47016   0.90110   0.00000  Uiso   1.00
C988   C     0.95272   0.55011   0.60368   0.00000  Uiso   1.00
C989   C     0.81554   0.50429   0.90677   0.00000  Uiso   1.00
C990   C     0.85682   0.49160   0.59213   0.00000  Uiso   1.00
C991   C     0.79792   0.49576   0.95210   0.00000  Uiso   1.00
C992   C     0.81828   0.39991   0.74865   0.00000  Uiso   1.00
C993   C     0.87002   0.50915   0.54900   0.00000  Uiso   1.00
C994   C     0.73419   0.46997   0.97123   0.00000  Uiso   1.00
C995   C     0.92903   0.54481   0.53238   0.00000  Uiso   1.00
C996   C     0.84249   0.51103   0.97853   0.00000  Uiso   1.00
C997   C     0.82496   0.49443   0.52280   0.00000  Uiso   1.00
C998   C     0.93790   0.38590   0.94983   0.00000  Uiso   1.00
C999   C     0.86995   0.37967   0.94524   0.00000  Uiso   1.00
C1000  C     0.84370   0.65751   0.92950   0.00000  Uiso   1.00
C1001  C     0.74579   0.60008   0.55224   0.00000  Uiso   1.00
C1002  C     0.77839   0.65094   0.57206   0.00000  Uiso   1.00
C1003  C     0.76162   0.46670   0.54021   0.00000  Uiso   1.00
C1004  C     0.84408   0.64770   0.57629   0.00000  Uiso   1.00
C1005  C     0.90294   0.54445   0.96262   0.00000  Uiso   1.00
C1006  C     0.71701   0.45605   0.51527   0.00000  Uiso   1.00
C1007  C     0.94468   0.56138   0.98913   0.00000  Uiso   1.00
C1008  C     0.85691   0.65609   0.75191   0.00000  Uiso   1.00
C1009  C     0.80983   0.34391   0.74794   0.00000  Uiso   1.00
C1010  C     0.79466   0.49621   0.83327   0.00000  Uiso   1.00
Cu1011 Cu    0.77404   0.49441   0.74516   0.00000  Uiso   1.00
Cu1012 Cu    0.89263   0.50559   0.75483   0.00000  Uiso   1.00
H1013  H     0.66876   0.43610   0.53070   0.00000  Uiso   1.00
H1014  H     0.76452   0.65333   0.74418   0.00000  Uiso   1.00
H1015  H     0.66798   0.53846   0.78453   0.00000  Uiso   1.00
H1016  H     0.99869   0.46153   0.71547   0.00000  Uiso   1.00
H1017  H     0.93827   0.35731   0.97416   0.00000  Uiso   1.00
H1018  H     0.96810   0.37567   0.91760   0.00000  Uiso   1.00
H1019  H     0.83868   0.38794   0.97741   0.00000  Uiso   1.00
H1020  H     0.86949   0.40870   0.92130   0.00000  Uiso   1.00
H1021  H     0.87294   0.64900   0.89661   0.00000  Uiso   1.00
H1022  H     0.79403   0.65423   0.92730   0.00000  Uiso   1.00
H1023  H     0.84372   0.62787   0.95292   0.00000  Uiso   1.00
H1024  H     0.98953   0.58818   0.97544   0.00000  Uiso   1.00
H1025  H     0.77683   0.59213   0.51998   0.00000  Uiso   1.00
H1026  H     0.74073   0.56645   0.57367   0.00000  Uiso   1.00
H1027  H     0.78348   0.35145   0.55098   0.00000  Uiso   1.00
H1028  H     0.74840   0.65820   0.60504   0.00000  Uiso   1.00
H1029  H     0.86629   0.35188   0.59075   0.00000  Uiso   1.00
H1030  H     0.87515   0.64150   0.54351   0.00000  Uiso   1.00
H1031  H     0.84015   0.61470   0.59793   0.00000  Uiso   1.00
H1032  H     0.81501   0.46204   0.60585   0.00000  Uiso   1.00
H1033  H     0.86448   0.51915   0.89011   0.00000  Uiso   1.00
H1034  H     0.98066   0.56964   0.62610   0.00000  Uiso   1.00
H1035  H     0.67251   0.46145   0.88180   0.00000  Uiso   1.00
H1036  H     0.74361   0.45500   0.57393   0.00000  Uiso   1.00
H1037  H     0.91841   0.56103   0.93034   0.00000  Uiso   1.00
H1038  H     0.90223   0.34667   0.75566   0.00000  Uiso   1.00
N1039  N     0.98173   0.51401   0.76212   0.00000  Uiso   1.00
N1040  N     0.68494   0.48599   0.73788   0.00000  Uiso   1.00
O1041  O     0.79482   0.57142   0.74686   0.00000  Uiso   1.00
O1042  O     0.68818   0.60732   0.54503   0.00000  Uiso   1.00
O1043  O     0.87185   0.42858   0.75314   0.00000  Uiso   1.00
O1044  O     0.89496   0.58086   0.75502   0.00000  Uiso   1.00
O1045  O     0.77171   0.41914   0.74497   0.00000  Uiso   1.00
O1046  O     0.75518   0.49263   0.80854   0.00000  Uiso   1.00
O1047  O     0.91149   0.50737   0.69145   0.00000  Uiso   1.00
O1048  O     0.85532   0.50207   0.81671   0.00000  Uiso   1.00
O1049  O     0.81134   0.49793   0.68329   0.00000  Uiso   1.00
O1050  O     0.95862   0.43765   0.96561   0.00000  Uiso   1.00
C1051  C     0.18175   0.93342   0.75129   0.00000  Uiso   1.00
C1052  C     0.20542   0.83765   0.66690   0.00000  Uiso   1.00
C1053  C     0.10469   0.82445   0.88117   0.00000  Uiso   1.00
C1054  C     0.22959   0.84665   0.61974   0.00000  Uiso   1.00
C1055  C     0.02217   0.79096   0.94579   0.00000  Uiso   1.00
C1056  C     0.30410   0.89849   0.55959   0.00000  Uiso   1.00
C1057  C     0.04085   0.80349   0.90110   0.00000  Uiso   1.00
C1058  C     0.28605   0.88345   0.60368   0.00000  Uiso   1.00
C1059  C     0.14887   0.83762   0.90677   0.00000  Uiso   1.00
C1060  C     0.19015   0.82493   0.59213   0.00000  Uiso   1.00
C1061  C     0.13125   0.82910   0.95210   0.00000  Uiso   1.00
C1062  C     0.15161   0.73325   0.74865   0.00000  Uiso   1.00
C1063  C     0.20335   0.84248   0.54900   0.00000  Uiso   1.00
C1064  C     0.06753   0.80330   0.97123   0.00000  Uiso   1.00
C1065  C     0.26237   0.87814   0.53238   0.00000  Uiso   1.00
C1066  C     0.17583   0.84437   0.97853   0.00000  Uiso   1.00
C1067  C     0.15830   0.82776   0.52280   0.00000  Uiso   1.00
C1068  C     0.27124   0.71924   0.94983   0.00000  Uiso   1.00
C1069  C     0.20328   0.71300   0.94524   0.00000  Uiso   1.00
C1070  C     0.17704   0.99085   0.92950   0.00000  Uiso   1.00
C1071  C     0.07913   0.93342   0.55224   0.00000  Uiso   1.00
C1072  C     0.11173   0.98427   0.57206   0.00000  Uiso   1.00
C1073  C     0.09496   0.80003   0.54021   0.00000  Uiso   1.00
C1074  C     0.17742   0.98103   0.57629   0.00000  Uiso   1.00
C1075  C     0.23627   0.87778   0.96262   0.00000  Uiso   1.00
C1076  C     0.05034   0.78938   0.51527   0.00000  Uiso   1.00
C1077  C     0.27802   0.89471   0.98913   0.00000  Uiso   1.00
C1078  C     0.19025   0.98942   0.75191   0.00000  Uiso   1.00
C1079  C     0.14316   0.67724   0.74794   0.00000  Uiso   1.00
C1080  C     0.12799   0.82954   0.83327   0.00000  Uiso   1.00
Cu1081 Cu    0.10737   0.82775   0.74516   0.00000  Uiso   1.00
Cu1082 Cu    0.22596   0.83892   0.75483   0.00000  Uiso   1.00
H1083  H     0.00209   0.76944   0.53070   0.00000  Uiso   1.00
H1084  H     0.09785   0.98666   0.74418   0.00000  Uiso   1.00
H1085  H     0.00131   0.87179   0.78453   0.00000  Uiso   1.00
H1086  H     0.33202   0.79487   0.71547   0.00000  Uiso   1.00
H1087  H     0.27161   0.69064   0.97416   0.00000  Uiso   1.00
H1088  H     0.30144   0.70900   0.91760   0.00000  Uiso   1.00
H1089  H     0.17201   0.72127   0.97741   0.00000  Uiso   1.00
H1090  H     0.20283   0.74203   0.92130   0.00000  Uiso   1.00
H1091  H     0.20628   0.98233   0.89661   0.00000  Uiso   1.00
H1092  H     0.12736   0.98757   0.92730   0.00000  Uiso   1.00
H1093  H     0.17706   0.96120   0.95292   0.00000  Uiso   1.00
H1094  H     0.32287   0.92152   0.97544   0.00000  Uiso   1.00
H1095  H     0.11016   0.92546   0.51998   0.00000  Uiso   1.00
H1096  H     0.07406   0.89979   0.57367   0.00000  Uiso   1.00
H1097  H     0.11682   0.68479   0.55098   0.00000  Uiso   1.00
H1098  H     0.08174   0.99154   0.60504   0.00000  Uiso   1.00
H1099  H     0.19962   0.68521   0.59075   0.00000  Uiso   1.00
H1100  H     0.20849   0.97484   0.54351   0.00000  Uiso   1.00
H1101  H     0.17349   0.94804   0.59793   0.00000  Uiso   1.00
H1102  H     0.14834   0.79537   0.60585   0.00000  Uiso   1.00
H1103  H     0.19781   0.85248   0.89011   0.00000  Uiso   1.00
H1104  H     0.31399   0.90298   0.62610   0.00000  Uiso   1.00
H1105  H     0.00585   0.79478   0.88180   0.00000  Uiso   1.00
H1106  H     0.07695   0.78833   0.57393   0.00000  Uiso   1.00
H1107  H     0.25175   0.89437   0.93034   0.00000  Uiso   1.00
H1108  H     0.23556   0.68000   0.75566   0.00000  Uiso   1.00
N1109  N     0.31506   0.84735   0.76212   0.00000  Uiso   1.00
N1110  N     0.01827   0.81932   0.73788   0.00000  Uiso   1.00
O1111  O     0.12815   0.90476   0.74686   0.00000  Uiso   1.00
O1112  O     0.02151   0.94066   0.54503   0.00000  Uiso   1.00
O1113  O     0.20518   0.76191   0.75314   0.00000  Uiso   1.00
O1114  O     0.22829   0.91420   0.75502   0.00000  Uiso   1.00
O1115  O     0.10504   0.75247   0.74497   0.00000  Uiso   1.00
O1116  O     0.08851   0.82597   0.80854   0.00000  Uiso   1.00
O1117  O     0.24482   0.84070   0.69145   0.00000  Uiso   1.00
O1118  O     0.18866   0.83540   0.81671   0.00000  Uiso   1.00
O1119  O     0.14468   0.83126   0.68329   0.00000  Uiso   1.00
O1120  O     0.29196   0.77098   0.96561   0.00000  Uiso   1.00
C1121  C     0.51508   0.93342   0.75129   0.00000  Uiso   1.00
C1122  C     0.53876   0.83765   0.66690   0.00000  Uiso   1.00
C1123  C     0.43802   0.82445   0.88117   0.00000  Uiso   1.00
C1124  C     0.56292   0.84665   0.61974   0.00000  Uiso   1.00
C1125  C     0.35550   0.79096   0.94579   0.00000  Uiso   1.00
C1126  C     0.63744   0.89849   0.55959   0.00000  Uiso   1.00
C1127  C     0.37418   0.80349   0.90110   0.00000  Uiso   1.00
C1128  C     0.61939   0.88345   0.60368   0.00000  Uiso   1.00
C1129  C     0.48221   0.83762   0.90677   0.00000  Uiso   1.00
C1130  C     0.52349   0.82493   0.59213   0.00000  Uiso   1.00
C1131  C     0.46458   0.82910   0.95210   0.00000  Uiso   1.00
C1132  C     0.48495   0.73325   0.74865   0.00000  Uiso   1.00
C1133  C     0.53669   0.84248   0.54900   0.00000  Uiso   1.00
C1134  C     0.40086   0.80330   0.97123   0.00000  Uiso   1.00
C1135  C     0.59570   0.87814   0.53238   0.00000  Uiso   1.00
C1136  C     0.50916   0.84437   0.97853   0.00000  Uiso   1.00
C1137  C     0.49163   0.82776   0.52280   0.00000  Uiso   1.00
C1138  C     0.60457   0.71924   0.94983   0.00000  Uiso   1.00
C1139  C     0.53662   0.71300   0.94524   0.00000  Uiso   1.00
C1140  C     0.51037   0.99085   0.92950   0.00000  Uiso   1.00
C1141  C     0.41246   0.93342   0.55224   0.00000  Uiso   1.00
C1142  C     0.44506   0.98427   0.57206   0.00000  Uiso   1.00
C1143  C     0.42829   0.80003   0.54021   0.00000  Uiso   1.00
C1144  C     0.51075   0.98103   0.57629   0.00000  Uiso   1.00
C1145  C     0.56961   0.87778   0.96262   0.00000  Uiso   1.00
C1146  C     0.38368   0.78938   0.51527   0.00000  Uiso   1.00
C1147  C     0.61135   0.89471   0.98913   0.00000  Uiso   1.00
C1148  C     0.52358   0.98942   0.75191   0.00000  Uiso   1.00
C1149  C     0.47650   0.67724   0.74794   0.00000  Uiso   1.00
C1150  C     0.46133   0.82954   0.83327   0.00000  Uiso   1.00
Cu1151 Cu    0.44071   0.82775   0.74516   0.00000  Uiso   1.00
Cu1152 Cu    0.55929   0.83892   0.75483   0.00000  Uiso   1.00
H1153  H     0.33543   0.76944   0.53070   0.00000  Uiso   1.00
H1154  H     0.43119   0.98666   0.74418   0.00000  Uiso   1.00
H1155  H     0.33464   0.87179   0.78453   0.00000  Uiso   1.00
H1156  H     0.66535   0.79487   0.71547   0.00000  Uiso   1.00
H1157  H     0.60494   0.69064   0.97416   0.00000  Uiso   1.00
H1158  H     0.63477   0.70900   0.91760   0.00000  Uiso   1.00
H1159  H     0.50534   0.72127   0.97741   0.00000  Uiso   1.00
H1160  H     0.53616   0.74203   0.92130   0.00000  Uiso   1.00
H1161  H     0.53961   0.98233   0.89661   0.00000  Uiso   1.00
H1162  H     0.46070   0.98757   0.92730   0.00000  Uiso   1.00
H1163  H     0.51039   0.96120   0.95292   0.00000  Uiso   1.00
H1164  H     0.65620   0.92152   0.97544   0.00000  Uiso   1.00
H1165  H     0.44349   0.92546   0.51998   0.00000  Uiso   1.00
H1166  H     0.40739   0.89979   0.57367   0.00000  Uiso   1.00
H1167  H     0.45015   0.68479   0.55098   0.00000  Uiso   1.00
H1168  H     0.41507   0.99154   0.60504   0.00000  Uiso   1.00
H1169  H     0.53296   0.68521   0.59075   0.00000  Uiso   1.00
H1170  H     0.54182   0.97484   0.54351   0.00000  Uiso   1.00
H1171  H     0.50682   0.94804   0.59793   0.00000  Uiso   1.00
H1172  H     0.48168   0.79537   0.60585   0.00000  Uiso   1.00
H1173  H     0.53115   0.85248   0.89011   0.00000  Uiso   1.00
H1174  H     0.64732   0.90298   0.62610   0.00000  Uiso   1.00
H1175  H     0.33918   0.79478   0.88180   0.00000  Uiso   1.00
H1176  H     0.41028   0.78833   0.57393   0.00000  Uiso   1.00
H1177  H     0.58508   0.89437   0.93034   0.00000  Uiso   1.00
H1178  H     0.56889   0.68000   0.75566   0.00000  Uiso   1.00
N1179  N     0.64839   0.84735   0.76212   0.00000  Uiso   1.00
N1180  N     0.35161   0.81932   0.73788   0.00000  Uiso   1.00
O1181  O     0.46148   0.90476   0.74686   0.00000  Uiso   1.00
O1182  O     0.35485   0.94066   0.54503   0.00000  Uiso   1.00
O1183  O     0.53852   0.76191   0.75314   0.00000  Uiso   1.00
O1184  O     0.56163   0.91420   0.75502   0.00000  Uiso   1.00
O1185  O     0.43837   0.75247   0.74497   0.00000  Uiso   1.00
O1186  O     0.42185   0.82597   0.80854   0.00000  Uiso   1.00
O1187  O     0.57815   0.84070   0.69145   0.00000  Uiso   1.00
O1188  O     0.52199   0.83540   0.81671   0.00000  Uiso   1.00
O1189  O     0.47801   0.83126   0.68329   0.00000  Uiso   1.00
O1190  O     0.62529   0.77098   0.96561   0.00000  Uiso   1.00
C1191  C     0.84842   0.93342   0.75129   0.00000  Uiso   1.00
C1192  C     0.87209   0.83765   0.66690   0.00000  Uiso   1.00
C1193  C     0.77135   0.82445   0.88117   0.00000  Uiso   1.00
C1194  C     0.89625   0.84665   0.61974   0.00000  Uiso   1.00
C1195  C     0.68883   0.79096   0.94579   0.00000  Uiso   1.00
C1196  C     0.97077   0.89849   0.55959   0.00000  Uiso   1.00
C1197  C     0.70751   0.80349   0.90110   0.00000  Uiso   1.00
C1198  C     0.95272   0.88345   0.60368   0.00000  Uiso   1.00
C1199  C     0.81554   0.83762   0.90677   0.00000  Uiso   1.00
C1200  C     0.85682   0.82493   0.59213   0.00000  Uiso   1.00
C1201  C     0.79792   0.82910   0.95210   0.00000  Uiso   1.00
C1202  C     0.81828   0.73325   0.74865   0.00000  Uiso   1.00
C1203  C     0.87002   0.84248   0.54900   0.00000  Uiso   1.00
C1204  C     0.73419   0.80330   0.97123   0.00000  Uiso   1.00
C1205  C     0.92903   0.87814   0.53238   0.00000  Uiso   1.00
C1206  C     0.84249   0.84437   0.97853   0.00000  Uiso   1.00
C1207  C     0.82496   0.82776   0.52280   0.00000  Uiso   1.00
C1208  C     0.93790   0.71924   0.94983   0.00000  Uiso   1.00
C1209  C     0.86995   0.71300   0.94524   0.00000  Uiso   1.00
C1210  C     0.84370   0.99085   0.92950   0.00000  Uiso   1.00
C1211  C     0.74579   0.93342   0.55224   0.00000  Uiso   1.00
C1212  C     0.77839   0.98427   0.57206   0.00000  Uiso   1.00
C1213  C     0.76162   0.80003   0.54021   0.00000  Uiso   1.00
C1214  C     0.84408   0.98103   0.57629   0.00000  Uiso   1.00
C1215  C     0.90294   0.87778   0.96262   0.00000  Uiso   1.00
C1216  C     0.71701   0.78938   0.51527   0.00000  Uiso   1.00
C1217  C     0.94468   0.89471   0.98913   0.00000  Uiso   1.00
C1218  C     0.85691   0.98942   0.75191   0.00000  Uiso   1.00
C1219  C     0.80983   0.67724   0.74794   0.00000  Uiso   1.00
C1220  C     0.79466   0.82954   0.83327   0.00000  Uiso   1.00
Cu1221 Cu    0.77404   0.82775   0.74516   0.00000  Uiso   1.00
Cu1222 Cu    0.89263   0.83892   0.75483   0.00000  Uiso   1.00
H1223  H     0.66876   0.76944   0.53070   0.00000  Uiso   1.00
H1224  H     0.76452   0.98666   0.74418   0.00000  Uiso   1.00
H1225  H     0.66798   0.87179   0.78453   0.00000  Uiso   1.00
H1226  H     0.99869   0.79487   0.71547   0.00000  Uiso   1.00
H1227  H     0.93827   0.69064   0.97416   0.00000  Uiso   1.00
H1228  H     0.96810   0.70900   0.91760   0.00000  Uiso   1.00
H1229  H     0.83868   0.72127   0.97741   0.00000  Uiso   1.00
H1230  H     0.86949   0.74203   0.92130   0.00000  Uiso   1.00
H1231  H     0.87294   0.98233   0.89661   0.00000  Uiso   1.00
H1232  H     0.79403   0.98757   0.92730   0.00000  Uiso   1.00
H1233  H     0.84372   0.96120   0.95292   0.00000  Uiso   1.00
H1234  H     0.98953   0.92152   0.97544   0.00000  Uiso   1.00
H1235  H     0.77683   0.92546   0.51998   0.00000  Uiso   1.00
H1236  H     0.74073   0.89979   0.57367   0.00000  Uiso   1.00
H1237  H     0.78348   0.68479   0.55098   0.00000  Uiso   1.00
H1238  H     0.74840   0.99154   0.60504   0.00000  Uiso   1.00
H1239  H     0.86629   0.68521   0.59075   0.00000  Uiso   1.00
H1240  H     0.87515   0.97484   0.54351   0.00000  Uiso   1.00
H1241  H     0.84015   0.94804   0.59793   0.00000  Uiso   1.00
H1242  H     0.81501   0.79537   0.60585   0.00000  Uiso   1.00
H1243  H     0.86448   0.85248   0.89011   0.00000  Uiso   1.00
H1244  H     0.98066   0.90298   0.62610   0.00000  Uiso   1.00
H1245  H     0.67251   0.79478   0.88180   0.00000  Uiso   1.00
H1246  H     0.74361   0.78833   0.57393   0.00000  Uiso   1.00
H1247  H     0.91841   0.89437   0.93034   0.00000  Uiso   1.00
H1248  H     0.90223   0.68000   0.75566   0.00000  Uiso   1.00
N1249  N     0.98173   0.84735   0.76212   0.00000  Uiso   1.00
N1250  N     0.68494   0.81932   0.73788   0.00000  Uiso   1.00
O1251  O     0.79482   0.90476   0.74686   0.00000  Uiso   1.00
O1252  O     0.68818   0.94066   0.54503   0.00000  Uiso   1.00
O1253  O     0.87185   0.76191   0.75314   0.00000  Uiso   1.00
O1254  O     0.89496   0.91420   0.75502   0.00000  Uiso   1.00
O1255  O     0.77171   0.75247   0.74497   0.00000  Uiso   1.00
O1256  O     0.75518   0.82597   0.80854   0.00000  Uiso   1.00
O1257  O     0.91149   0.84070   0.69145   0.00000  Uiso   1.00
O1258  O     0.85532   0.83540   0.81671   0.00000  Uiso   1.00
O1259  O     0.81134   0.83126   0.68329   0.00000  Uiso   1.00
O1260  O     0.95862   0.77098   0.96561   0.00000  Uiso   1.00
loop_
_geom_bond_atom_site_label_1
_geom_bond_atom_site_label_2
_geom_bond_distance
_geom_bond_site_symmetry_2
_ccdc_geom_bond_type
C1     C28     1.425   .     S
C1     O64     1.285   .     A
C1     O61     1.290   .     A
C2     C4      1.463   .     S
C2     O69     1.295   .     A
C2     O67     1.299   .     A
C3     C9      1.398   .     A
C3     C30     1.472   .     S
C3     C7      1.397   .     A
C4     C8      1.396   .     A
C4     C10     1.394   .     A
C5     C14     1.414   .     A
C5     C7      1.405   .     A
C5     O210    1.386   1_455 S
C6     C8      1.405   .     A
C6     C15     1.414   .     A
C6     O132    1.390   .     S
C7     H55     1.083   .     S
C8     H54     1.083   .     S
C9     C11     1.403   .     A
C9     H53     1.076   .     S
C10    H52     1.077   .     S
C10    C13     1.405   .     A
C11    C14     1.419   .     A
C11    C16     1.427   .     A
C12    C29     1.425   .     S
C12    O65     1.285   .     A
C12    O63     1.290   .     A
C13    C17     1.429   .     A
C13    C15     1.422   .     A
C14    C656    1.395   .     S
C15    C657    1.394   1_554 S
C16    C25     1.415   .     A
C16    C647    1.422   .     S
C17    C23     1.417   .     A
C17    C646    1.422   1_554 S
C18    O70     1.416   .     S
C18    H38     1.116   .     S
C18    H37     1.111   .     S
C18    C19     1.529   .     S
C19    H39     1.111   .     S
C19    H40     1.111   .     S
C19    C440    1.525   1_545 S
C20    H42     1.110   .     S
C20    H41     1.111   .     S
C20    H43     1.108   .     S
C20    C229    1.525   .     S
C21    C22     1.529   .     S
C21    H46     1.114   .     S
C21    O62     1.416   .     S
C21    H45     1.108   .     S
C22    H48     1.111   .     S
C22    C24     1.526   .     S
C22    H257    1.111   .     S
C23    H56     1.076   .     S
C23    C26     1.389   .     A
C24    H51     1.111   .     S
C24    H50     1.110   .     S
C24    H259    1.110   .     S
C25    C27     1.385   .     A
C25    H57     1.077   .     S
C26    H33     1.084   .     S
C26    C644    1.395   1_554 S
C27    H44     1.084   .     S
C27    C645    1.394   .     S
C28    C239    1.328   .     S
C28    H268    1.088   .     S
C29    C448    1.328   1_545 S
C29    H454    1.088   1_545 S
C30    O66     1.303   .     A
C30    O68     1.295   .     A
Cu31   N60     2.018   .     S
Cu31   O61     1.950   .     S
Cu31   Cu32    2.686   .     S
Cu31   O69     1.915   .     S
Cu31   O65     1.947   .     S
Cu31   O66     1.937   .     S
Cu32   O68     1.915   .     S
Cu32   O67     1.937   .     S
Cu32   O64     1.947   .     S
Cu32   N59     2.018   .     S
Cu32   O63     1.950   .     S
H34    C239    1.088   .     S
H35    N199    1.029   1_455 S
H36    N130    1.029   .     S
H47    C442    1.111   1_545 S
H49    C444    1.110   1_545 S
H58    C448    1.088   1_545 S
N59    H105    1.029   .     S
N59    N130    1.283   .     S
N60    H176    1.029   1_455 S
N60    N199    1.283   1_455 S
O62    C146    1.390   1_455 S
O70    C75     1.386   .     S
C71    C98     1.425   .     S
C71    O134    1.285   .     A
C71    O131    1.290   .     A
C72    C74     1.463   .     S
C72    O139    1.295   .     A
C72    O137    1.299   .     A
C73    C79     1.398   .     A
C73    C100    1.472   .     S
C73    C77     1.397   .     A
C74    C78     1.396   .     A
C74    C80     1.394   .     A
C75    C84     1.414   .     A
C75    C77     1.405   .     A
C76    C78     1.405   .     A
C76    C85     1.414   .     A
C76    O202    1.390   .     S
C77    H125    1.083   .     S
C78    H124    1.083   .     S
C79    C81     1.403   .     A
C79    H123    1.076   .     S
C80    H122    1.077   .     S
C80    C83     1.405   .     A
C81    C84     1.419   .     A
C81    C86     1.427   .     A
C82    C99     1.425   .     S
C82    O135    1.285   .     A
C82    O133    1.290   .     A
C83    C87     1.429   .     A
C83    C85     1.422   .     A
C84    C726    1.395   .     S
C85    C727    1.394   1_554 S
C86    C95     1.415   .     A
C86    C717    1.422   .     S
C87    C93     1.417   .     A
C87    C716    1.422   1_554 S
C88    O140    1.416   .     S
C88    H108    1.116   .     S
C88    H107    1.111   .     S
C88    C89     1.529   .     S
C89    H109    1.111   .     S
C89    H110    1.111   .     S
C89    C510    1.525   1_545 S
C90    H112    1.110   .     S
C90    H111    1.111   .     S
C90    H113    1.108   .     S
C90    C299    1.525   .     S
C91    C92     1.529   .     S
C91    H116    1.114   .     S
C91    O132    1.416   .     S
C91    H115    1.108   .     S
C92    H118    1.111   .     S
C92    C94     1.526   .     S
C92    H327    1.111   .     S
C93    H126    1.076   .     S
C93    C96     1.389   .     A
C94    H121    1.111   .     S
C94    H120    1.110   .     S
C94    H329    1.110   .     S
C95    C97     1.385   .     A
C95    H127    1.077   .     S
C96    H103    1.084   .     S
C96    C714    1.395   1_554 S
C97    H114    1.084   .     S
C97    C715    1.394   .     S
C98    C309    1.328   .     S
C98    H338    1.088   .     S
C99    C518    1.328   1_545 S
C99    H524    1.088   1_545 S
C100   O136    1.303   .     A
C100   O138    1.295   .     A
Cu101  N130    2.018   .     S
Cu101  O131    1.950   .     S
Cu101  Cu102   2.686   .     S
Cu101  O139    1.915   .     S
Cu101  O135    1.947   .     S
Cu101  O136    1.937   .     S
Cu102  O138    1.915   .     S
Cu102  O137    1.937   .     S
Cu102  O134    1.947   .     S
Cu102  N129    2.018   .     S
Cu102  O133    1.950   .     S
H104   C309    1.088   .     S
H106   N200    1.029   .     S
H117   C512    1.111   1_545 S
H119   C514    1.110   1_545 S
H128   C518    1.088   1_545 S
N129   H175    1.029   .     S
N129   N200    1.283   .     S
O140   C145    1.386   .     S
C141   C168    1.425   .     S
C141   O204    1.285   .     A
C141   O201    1.290   .     A
C142   C144    1.463   .     S
C142   O209    1.295   .     A
C142   O207    1.299   .     A
C143   C149    1.398   .     A
C143   C170    1.472   .     S
C143   C147    1.397   .     A
C144   C148    1.396   .     A
C144   C150    1.394   .     A
C145   C154    1.414   .     A
C145   C147    1.405   .     A
C146   C148    1.405   .     A
C146   C155    1.414   .     A
C146   O62     1.390   1_655 S
C147   H195    1.083   .     S
C148   H194    1.083   .     S
C149   C151    1.403   .     A
C149   H193    1.076   .     S
C150   H192    1.077   .     S
C150   C153    1.405   .     A
C151   C154    1.419   .     A
C151   C156    1.427   .     A
C152   C169    1.425   .     S
C152   O205    1.285   .     A
C152   O203    1.290   .     A
C153   C157    1.429   .     A
C153   C155    1.422   .     A
C154   C796    1.395   .     S
C155   C797    1.394   1_554 S
C156   C165    1.415   .     A
C156   C787    1.422   .     S
C157   C163    1.417   .     A
C157   C786    1.422   1_554 S
C158   O210    1.416   .     S
C158   H178    1.116   .     S
C158   H177    1.111   .     S
C158   C159    1.529   .     S
C159   H179    1.111   .     S
C159   H180    1.111   .     S
C159   C580    1.525   1_545 S
C160   H182    1.110   .     S
C160   H181    1.111   .     S
C160   H183    1.108   .     S
C160   C369    1.525   .     S
C161   C162    1.529   .     S
C161   H186    1.114   .     S
C161   O202    1.416   .     S
C161   H185    1.108   .     S
C162   H188    1.111   .     S
C162   C164    1.526   .     S
C162   H397    1.111   .     S
C163   H196    1.076   .     S
C163   C166    1.389   .     A
C164   H191    1.111   .     S
C164   H190    1.110   .     S
C164   H399    1.110   .     S
C165   C167    1.385   .     A
C165   H197    1.077   .     S
C166   H173    1.084   .     S
C166   C784    1.395   1_554 S
C167   H184    1.084   .     S
C167   C785    1.394   .     S
C168   C379    1.328   .     S
C168   H408    1.088   .     S
C169   C588    1.328   1_545 S
C169   H594    1.088   1_545 S
C170   O206    1.303   .     A
C170   O208    1.295   .     A
Cu171  N200    2.018   .     S
Cu171  O201    1.950   .     S
Cu171  Cu172   2.686   .     S
Cu171  O209    1.915   .     S
Cu171  O205    1.947   .     S
Cu171  O206    1.937   .     S
Cu172  O208    1.915   .     S
Cu172  O207    1.937   .     S
Cu172  O204    1.947   .     S
Cu172  N199    2.018   .     S
Cu172  O203    1.950   .     S
H174   C379    1.088   .     S
H176   N60     1.029   1_655 S
H187   C582    1.111   1_545 S
H189   C584    1.110   1_545 S
H198   C588    1.088   1_545 S
N199   H35     1.029   1_655 S
N199   N60     1.283   1_655 S
O210   C5      1.386   1_655 S
C211   C238    1.425   .     S
C211   O274    1.285   .     A
C211   O271    1.290   .     A
C212   C214    1.463   .     S
C212   O279    1.295   .     A
C212   O277    1.299   .     A
C213   C219    1.398   .     A
C213   C240    1.472   .     S
C213   C217    1.397   .     A
C214   C218    1.396   .     A
C214   C220    1.394   .     A
C215   C224    1.414   .     A
C215   C217    1.405   .     A
C215   O420    1.386   1_455 S
C216   C218    1.405   .     A
C216   C225    1.414   .     A
C216   O342    1.390   .     S
C217   H265    1.083   .     S
C218   H264    1.083   .     S
C219   C221    1.403   .     A
C219   H263    1.076   .     S
C220   H262    1.077   .     S
C220   C223    1.405   .     A
C221   C224    1.419   .     A
C221   C226    1.427   .     A
C222   C239    1.425   .     S
C222   O275    1.285   .     A
C222   O273    1.290   .     A
C223   C227    1.429   .     A
C223   C225    1.422   .     A
C224   C866    1.395   .     S
C225   C867    1.394   1_554 S
C226   C235    1.415   .     A
C226   C857    1.422   .     S
C227   C233    1.417   .     A
C227   C856    1.422   1_554 S
C228   O280    1.416   .     S
C228   H248    1.116   .     S
C228   H247    1.111   .     S
C228   C229    1.529   .     S
C229   H249    1.111   .     S
C229   H250    1.111   .     S
C230   H252    1.110   .     S
C230   H251    1.111   .     S
C230   H253    1.108   .     S
C230   C439    1.525   .     S
C231   C232    1.529   .     S
C231   H256    1.114   .     S
C231   O272    1.416   .     S
C231   H255    1.108   .     S
C232   H258    1.111   .     S
C232   C234    1.526   .     S
C232   H467    1.111   .     S
C233   H266    1.076   .     S
C233   C236    1.389   .     A
C234   H261    1.111   .     S
C234   H260    1.110   .     S
C234   H469    1.110   .     S
C235   C237    1.385   .     A
C235   H267    1.077   .     S
C236   H243    1.084   .     S
C236   C854    1.395   1_554 S
C237   H254    1.084   .     S
C237   C855    1.394   .     S
C238   C449    1.328   .     S
C238   H478    1.088   .     S
C240   O276    1.303   .     A
C240   O278    1.295   .     A
Cu241  N270    2.018   .     S
Cu241  O271    1.950   .     S
Cu241  Cu242   2.686   .     S
Cu241  O279    1.915   .     S
Cu241  O275    1.947   .     S
Cu241  O276    1.937   .     S
Cu242  O278    1.915   .     S
Cu242  O277    1.937   .     S
Cu242  O274    1.947   .     S
Cu242  N269    2.018   .     S
Cu242  O273    1.950   .     S
H244   C449    1.088   .     S
H245   N409    1.029   1_455 S
H246   N340    1.029   .     S
N269   H315    1.029   .     S
N269   N340    1.283   .     S
N270   H386    1.029   1_455 S
N270   N409    1.283   1_455 S
O272   C356    1.390   1_455 S
O280   C285    1.386   .     S
C281   C308    1.425   .     S
C281   O344    1.285   .     A
C281   O341    1.290   .     A
C282   C284    1.463   .     S
C282   O349    1.295   .     A
C282   O347    1.299   .     A
C283   C289    1.398   .     A
C283   C310    1.472   .     S
C283   C287    1.397   .     A
C284   C288    1.396   .     A
C284   C290    1.394   .     A
C285   C294    1.414   .     A
C285   C287    1.405   .     A
C286   C288    1.405   .     A
C286   C295    1.414   .     A
C286   O412    1.390   .     S
C287   H335    1.083   .     S
C288   H334    1.083   .     S
C289   C291    1.403   .     A
C289   H333    1.076   .     S
C290   H332    1.077   .     S
C290   C293    1.405   .     A
C291   C294    1.419   .     A
C291   C296    1.427   .     A
C292   C309    1.425   .     S
C292   O345    1.285   .     A
C292   O343    1.290   .     A
C293   C297    1.429   .     A
C293   C295    1.422   .     A
C294   C936    1.395   .     S
C295   C937    1.394   1_554 S
C296   C305    1.415   .     A
C296   C927    1.422   .     S
C297   C303    1.417   .     A
C297   C926    1.422   1_554 S
C298   O350    1.416   .     S
C298   H318    1.116   .     S
C298   H317    1.111   .     S
C298   C299    1.529   .     S
C299   H319    1.111   .     S
C299   H320    1.111   .     S
C300   H322    1.110   .     S
C300   H321    1.111   .     S
C300   H323    1.108   .     S
C300   C509    1.525   .     S
C301   C302    1.529   .     S
C301   H326    1.114   .     S
C301   O342    1.416   .     S
C301   H325    1.108   .     S
C302   H328    1.111   .     S
C302   C304    1.526   .     S
C302   H537    1.111   .     S
C303   H336    1.076   .     S
C303   C306    1.389   .     A
C304   H331    1.111   .     S
C304   H330    1.110   .     S
C304   H539    1.110   .     S
C305   C307    1.385   .     A
C305   H337    1.077   .     S
C306   H313    1.084   .     S
C306   C924    1.395   1_554 S
C307   H324    1.084   .     S
C307   C925    1.394   .     S
C308   C519    1.328   .     S
C308   H548    1.088   .     S
C310   O346    1.303   .     A
C310   O348    1.295   .     A
Cu311  N340    2.018   .     S
Cu311  O341    1.950   .     S
Cu311  Cu312   2.686   .     S
Cu311  O349    1.915   .     S
Cu311  O345    1.947   .     S
Cu311  O346    1.937   .     S
Cu312  O348    1.915   .     S
Cu312  O347    1.937   .     S
Cu312  O344    1.947   .     S
Cu312  N339    2.018   .     S
Cu312  O343    1.950   .     S
H314   C519    1.088   .     S
H316   N410    1.029   .     S
N339   H385    1.029   .     S
N339   N410    1.283   .     S
O350   C355    1.386   .     S
C351   C378    1.425   .     S
C351   O414    1.285   .     A
C351   O411    1.290   .     A
C352   C354    1.463   .     S
C352   O419    1.295   .     A
C352   O417    1.299   .     A
C353   C359    1.398   .     A
C353   C380    1.472   .     S
C353   C357    1.397   .     A
C354   C358    1.396   .     A
C354   C360    1.394   .     A
C355   C364    1.414   .     A
C355   C357    1.405   .     A
C356   C358    1.405   .     A
C356   C365    1.414   .     A
C356   O272    1.390   1_655 S
C357   H405    1.083   .     S
C358   H404    1.083   .     S
C359   C361    1.403   .     A
C359   H403    1.076   .     S
C360   H402    1.077   .     S
C360   C363    1.405   .     A
C361   C364    1.419   .     A
C361   C366    1.427   .     A
C362   C379    1.425   .     S
C362   O415    1.285   .     A
C362   O413    1.290   .     A
C363   C367    1.429   .     A
C363   C365    1.422   .     A
C364   C1006   1.395   .     S
C365   C1007   1.394   1_554 S
C366   C375    1.415   .     A
C366   C997    1.422   .     S
C367   C373    1.417   .     A
C367   C996    1.422   1_554 S
C368   O420    1.416   .     S
C368   H388    1.116   .     S
C368   H387    1.111   .     S
C368   C369    1.529   .     S
C369   H389    1.111   .     S
C369   H390    1.111   .     S
C370   H392    1.110   .     S
C370   H391    1.111   .     S
C370   H393    1.108   .     S
C370   C579    1.525   .     S
C371   C372    1.529   .     S
C371   H396    1.114   .     S
C371   O412    1.416   .     S
C371   H395    1.108   .     S
C372   H398    1.111   .     S
C372   C374    1.526   .     S
C372   H607    1.111   .     S
C373   H406    1.076   .     S
C373   C376    1.389   .     A
C374   H401    1.111   .     S
C374   H400    1.110   .     S
C374   H609    1.110   .     S
C375   C377    1.385   .     A
C375   H407    1.077   .     S
C376   H383    1.084   .     S
C376   C994    1.395   1_554 S
C377   H394    1.084   .     S
C377   C995    1.394   .     S
C378   C589    1.328   .     S
C378   H618    1.088   .     S
C380   O416    1.303   .     A
C380   O418    1.295   .     A
Cu381  N410    2.018   .     S
Cu381  O411    1.950   .     S
Cu381  Cu382   2.686   .     S
Cu381  O419    1.915   .     S
Cu381  O415    1.947   .     S
Cu381  O416    1.937   .     S
Cu382  O418    1.915   .     S
Cu382  O417    1.937   .     S
Cu382  O414    1.947   .     S
Cu382  N409    2.018   .     S
Cu382  O413    1.950   .     S
H384   C589    1.088   .     S
H386   N270    1.029   1_655 S
N409   H245    1.029   1_655 S
N409   N270    1.283   1_655 S
O420   C215    1.386   1_655 S
C421   C448    1.425   .     S
C421   O484    1.285   .     A
C421   O481    1.290   .     A
C422   C424    1.463   .     S
C422   O489    1.295   .     A
C422   O487    1.299   .     A
C423   C429    1.398   .     A
C423   C450    1.472   .     S
C423   C427    1.397   .     A
C424   C428    1.396   .     A
C424   C430    1.394   .     A
C425   C434    1.414   .     A
C425   C427    1.405   .     A
C425   O630    1.386   1_455 S
C426   C428    1.405   .     A
C426   C435    1.414   .     A
C426   O552    1.390   .     S
C427   H475    1.083   .     S
C428   H474    1.083   .     S
C429   C431    1.403   .     A
C429   H473    1.076   .     S
C430   H472    1.077   .     S
C430   C433    1.405   .     A
C431   C434    1.419   .     A
C431   C436    1.427   .     A
C432   C449    1.425   .     S
C432   O485    1.285   .     A
C432   O483    1.290   .     A
C433   C437    1.429   .     A
C433   C435    1.422   .     A
C434   C1076   1.395   .     S
C435   C1077   1.394   1_554 S
C436   C445    1.415   .     A
C436   C1067   1.422   .     S
C437   C443    1.417   .     A
C437   C1066   1.422   1_554 S
C438   O490    1.416   .     S
C438   H458    1.116   .     S
C438   H457    1.111   .     S
C438   C439    1.529   .     S
C439   H459    1.111   .     S
C439   H460    1.111   .     S
C440   H462    1.110   .     S
C440   H461    1.111   .     S
C440   H463    1.108   .     S
C440   C19     1.525   1_565 S
C441   C442    1.529   .     S
C441   H466    1.114   .     S
C441   O482    1.416   .     S
C441   H465    1.108   .     S
C442   H468    1.111   .     S
C442   C444    1.526   .     S
C442   H47     1.111   1_565 S
C443   H476    1.076   .     S
C443   C446    1.389   .     A
C444   H471    1.111   .     S
C444   H470    1.110   .     S
C444   H49     1.110   1_565 S
C445   C447    1.385   .     A
C445   H477    1.077   .     S
C446   H453    1.084   .     S
C446   C1064   1.395   1_554 S
C447   H464    1.084   .     S
C447   C1065   1.394   .     S
C448   C29     1.328   1_565 S
C448   H58     1.088   1_565 S
C450   O486    1.303   .     A
C450   O488    1.295   .     A
Cu451  N480    2.018   .     S
Cu451  O481    1.950   .     S
Cu451  Cu452   2.686   .     S
Cu451  O489    1.915   .     S
Cu451  O485    1.947   .     S
Cu451  O486    1.937   .     S
Cu452  O488    1.915   .     S
Cu452  O487    1.937   .     S
Cu452  O484    1.947   .     S
Cu452  N479    2.018   .     S
Cu452  O483    1.950   .     S
H454   C29     1.088   1_565 S
H455   N619    1.029   1_455 S
H456   N550    1.029   .     S
N479   H525    1.029   .     S
N479   N550    1.283   .     S
N480   H596    1.029   1_455 S
N480   N619    1.283   1_455 S
O482   C566    1.390   1_455 S
O490   C495    1.386   .     S
C491   C518    1.425   .     S
C491   O554    1.285   .     A
C491   O551    1.290   .     A
C492   C494    1.463   .     S
C492   O559    1.295   .     A
C492   O557    1.299   .     A
C493   C499    1.398   .     A
C493   C520    1.472   .     S
C493   C497    1.397   .     A
C494   C498    1.396   .     A
C494   C500    1.394   .     A
C495   C504    1.414   .     A
C495   C497    1.405   .     A
C496   C498    1.405   .     A
C496   C505    1.414   .     A
C496   O622    1.390   .     S
C497   H545    1.083   .     S
C498   H544    1.083   .     S
C499   C501    1.403   .     A
C499   H543    1.076   .     S
C500   H542    1.077   .     S
C500   C503    1.405   .     A
C501   C504    1.419   .     A
C501   C506    1.427   .     A
C502   C519    1.425   .     S
C502   O555    1.285   .     A
C502   O553    1.290   .     A
C503   C507    1.429   .     A
C503   C505    1.422   .     A
C504   C1146   1.395   .     S
C505   C1147   1.394   1_554 S
C506   C515    1.415   .     A
C506   C1137   1.422   .     S
C507   C513    1.417   .     A
C507   C1136   1.422   1_554 S
C508   O560    1.416   .     S
C508   H528    1.116   .     S
C508   H527    1.111   .     S
C508   C509    1.529   .     S
C509   H529    1.111   .     S
C509   H530    1.111   .     S
C510   H532    1.110   .     S
C510   H531    1.111   .     S
C510   H533    1.108   .     S
C510   C89     1.525   1_565 S
C511   C512    1.529   .     S
C511   H536    1.114   .     S
C511   O552    1.416   .     S
C511   H535    1.108   .     S
C512   H538    1.111   .     S
C512   C514    1.526   .     S
C512   H117    1.111   1_565 S
C513   H546    1.076   .     S
C513   C516    1.389   .     A
C514   H541    1.111   .     S
C514   H540    1.110   .     S
C514   H119    1.110   1_565 S
C515   C517    1.385   .     A
C515   H547    1.077   .     S
C516   H523    1.084   .     S
C516   C1134   1.395   1_554 S
C517   H534    1.084   .     S
C517   C1135   1.394   .     S
C518   C99     1.328   1_565 S
C518   H128    1.088   1_565 S
C520   O556    1.303   .     A
C520   O558    1.295   .     A
Cu521  N550    2.018   .     S
Cu521  O551    1.950   .     S
Cu521  Cu522   2.686   .     S
Cu521  O559    1.915   .     S
Cu521  O555    1.947   .     S
Cu521  O556    1.937   .     S
Cu522  O558    1.915   .     S
Cu522  O557    1.937   .     S
Cu522  O554    1.947   .     S
Cu522  N549    2.018   .     S
Cu522  O553    1.950   .     S
H524   C99     1.088   1_565 S
H526   N620    1.029   .     S
N549   H595    1.029   .     S
N549   N620    1.283   .     S
O560   C565    1.386   .     S
C561   C588    1.425   .     S
C561   O624    1.285   .     A
C561   O621    1.290   .     A
C562   C564    1.463   .     S
C562   O629    1.295   .     A
C562   O627    1.299   .     A
C563   C569    1.398   .     A
C563   C590    1.472   .     S
C563   C567    1.397   .     A
C564   C568    1.396   .     A
C564   C570    1.394   .     A
C565   C574    1.414   .     A
C565   C567    1.405   .     A
C566   C568    1.405   .     A
C566   C575    1.414   .     A
C566   O482    1.390   1_655 S
C567   H615    1.083   .     S
C568   H614    1.083   .     S
C569   C571    1.403   .     A
C569   H613    1.076   .     S
C570   H612    1.077   .     S
C570   C573    1.405   .     A
C571   C574    1.419   .     A
C571   C576    1.427   .     A
C572   C589    1.425   .     S
C572   O625    1.285   .     A
C572   O623    1.290   .     A
C573   C577    1.429   .     A
C573   C575    1.422   .     A
C574   C1216   1.395   .     S
C575   C1217   1.394   1_554 S
C576   C585    1.415   .     A
C576   C1207   1.422   .     S
C577   C583    1.417   .     A
C577   C1206   1.422   1_554 S
C578   O630    1.416   .     S
C578   H598    1.116   .     S
C578   H597    1.111   .     S
C578   C579    1.529   .     S
C579   H599    1.111   .     S
C579   H600    1.111   .     S
C580   H602    1.110   .     S
C580   H601    1.111   .     S
C580   H603    1.108   .     S
C580   C159    1.525   1_565 S
C581   C582    1.529   .     S
C581   H606    1.114   .     S
C581   O622    1.416   .     S
C581   H605    1.108   .     S
C582   H608    1.111   .     S
C582   C584    1.526   .     S
C582   H187    1.111   1_565 S
C583   H616    1.076   .     S
C583   C586    1.389   .     A
C584   H611    1.111   .     S
C584   H610    1.110   .     S
C584   H189    1.110   1_565 S
C585   C587    1.385   .     A
C585   H617    1.077   .     S
C586   H593    1.084   .     S
C586   C1204   1.395   1_554 S
C587   H604    1.084   .     S
C587   C1205   1.394   .     S
C588   C169    1.328   1_565 S
C588   H198    1.088   1_565 S
C590   O626    1.303   .     A
C590   O628    1.295   .     A
Cu591  N620    2.018   .     S
Cu591  O621    1.950   .     S
Cu591  Cu592   2.686   .     S
Cu591  O629    1.915   .     S
Cu591  O625    1.947   .     S
Cu591  O626    1.937   .     S
Cu592  O628    1.915   .     S
Cu592  O627    1.937   .     S
Cu592  O624    1.947   .     S
Cu592  N619    2.018   .     S
Cu592  O623    1.950   .     S
H594   C169    1.088   1_565 S
H596   N480    1.029   1_655 S
N619   H455    1.029   1_655 S
N619   N480    1.283   1_655 S
O630   C425    1.386   1_655 S
C631   C658    1.425   .     S
C631   O694    1.285   .     A
C631   O691    1.290   .     A
C632   C634    1.463   .     S
C632   O699    1.295   .     A
C632   O697    1.299   .     A
C633   C639    1.398   .     A
C633   C660    1.472   .     S
C633   C637    1.397   .     A
C634   C638    1.396   .     A
C634   C640    1.394   .     A
C635   C644    1.414   .     A
C635   C637    1.405   .     A
C635   O840    1.386   1_455 S
C636   C638    1.405   .     A
C636   C645    1.414   .     A
C636   O762    1.390   .     S
C637   H685    1.083   .     S
C638   H684    1.083   .     S
C639   C641    1.403   .     A
C639   H683    1.076   .     S
C640   H682    1.077   .     S
C640   C643    1.405   .     A
C641   C644    1.419   .     A
C641   C646    1.427   .     A
C642   C659    1.425   .     S
C642   O695    1.285   .     A
C642   O693    1.290   .     A
C643   C647    1.429   .     A
C643   C645    1.422   .     A
C644   C26     1.395   1_556 S
C646   C655    1.415   .     A
C646   C17     1.422   1_556 S
C647   C653    1.417   .     A
C648   O700    1.416   .     S
C648   H668    1.116   .     S
C648   H667    1.111   .     S
C648   C649    1.529   .     S
C649   H669    1.111   .     S
C649   H670    1.111   .     S
C649   C1070   1.525   1_545 S
C650   H672    1.110   .     S
C650   H671    1.111   .     S
C650   H673    1.108   .     S
C650   C859    1.525   .     S
C651   C652    1.529   .     S
C651   H676    1.114   .     S
C651   O692    1.416   .     S
C651   H675    1.108   .     S
C652   H678    1.111   .     S
C652   C654    1.526   .     S
C652   H887    1.111   .     S
C653   H686    1.076   .     S
C653   C656    1.389   .     A
C654   H681    1.111   .     S
C654   H680    1.110   .     S
C654   H889    1.110   .     S
C655   C657    1.385   .     A
C655   H687    1.077   .     S
C656   H663    1.084   .     S
C657   H674    1.084   .     S
C657   C15     1.394   1_556 S
C658   C869    1.328   .     S
C658   H898    1.088   .     S
C659   C1078   1.328   1_545 S
C659   H1084   1.088   1_545 S
C660   O696    1.303   .     A
C660   O698    1.295   .     A
Cu661  N690    2.018   .     S
Cu661  O691    1.950   .     S
Cu661  Cu662   2.686   .     S
Cu661  O699    1.915   .     S
Cu661  O695    1.947   .     S
Cu661  O696    1.937   .     S
Cu662  O698    1.915   .     S
Cu662  O697    1.937   .     S
Cu662  O694    1.947   .     S
Cu662  N689    2.018   .     S
Cu662  O693    1.950   .     S
H664   C869    1.088   .     S
H665   N829    1.029   1_455 S
H666   N760    1.029   .     S
H677   C1072   1.111   1_545 S
H679   C1074   1.110   1_545 S
H688   C1078   1.088   1_545 S
N689   H735    1.029   .     S
N689   N760    1.283   .     S
N690   H806    1.029   1_455 S
N690   N829    1.283   1_455 S
O692   C776    1.390   1_455 S
O700   C705    1.386   .     S
C701   C728    1.425   .     S
C701   O764    1.285   .     A
C701   O761    1.290   .     A
C702   C704    1.463   .     S
C702   O769    1.295   .     A
C702   O767    1.299   .     A
C703   C709    1.398   .     A
C703   C730    1.472   .     S
C703   C707    1.397   .     A
C704   C708    1.396   .     A
C704   C710    1.394   .     A
C705   C714    1.414   .     A
C705   C707    1.405   .     A
C706   C708    1.405   .     A
C706   C715    1.414   .     A
C706   O832    1.390   .     S
C707   H755    1.083   .     S
C708   H754    1.083   .     S
C709   C711    1.403   .     A
C709   H753    1.076   .     S
C710   H752    1.077   .     S
C710   C713    1.405   .     A
C711   C714    1.419   .     A
C711   C716    1.427   .     A
C712   C729    1.425   .     S
C712   O765    1.285   .     A
C712   O763    1.290   .     A
C713   C717    1.429   .     A
C713   C715    1.422   .     A
C714   C96     1.395   1_556 S
C716   C725    1.415   .     A
C716   C87     1.422   1_556 S
C717   C723    1.417   .     A
C718   O770    1.416   .     S
C718   H738    1.116   .     S
C718   H737    1.111   .     S
C718   C719    1.529   .     S
C719   H739    1.111   .     S
C719   H740    1.111   .     S
C719   C1140   1.525   1_545 S
C720   H742    1.110   .     S
C720   H741    1.111   .     S
C720   H743    1.108   .     S
C720   C929    1.525   .     S
C721   C722    1.529   .     S
C721   H746    1.114   .     S
C721   O762    1.416   .     S
C721   H745    1.108   .     S
C722   H748    1.111   .     S
C722   C724    1.526   .     S
C722   H957    1.111   .     S
C723   H756    1.076   .     S
C723   C726    1.389   .     A
C724   H751    1.111   .     S
C724   H750    1.110   .     S
C724   H959    1.110   .     S
C725   C727    1.385   .     A
C725   H757    1.077   .     S
C726   H733    1.084   .     S
C727   H744    1.084   .     S
C727   C85     1.394   1_556 S
C728   C939    1.328   .     S
C728   H968    1.088   .     S
C729   C1148   1.328   1_545 S
C729   H1154   1.088   1_545 S
C730   O766    1.303   .     A
C730   O768    1.295   .     A
Cu731  N760    2.018   .     S
Cu731  O761    1.950   .     S
Cu731  Cu732   2.686   .     S
Cu731  O769    1.915   .     S
Cu731  O765    1.947   .     S
Cu731  O766    1.937   .     S
Cu732  O768    1.915   .     S
Cu732  O767    1.937   .     S
Cu732  O764    1.947   .     S
Cu732  N759    2.018   .     S
Cu732  O763    1.950   .     S
H734   C939    1.088   .     S
H736   N830    1.029   .     S
H747   C1142   1.111   1_545 S
H749   C1144   1.110   1_545 S
H758   C1148   1.088   1_545 S
N759   H805    1.029   .     S
N759   N830    1.283   .     S
O770   C775    1.386   .     S
C771   C798    1.425   .     S
C771   O834    1.285   .     A
C771   O831    1.290   .     A
C772   C774    1.463   .     S
C772   O839    1.295   .     A
C772   O837    1.299   .     A
C773   C779    1.398   .     A
C773   C800    1.472   .     S
C773   C777    1.397   .     A
C774   C778    1.396   .     A
C774   C780    1.394   .     A
C775   C784    1.414   .     A
C775   C777    1.405   .     A
C776   C778    1.405   .     A
C776   C785    1.414   .     A
C776   O692    1.390   1_655 S
C777   H825    1.083   .     S
C778   H824    1.083   .     S
C779   C781    1.403   .     A
C779   H823    1.076   .     S
C780   H822    1.077   .     S
C780   C783    1.405   .     A
C781   C784    1.419   .     A
C781   C786    1.427   .     A
C782   C799    1.425   .     S
C782   O835    1.285   .     A
C782   O833    1.290   .     A
C783   C787    1.429   .     A
C783   C785    1.422   .     A
C784   C166    1.395   1_556 S
C786   C795    1.415   .     A
C786   C157    1.422   1_556 S
C787   C793    1.417   .     A
C788   O840    1.416   .     S
C788   H808    1.116   .     S
C788   H807    1.111   .     S
C788   C789    1.529   .     S
C789   H809    1.111   .     S
C789   H810    1.111   .     S
C789   C1210   1.525   1_545 S
C790   H812    1.110   .     S
C790   H811    1.111   .     S
C790   H813    1.108   .     S
C790   C999    1.525   .     S
C791   C792    1.529   .     S
C791   H816    1.114   .     S
C791   O832    1.416   .     S
C791   H815    1.108   .     S
C792   H818    1.111   .     S
C792   C794    1.526   .     S
C792   H1027   1.111   .     S
C793   H826    1.076   .     S
C793   C796    1.389   .     A
C794   H821    1.111   .     S
C794   H820    1.110   .     S
C794   H1029   1.110   .     S
C795   C797    1.385   .     A
C795   H827    1.077   .     S
C796   H803    1.084   .     S
C797   H814    1.084   .     S
C797   C155    1.394   1_556 S
C798   C1009   1.328   .     S
C798   H1038   1.088   .     S
C799   C1218   1.328   1_545 S
C799   H1224   1.088   1_545 S
C800   O836    1.303   .     A
C800   O838    1.295   .     A
Cu801  N830    2.018   .     S
Cu801  O831    1.950   .     S
Cu801  Cu802   2.686   .     S
Cu801  O839    1.915   .     S
Cu801  O835    1.947   .     S
Cu801  O836    1.937   .     S
Cu802  O838    1.915   .     S
Cu802  O837    1.937   .     S
Cu802  O834    1.947   .     S
Cu802  N829    2.018   .     S
Cu802  O833    1.950   .     S
H804   C1009   1.088   .     S
H806   N690    1.029   1_655 S
H817   C1212   1.111   1_545 S
H819   C1214   1.110   1_545 S
H828   C1218   1.088   1_545 S
N829   H665    1.029   1_655 S
N829   N690    1.283   1_655 S
O840   C635    1.386   1_655 S
C841   C868    1.425   .     S
C841   O904    1.285   .     A
C841   O901    1.290   .     A
C842   C844    1.463   .     S
C842   O909    1.295   .     A
C842   O907    1.299   .     A
C843   C849    1.398   .     A
C843   C870    1.472   .     S
C843   C847    1.397   .     A
C844   C848    1.396   .     A
C844   C850    1.394   .     A
C845   C854    1.414   .     A
C845   C847    1.405   .     A
C845   O1050   1.386   1_455 S
C846   C848    1.405   .     A
C846   C855    1.414   .     A
C846   O972    1.390   .     S
C847   H895    1.083   .     S
C848   H894    1.083   .     S
C849   C851    1.403   .     A
C849   H893    1.076   .     S
C850   H892    1.077   .     S
C850   C853    1.405   .     A
C851   C854    1.419   .     A
C851   C856    1.427   .     A
C852   C869    1.425   .     S
C852   O905    1.285   .     A
C852   O903    1.290   .     A
C853   C857    1.429   .     A
C853   C855    1.422   .     A
C854   C236    1.395   1_556 S
C856   C865    1.415   .     A
C856   C227    1.422   1_556 S
C857   C863    1.417   .     A
C858   O910    1.416   .     S
C858   H878    1.116   .     S
C858   H877    1.111   .     S
C858   C859    1.529   .     S
C859   H879    1.111   .     S
C859   H880    1.111   .     S
C860   H882    1.110   .     S
C860   H881    1.111   .     S
C860   H883    1.108   .     S
C860   C1069   1.525   .     S
C861   C862    1.529   .     S
C861   H886    1.114   .     S
C861   O902    1.416   .     S
C861   H885    1.108   .     S
C862   H888    1.111   .     S
C862   C864    1.526   .     S
C862   H1097   1.111   .     S
C863   H896    1.076   .     S
C863   C866    1.389   .     A
C864   H891    1.111   .     S
C864   H890    1.110   .     S
C864   H1099   1.110   .     S
C865   C867    1.385   .     A
C865   H897    1.077   .     S
C866   H873    1.084   .     S
C867   H884    1.084   .     S
C867   C225    1.394   1_556 S
C868   C1079   1.328   .     S
C868   H1108   1.088   .     S
C870   O906    1.303   .     A
C870   O908    1.295   .     A
Cu871  N900    2.018   .     S
Cu871  O901    1.950   .     S
Cu871  Cu872   2.686   .     S
Cu871  O909    1.915   .     S
Cu871  O905    1.947   .     S
Cu871  O906    1.937   .     S
Cu872  O908    1.915   .     S
Cu872  O907    1.937   .     S
Cu872  O904    1.947   .     S
Cu872  N899    2.018   .     S
Cu872  O903    1.950   .     S
H874   C1079   1.088   .     S
H875   N1039   1.029   1_455 S
H876   N970    1.029   .     S
N899   H945    1.029   .     S
N899   N970    1.283   .     S
N900   H1016   1.029   1_455 S
N900   N1039   1.283   1_455 S
O902   C986    1.390   1_455 S
O910   C915    1.386   .     S
C911   C938    1.425   .     S
C911   O974    1.285   .     A
C911   O971    1.290   .     A
C912   C914    1.463   .     S
C912   O979    1.295   .     A
C912   O977    1.299   .     A
C913   C919    1.398   .     A
C913   C940    1.472   .     S
C913   C917    1.397   .     A
C914   C918    1.396   .     A
C914   C920    1.394   .     A
C915   C924    1.414   .     A
C915   C917    1.405   .     A
C916   C918    1.405   .     A
C916   C925    1.414   .     A
C916   O1042   1.390   .     S
C917   H965    1.083   .     S
C918   H964    1.083   .     S
C919   C921    1.403   .     A
C919   H963    1.076   .     S
C920   H962    1.077   .     S
C920   C923    1.405   .     A
C921   C924    1.419   .     A
C921   C926    1.427   .     A
C922   C939    1.425   .     S
C922   O975    1.285   .     A
C922   O973    1.290   .     A
C923   C927    1.429   .     A
C923   C925    1.422   .     A
C924   C306    1.395   1_556 S
C926   C935    1.415   .     A
C926   C297    1.422   1_556 S
C927   C933    1.417   .     A
C928   O980    1.416   .     S
C928   H948    1.116   .     S
C928   H947    1.111   .     S
C928   C929    1.529   .     S
C929   H949    1.111   .     S
C929   H950    1.111   .     S
C930   H952    1.110   .     S
C930   H951    1.111   .     S
C930   H953    1.108   .     S
C930   C1139   1.525   .     S
C931   C932    1.529   .     S
C931   H956    1.114   .     S
C931   O972    1.416   .     S
C931   H955    1.108   .     S
C932   H958    1.111   .     S
C932   C934    1.526   .     S
C932   H1167   1.111   .     S
C933   H966    1.076   .     S
C933   C936    1.389   .     A
C934   H961    1.111   .     S
C934   H960    1.110   .     S
C934   H1169   1.110   .     S
C935   C937    1.385   .     A
C935   H967    1.077   .     S
C936   H943    1.084   .     S
C937   H954    1.084   .     S
C937   C295    1.394   1_556 S
C938   C1149   1.328   .     S
C938   H1178   1.088   .     S
C940   O976    1.303   .     A
C940   O978    1.295   .     A
Cu941  N970    2.018   .     S
Cu941  O971    1.950   .     S
Cu941  Cu942   2.686   .     S
Cu941  O979    1.915   .     S
Cu941  O975    1.947   .     S
Cu941  O976    1.937   .     S
Cu942  O978    1.915   .     S
Cu942  O977    1.937   .     S
Cu942  O974    1.947   .     S
Cu942  N969    2.018   .     S
Cu942  O973    1.950   .     S
H944   C1149   1.088   .     S
H946   N1040   1.029   .     S
N969   H1015   1.029   .     S
N969   N1040   1.283   .     S
O980   C985    1.386   .     S
C981   C1008   1.425   .     S
C981   O1044   1.285   .     A
C981   O1041   1.290   .     A
C982   C984    1.463   .     S
C982   O1049   1.295   .     A
C982   O1047   1.299   .     A
C983   C989    1.398   .     A
C983   C1010   1.472   .     S
C983   C987    1.397   .     A
C984   C988    1.396   .     A
C984   C990    1.394   .     A
C985   C994    1.414   .     A
C985   C987    1.405   .     A
C986   C988    1.405   .     A
C986   C995    1.414   .     A
C986   O902    1.390   1_655 S
C987   H1035   1.083   .     S
C988   H1034   1.083   .     S
C989   C991    1.403   .     A
C989   H1033   1.076   .     S
C990   H1032   1.077   .     S
C990   C993    1.405   .     A
C991   C994    1.419   .     A
C991   C996    1.427   .     A
C992   C1009   1.425   .     S
C992   O1045   1.285   .     A
C992   O1043   1.290   .     A
C993   C997    1.429   .     A
C993   C995    1.422   .     A
C994   C376    1.395   1_556 S
C996   C1005   1.415   .     A
C996   C367    1.422   1_556 S
C997   C1003   1.417   .     A
C998   O1050   1.416   .     S
C998   H1018   1.116   .     S
C998   H1017   1.111   .     S
C998   C999    1.529   .     S
C999   H1019   1.111   .     S
C999   H1020   1.111   .     S
C1000  H1022   1.110   .     S
C1000  H1021   1.111   .     S
C1000  H1023   1.108   .     S
C1000  C1209   1.525   .     S
C1001  C1002   1.529   .     S
C1001  H1026   1.114   .     S
C1001  O1042   1.416   .     S
C1001  H1025   1.108   .     S
C1002  H1028   1.111   .     S
C1002  C1004   1.526   .     S
C1002  H1237   1.111   .     S
C1003  H1036   1.076   .     S
C1003  C1006   1.389   .     A
C1004  H1031   1.111   .     S
C1004  H1030   1.110   .     S
C1004  H1239   1.110   .     S
C1005  C1007   1.385   .     A
C1005  H1037   1.077   .     S
C1006  H1013   1.084   .     S
C1007  H1024   1.084   .     S
C1007  C365    1.394   1_556 S
C1008  C1219   1.328   .     S
C1008  H1248   1.088   .     S
C1010  O1046   1.303   .     A
C1010  O1048   1.295   .     A
Cu1011 N1040   2.018   .     S
Cu1011 O1041   1.950   .     S
Cu1011 Cu1012  2.686   .     S
Cu1011 O1049   1.915   .     S
Cu1011 O1045   1.947   .     S
Cu1011 O1046   1.937   .     S
Cu1012 O1048   1.915   .     S
Cu1012 O1047   1.937   .     S
Cu1012 O1044   1.947   .     S
Cu1012 N1039   2.018   .     S
Cu1012 O1043   1.950   .     S
H1014  C1219   1.088   .     S
H1016  N900    1.029   1_655 S
N1039  H875    1.029   1_655 S
N1039  N900    1.283   1_655 S
O1050  C845    1.386   1_655 S
C1051  C1078   1.425   .     S
C1051  O1114   1.285   .     A
C1051  O1111   1.290   .     A
C1052  C1054   1.463   .     S
C1052  O1119   1.295   .     A
C1052  O1117   1.299   .     A
C1053  C1059   1.398   .     A
C1053  C1080   1.472   .     S
C1053  C1057   1.397   .     A
C1054  C1058   1.396   .     A
C1054  C1060   1.394   .     A
C1055  C1064   1.414   .     A
C1055  C1057   1.405   .     A
C1055  O1260   1.386   1_455 S
C1056  C1058   1.405   .     A
C1056  C1065   1.414   .     A
C1056  O1182   1.390   .     S
C1057  H1105   1.083   .     S
C1058  H1104   1.083   .     S
C1059  C1061   1.403   .     A
C1059  H1103   1.076   .     S
C1060  H1102   1.077   .     S
C1060  C1063   1.405   .     A
C1061  C1064   1.419   .     A
C1061  C1066   1.427   .     A
C1062  C1079   1.425   .     S
C1062  O1115   1.285   .     A
C1062  O1113   1.290   .     A
C1063  C1067   1.429   .     A
C1063  C1065   1.422   .     A
C1064  C446    1.395   1_556 S
C1066  C1075   1.415   .     A
C1066  C437    1.422   1_556 S
C1067  C1073   1.417   .     A
C1068  O1120   1.416   .     S
C1068  H1088   1.116   .     S
C1068  H1087   1.111   .     S
C1068  C1069   1.529   .     S
C1069  H1089   1.111   .     S
C1069  H1090   1.111   .     S
C1070  H1092   1.110   .     S
C1070  H1091   1.111   .     S
C1070  H1093   1.108   .     S
C1070  C649    1.525   1_565 S
C1071  C1072   1.529   .     S
C1071  H1096   1.114   .     S
C1071  O1112   1.416   .     S
C1071  H1095   1.108   .     S
C1072  H1098   1.111   .     S
C1072  C1074   1.526   .     S
C1072  H677    1.111   1_565 S
C1073  H1106   1.076   .     S
C1073  C1076   1.389   .     A
C1074  H1101   1.111   .     S
C1074  H1100   1.110   .     S
C1074  H679    1.110   1_565 S
C1075  C1077   1.385   .     A
C1075  H1107   1.077   .     S
C1076  H1083   1.084   .     S
C1077  H1094   1.084   .     S
C1077  C435    1.394   1_556 S
C1078  C659    1.328   1_565 S
C1078  H688    1.088   1_565 S
C1080  O1116   1.303   .     A
C1080  O1118   1.295   .     A
Cu1081 N1110   2.018   .     S
Cu1081 O1111   1.950   .     S
Cu1081 Cu1082  2.686   .     S
Cu1081 O1119   1.915   .     S
Cu1081 O1115   1.947   .     S
Cu1081 O1116   1.937   .     S
Cu1082 O1118   1.915   .     S
Cu1082 O1117   1.937   .     S
Cu1082 O1114   1.947   .     S
Cu1082 N1109   2.018   .     S
Cu1082 O1113   1.950   .     S
H1084  C659    1.088   1_565 S
H1085  N1249   1.029   1_455 S
H1086  N1180   1.029   .     S
N1109  H1155   1.029   .     S
N1109  N1180   1.283   .     S
N1110  H1226   1.029   1_455 S
N1110  N1249   1.283   1_455 S
O1112  C1196   1.390   1_455 S
O1120  C1125   1.386   .     S
C1121  C1148   1.425   .     S
C1121  O1184   1.285   .     A
C1121  O1181   1.290   .     A
C1122  C1124   1.463   .     S
C1122  O1189   1.295   .     A
C1122  O1187   1.299   .     A
C1123  C1129   1.398   .     A
C1123  C1150   1.472   .     S
C1123  C1127   1.397   .     A
C1124  C1128   1.396   .     A
C1124  C1130   1.394   .     A
C1125  C1134   1.414   .     A
C1125  C1127   1.405   .     A
C1126  C1128   1.405   .     A
C1126  C1135   1.414   .     A
C1126  O1252   1.390   .     S
C1127  H1175   1.083   .     S
C1128  H1174   1.083   .     S
C1129  C1131   1.403   .     A
C1129  H1173   1.076   .     S
C1130  H1172   1.077   .     S
C1130  C1133   1.405   .     A
C1131  C1134   1.419   .     A
C1131  C1136   1.427   .     A
C1132  C1149   1.425   .     S
C1132  O1185   1.285   .     A
C1132  O1183   1.290   .     A
C1133  C1137   1.429   .     A
C1133  C1135   1.422   .     A
C1134  C516    1.395   1_556 S
C1136  C1145   1.415   .     A
C1136  C507    1.422   1_556 S
C1137  C1143   1.417   .     A
C1138  O1190   1.416   .     S
C1138  H1158   1.116   .     S
C1138  H1157   1.111   .     S
C1138  C1139   1.529   .     S
C1139  H1159   1.111   .     S
C1139  H1160   1.111   .     S
C1140  H1162   1.110   .     S
C1140  H1161   1.111   .     S
C1140  H1163   1.108   .     S
C1140  C719    1.525   1_565 S
C1141  C1142   1.529   .     S
C1141  H1166   1.114   .     S
C1141  O1182   1.416   .     S
C1141  H1165   1.108   .     S
C1142  H1168   1.111   .     S
C1142  C1144   1.526   .     S
C1142  H747    1.111   1_565 S
C1143  H1176   1.076   .     S
C1143  C1146   1.389   .     A
C1144  H1171   1.111   .     S
C1144  H1170   1.110   .     S
C1144  H749    1.110   1_565 S
C1145  C1147   1.385   .     A
C1145  H1177   1.077   .     S
C1146  H1153   1.084   .     S
C1147  H1164   1.084   .     S
C1147  C505    1.394   1_556 S
C1148  C729    1.328   1_565 S
C1148  H758    1.088   1_565 S
C1150  O1186   1.303   .     A
C1150  O1188   1.295   .     A
Cu1151 N1180   2.018   .     S
Cu1151 O1181   1.950   .     S
Cu1151 Cu1152  2.686   .     S
Cu1151 O1189   1.915   .     S
Cu1151 O1185   1.947   .     S
Cu1151 O1186   1.937   .     S
Cu1152 O1188   1.915   .     S
Cu1152 O1187   1.937   .     S
Cu1152 O1184   1.947   .     S
Cu1152 N1179   2.018   .     S
Cu1152 O1183   1.950   .     S
H1154  C729    1.088   1_565 S
H1156  N1250   1.029   .     S
N1179  H1225   1.029   .     S
N1179  N1250   1.283   .     S
O1190  C1195   1.386   .     S
C1191  C1218   1.425   .     S
C1191  O1254   1.285   .     A
C1191  O1251   1.290   .     A
C1192  C1194   1.463   .     S
C1192  O1259   1.295   .     A
C1192  O1257   1.299   .     A
C1193  C1199   1.398   .     A
C1193  C1220   1.472   .     S
C1193  C1197   1.397   .     A
C1194  C1198   1.396   .     A
C1194  C1200   1.394   .     A
C1195  C1204   1.414   .     A
C1195  C1197   1.405   .     A
C1196  C1198   1.405   .     A
C1196  C1205   1.414   .     A
C1196  O1112   1.390   1_655 S
C1197  H1245   1.083   .     S
C1198  H1244   1.083   .     S
C1199  C1201   1.403   .     A
C1199  H1243   1.076   .     S
C1200  H1242   1.077   .     S
C1200  C1203   1.405   .     A
C1201  C1204   1.419   .     A
C1201  C1206   1.427   .     A
C1202  C1219   1.425   .     S
C1202  O1255   1.285   .     A
C1202  O1253   1.290   .     A
C1203  C1207   1.429   .     A
C1203  C1205   1.422   .     A
C1204  C586    1.395   1_556 S
C1206  C1215   1.415   .     A
C1206  C577    1.422   1_556 S
C1207  C1213   1.417   .     A
C1208  O1260   1.416   .     S
C1208  H1228   1.116   .     S
C1208  H1227   1.111   .     S
C1208  C1209   1.529   .     S
C1209  H1229   1.111   .     S
C1209  H1230   1.111   .     S
C1210  H1232   1.110   .     S
C1210  H1231   1.111   .     S
C1210  H1233   1.108   .     S
C1210  C789    1.525   1_565 S
C1211  C1212   1.529   .     S
C1211  H1236   1.114   .     S
C1211  O1252   1.416   .     S
C1211  H1235   1.108   .     S
C1212  H1238   1.111   .     S
C1212  C1214   1.526   .     S
C1212  H817    1.111   1_565 S
C1213  H1246   1.076   .     S
C1213  C1216   1.389   .     A
C1214  H1241   1.111   .     S
C1214  H1240   1.110   .     S
C1214  H819    1.110   1_565 S
C1215  C1217   1.385   .     A
C1215  H1247   1.077   .     S
C1216  H1223   1.084   .     S
C1217  H1234   1.084   .     S
C1217  C575    1.394   1_556 S
C1218  C799    1.328   1_565 S
C1218  H828    1.088   1_565 S
C1220  O1256   1.303   .     A
C1220  O1258   1.295   .     A
Cu1221 N1250   2.018   .     S
Cu1221 O1251   1.950   .     S
Cu1221 Cu1222  2.686   .     S
Cu1221 O1259   1.915   .     S
Cu1221 O1255   1.947   .     S
Cu1221 O1256   1.937   .     S
Cu1222 O1258   1.915   .     S
Cu1222 O1257   1.937   .     S
Cu1222 O1254   1.947   .     S
Cu1222 N1249   2.018   .     S
Cu1222 O1253   1.950   .     S
H1224  C799    1.088   1_565 S
H1226  N1110   1.029   1_655 S
N1249  H1085   1.029   1_655 S
N1249  N1110   1.283   1_655 S
O1260  C1055   1.386   1_655 S
