data_str_m2_o1_o16_pcu_sym.174
_audit_creation_date              2020-01-03
_audit_creation_method            'Materials Studio'
_symmetry_space_group_name_H-M    'P1'
_symmetry_Int_Tables_number       1
_symmetry_cell_setting            triclinic
loop_
_symmetry_equiv_pos_as_xyz
  x,y,z
_cell_length_a                    28.6135
_cell_length_b                    32.6932
_cell_length_c                    26.8545
_cell_angle_alpha                 89.8678
_cell_angle_beta                  73.9946
_cell_angle_gamma                 89.5871
loop_
_atom_site_label
_atom_site_type_symbol
_atom_site_fract_x
_atom_site_fract_y
_atom_site_fract_z
_atom_site_U_iso_or_equiv
_atom_site_adp_type
_atom_site_occupancy
C1     C     0.16615   0.24585   0.25103   0.00000  Uiso   1.00
C2     C     0.15010   0.14227   0.48587   0.00000  Uiso   1.00
C3     C     0.16532   0.14421   0.43116   0.00000  Uiso   1.00
C4     C     0.18479   0.15267   0.01327   0.00000  Uiso   1.00
C5     C     0.23511   0.15320   0.48619   0.00000  Uiso   1.00
C6     C     0.24969   0.14499   0.43303   0.00000  Uiso   1.00
C7     C     0.21530   0.14050   0.40644   0.00000  Uiso   1.00
C8     C     0.17146   0.16345   0.06605   0.00000  Uiso   1.00
C9     C     0.25637   0.16553   0.06592   0.00000  Uiso   1.00
C10    C     0.13052   0.14283   0.40260   0.00000  Uiso   1.00
C11    C     0.20918   0.31115   0.23727   0.00000  Uiso   1.00
C12    C     0.14195   0.15875   0.34837   0.00000  Uiso   1.00
C13    C     0.21017   0.02020   0.23648   0.00000  Uiso   1.00
C14    C     0.16607   0.04252   0.25119   0.00000  Uiso   1.00
C15    C     0.12111   0.02157   0.26660   0.00000  Uiso   1.00
C16    C     0.12079   0.31208   0.26772   0.00000  Uiso   1.00
C17    C     0.16510   0.29034   0.25230   0.00000  Uiso   1.00
C18    C     0.29931   0.18979   0.28474   0.00000  Uiso   1.00
C19    C     0.01547   0.18973   0.28485   0.00000  Uiso   1.00
C20    C     0.03400   0.14343   0.21535   0.00000  Uiso   1.00
C21    C     0.31780   0.14339   0.21535   0.00000  Uiso   1.00
C22    C     0.16665   0.08733   0.25018   0.00000  Uiso   1.00
C23    C     0.19229   0.16764   0.15007   0.00000  Uiso   1.00
C24    C     0.27005   0.16047   0.01283   0.00000  Uiso   1.00
C25    C     0.20694   0.16619   0.09326   0.00000  Uiso   1.00
C26    C     0.08811   0.12031   0.42434   0.00000  Uiso   1.00
C27    C     0.07437   0.11165   0.47759   0.00000  Uiso   1.00
C28    C     0.10405   0.12412   0.00926   0.00000  Uiso   1.00
Cu29   Cu    0.11978   0.16666   0.25000   0.00000  Uiso   1.00
Cu30   Cu    0.21355   0.16667   0.25000   0.00000  Uiso   1.00
H31    H     0.27327   0.20831   0.31261   0.00000  Uiso   1.00
H32    H     0.06001   0.12475   0.18765   0.00000  Uiso   1.00
H33    H     0.30847   0.16139   0.49316   0.00000  Uiso   1.00
H34    H     0.22881   0.12955   0.36719   0.00000  Uiso   1.00
H35    H     0.24334   0.29451   0.22509   0.00000  Uiso   1.00
N36    N     0.04931   0.16666   0.24998   0.00000  Uiso   1.00
N37    N     0.28402   0.16669   0.24999   0.00000  Uiso   1.00
O38    O     0.12708   0.22678   0.25000   0.00000  Uiso   1.00
O39    O     0.20627   0.22679   0.25000   0.00000  Uiso   1.00
O40    O     0.10775   0.16665   0.32549   0.00000  Uiso   1.00
O41    O     0.18694   0.16666   0.32549   0.00000  Uiso   1.00
O42    O     0.12706   0.10654   0.24999   0.00000  Uiso   1.00
O43    O     0.20625   0.10655   0.24999   0.00000  Uiso   1.00
O44    O     0.14640   0.16667   0.17451   0.00000  Uiso   1.00
O45    O     0.22559   0.16668   0.17451   0.00000  Uiso   1.00
F46    F     0.29188   0.17045   0.09005   0.00000  Uiso   1.00
N47    N     0.25624   0.04024   0.21917   0.00000  Uiso   1.00
H48    H     0.27766   0.03117   0.24318   0.00000  Uiso   1.00
H49    H     0.27345   0.03025   0.18157   0.00000  Uiso   1.00
N50    N     0.07577   0.04371   0.28096   0.00000  Uiso   1.00
H51    H     0.05566   0.03624   0.25518   0.00000  Uiso   1.00
H52    H     0.05603   0.03531   0.31835   0.00000  Uiso   1.00
N53    N     0.07559   0.29063   0.28551   0.00000  Uiso   1.00
H54    H     0.05302   0.29850   0.26227   0.00000  Uiso   1.00
H55    H     0.05870   0.29895   0.32384   0.00000  Uiso   1.00
F56    F     0.02914   0.21279   0.32016   0.00000  Uiso   1.00
F57    F     0.30401   0.11987   0.18050   0.00000  Uiso   1.00
N58    N     0.29931   0.13843   0.40531   0.00000  Uiso   1.00
H59    H     0.31888   0.16503   0.40697   0.00000  Uiso   1.00
H60    H     0.31180   0.11457   0.42420   0.00000  Uiso   1.00
F61    F     0.12512   0.17549   0.08971   0.00000  Uiso   1.00
N62    N     0.06600   0.09731   0.39161   0.00000  Uiso   1.00
H63    H     0.09274   0.07814   0.36870   0.00000  Uiso   1.00
H64    H     0.05386   0.11669   0.36698   0.00000  Uiso   1.00
N65    N     0.09179   0.11105   0.06233   0.00000  Uiso   1.00
H66    H     0.09078   0.07912   0.06373   0.00000  Uiso   1.00
H67    H     0.05741   0.12261   0.08159   0.00000  Uiso   1.00
N68    N     0.03195   0.08720   0.49820   0.00000  Uiso   1.00
H69    H     0.00875   0.10248   0.02962   0.00000  Uiso   1.00
H70    H     0.04260   0.05949   0.01133   0.00000  Uiso   1.00
C71    C     0.49948   0.24585   0.25103   0.00000  Uiso   1.00
C72    C     0.48343   0.14227   0.48587   0.00000  Uiso   1.00
C73    C     0.49865   0.14421   0.43116   0.00000  Uiso   1.00
C74    C     0.51812   0.15267   0.01327   0.00000  Uiso   1.00
C75    C     0.56844   0.15320   0.48619   0.00000  Uiso   1.00
C76    C     0.58302   0.14499   0.43303   0.00000  Uiso   1.00
C77    C     0.54864   0.14050   0.40644   0.00000  Uiso   1.00
C78    C     0.50479   0.16345   0.06605   0.00000  Uiso   1.00
C79    C     0.58970   0.16553   0.06592   0.00000  Uiso   1.00
C80    C     0.46386   0.14283   0.40260   0.00000  Uiso   1.00
C81    C     0.54251   0.31115   0.23727   0.00000  Uiso   1.00
C82    C     0.47528   0.15875   0.34837   0.00000  Uiso   1.00
C83    C     0.54351   0.02020   0.23648   0.00000  Uiso   1.00
C84    C     0.49940   0.04252   0.25119   0.00000  Uiso   1.00
C85    C     0.45445   0.02157   0.26660   0.00000  Uiso   1.00
C86    C     0.45413   0.31208   0.26772   0.00000  Uiso   1.00
C87    C     0.49844   0.29034   0.25230   0.00000  Uiso   1.00
C88    C     0.63265   0.18979   0.28474   0.00000  Uiso   1.00
C89    C     0.34881   0.18973   0.28485   0.00000  Uiso   1.00
C90    C     0.36733   0.14343   0.21535   0.00000  Uiso   1.00
C91    C     0.65114   0.14339   0.21535   0.00000  Uiso   1.00
C92    C     0.49998   0.08733   0.25018   0.00000  Uiso   1.00
C93    C     0.52563   0.16764   0.15007   0.00000  Uiso   1.00
C94    C     0.60338   0.16047   0.01283   0.00000  Uiso   1.00
C95    C     0.54027   0.16619   0.09326   0.00000  Uiso   1.00
C96    C     0.42144   0.12031   0.42434   0.00000  Uiso   1.00
C97    C     0.40771   0.11165   0.47759   0.00000  Uiso   1.00
C98    C     0.43738   0.12412   0.00926   0.00000  Uiso   1.00
Cu99   Cu    0.45311   0.16666   0.25000   0.00000  Uiso   1.00
Cu100  Cu    0.54689   0.16667   0.25000   0.00000  Uiso   1.00
H101   H     0.60661   0.20831   0.31261   0.00000  Uiso   1.00
H102   H     0.39334   0.12475   0.18765   0.00000  Uiso   1.00
H103   H     0.64180   0.16139   0.49316   0.00000  Uiso   1.00
H104   H     0.56215   0.12955   0.36719   0.00000  Uiso   1.00
H105   H     0.57667   0.29451   0.22509   0.00000  Uiso   1.00
N106   N     0.38265   0.16666   0.24998   0.00000  Uiso   1.00
N107   N     0.61735   0.16669   0.24999   0.00000  Uiso   1.00
O108   O     0.46042   0.22678   0.25000   0.00000  Uiso   1.00
O109   O     0.53961   0.22679   0.25000   0.00000  Uiso   1.00
O110   O     0.44108   0.16665   0.32549   0.00000  Uiso   1.00
O111   O     0.52027   0.16666   0.32549   0.00000  Uiso   1.00
O112   O     0.46039   0.10654   0.24999   0.00000  Uiso   1.00
O113   O     0.53958   0.10655   0.24999   0.00000  Uiso   1.00
O114   O     0.47973   0.16667   0.17451   0.00000  Uiso   1.00
O115   O     0.55892   0.16668   0.17451   0.00000  Uiso   1.00
F116   F     0.62521   0.17045   0.09005   0.00000  Uiso   1.00
N117   N     0.58957   0.04024   0.21917   0.00000  Uiso   1.00
H118   H     0.61099   0.03117   0.24318   0.00000  Uiso   1.00
H119   H     0.60678   0.03025   0.18157   0.00000  Uiso   1.00
N120   N     0.40910   0.04371   0.28096   0.00000  Uiso   1.00
H121   H     0.38899   0.03624   0.25518   0.00000  Uiso   1.00
H122   H     0.38936   0.03531   0.31835   0.00000  Uiso   1.00
N123   N     0.40893   0.29063   0.28551   0.00000  Uiso   1.00
H124   H     0.38635   0.29850   0.26227   0.00000  Uiso   1.00
H125   H     0.39203   0.29895   0.32384   0.00000  Uiso   1.00
F126   F     0.36247   0.21279   0.32016   0.00000  Uiso   1.00
F127   F     0.63734   0.11987   0.18050   0.00000  Uiso   1.00
N128   N     0.63264   0.13843   0.40531   0.00000  Uiso   1.00
H129   H     0.65222   0.16503   0.40697   0.00000  Uiso   1.00
H130   H     0.64514   0.11457   0.42420   0.00000  Uiso   1.00
F131   F     0.45845   0.17549   0.08971   0.00000  Uiso   1.00
N132   N     0.39933   0.09731   0.39161   0.00000  Uiso   1.00
H133   H     0.42607   0.07814   0.36870   0.00000  Uiso   1.00
H134   H     0.38719   0.11669   0.36698   0.00000  Uiso   1.00
N135   N     0.42512   0.11105   0.06233   0.00000  Uiso   1.00
H136   H     0.42411   0.07912   0.06373   0.00000  Uiso   1.00
H137   H     0.39075   0.12261   0.08159   0.00000  Uiso   1.00
N138   N     0.36529   0.08720   0.49820   0.00000  Uiso   1.00
H139   H     0.34209   0.10248   0.02962   0.00000  Uiso   1.00
H140   H     0.37593   0.05949   0.01133   0.00000  Uiso   1.00
C141   C     0.83282   0.24585   0.25103   0.00000  Uiso   1.00
C142   C     0.81677   0.14227   0.48587   0.00000  Uiso   1.00
C143   C     0.83198   0.14421   0.43116   0.00000  Uiso   1.00
C144   C     0.85146   0.15267   0.01327   0.00000  Uiso   1.00
C145   C     0.90177   0.15320   0.48619   0.00000  Uiso   1.00
C146   C     0.91636   0.14499   0.43303   0.00000  Uiso   1.00
C147   C     0.88197   0.14050   0.40644   0.00000  Uiso   1.00
C148   C     0.83813   0.16345   0.06605   0.00000  Uiso   1.00
C149   C     0.92303   0.16553   0.06592   0.00000  Uiso   1.00
C150   C     0.79719   0.14283   0.40260   0.00000  Uiso   1.00
C151   C     0.87584   0.31115   0.23727   0.00000  Uiso   1.00
C152   C     0.80861   0.15875   0.34837   0.00000  Uiso   1.00
C153   C     0.87684   0.02020   0.23648   0.00000  Uiso   1.00
C154   C     0.83273   0.04252   0.25119   0.00000  Uiso   1.00
C155   C     0.78778   0.02157   0.26660   0.00000  Uiso   1.00
C156   C     0.78746   0.31208   0.26772   0.00000  Uiso   1.00
C157   C     0.83177   0.29034   0.25230   0.00000  Uiso   1.00
C158   C     0.96598   0.18979   0.28474   0.00000  Uiso   1.00
C159   C     0.68214   0.18973   0.28485   0.00000  Uiso   1.00
C160   C     0.70067   0.14343   0.21535   0.00000  Uiso   1.00
C161   C     0.98447   0.14339   0.21535   0.00000  Uiso   1.00
C162   C     0.83332   0.08733   0.25018   0.00000  Uiso   1.00
C163   C     0.85896   0.16764   0.15007   0.00000  Uiso   1.00
C164   C     0.93671   0.16047   0.01283   0.00000  Uiso   1.00
C165   C     0.87361   0.16619   0.09326   0.00000  Uiso   1.00
C166   C     0.75478   0.12031   0.42434   0.00000  Uiso   1.00
C167   C     0.74104   0.11165   0.47759   0.00000  Uiso   1.00
C168   C     0.77071   0.12412   0.00926   0.00000  Uiso   1.00
Cu169  Cu    0.78645   0.16666   0.25000   0.00000  Uiso   1.00
Cu170  Cu    0.88022   0.16667   0.25000   0.00000  Uiso   1.00
H171   H     0.93994   0.20831   0.31261   0.00000  Uiso   1.00
H172   H     0.72668   0.12475   0.18765   0.00000  Uiso   1.00
H173   H     0.97514   0.16139   0.49316   0.00000  Uiso   1.00
H174   H     0.89548   0.12955   0.36719   0.00000  Uiso   1.00
H175   H     0.91001   0.29451   0.22509   0.00000  Uiso   1.00
N176   N     0.71598   0.16666   0.24998   0.00000  Uiso   1.00
N177   N     0.95069   0.16669   0.24999   0.00000  Uiso   1.00
O178   O     0.79375   0.22678   0.25000   0.00000  Uiso   1.00
O179   O     0.87294   0.22679   0.25000   0.00000  Uiso   1.00
O180   O     0.77441   0.16665   0.32549   0.00000  Uiso   1.00
O181   O     0.85360   0.16666   0.32549   0.00000  Uiso   1.00
O182   O     0.79373   0.10654   0.24999   0.00000  Uiso   1.00
O183   O     0.87292   0.10655   0.24999   0.00000  Uiso   1.00
O184   O     0.81306   0.16667   0.17451   0.00000  Uiso   1.00
O185   O     0.89225   0.16668   0.17451   0.00000  Uiso   1.00
F186   F     0.95854   0.17045   0.09005   0.00000  Uiso   1.00
N187   N     0.92290   0.04024   0.21917   0.00000  Uiso   1.00
H188   H     0.94432   0.03117   0.24318   0.00000  Uiso   1.00
H189   H     0.94011   0.03025   0.18157   0.00000  Uiso   1.00
N190   N     0.74243   0.04371   0.28096   0.00000  Uiso   1.00
H191   H     0.72232   0.03624   0.25518   0.00000  Uiso   1.00
H192   H     0.72270   0.03531   0.31835   0.00000  Uiso   1.00
N193   N     0.74226   0.29063   0.28551   0.00000  Uiso   1.00
H194   H     0.71968   0.29850   0.26227   0.00000  Uiso   1.00
H195   H     0.72536   0.29895   0.32384   0.00000  Uiso   1.00
F196   F     0.69581   0.21279   0.32016   0.00000  Uiso   1.00
F197   F     0.97068   0.11987   0.18050   0.00000  Uiso   1.00
N198   N     0.96598   0.13843   0.40531   0.00000  Uiso   1.00
H199   H     0.98555   0.16503   0.40697   0.00000  Uiso   1.00
H200   H     0.97847   0.11457   0.42420   0.00000  Uiso   1.00
F201   F     0.79179   0.17549   0.08971   0.00000  Uiso   1.00
N202   N     0.73267   0.09731   0.39161   0.00000  Uiso   1.00
H203   H     0.75941   0.07814   0.36870   0.00000  Uiso   1.00
H204   H     0.72053   0.11669   0.36698   0.00000  Uiso   1.00
N205   N     0.75846   0.11105   0.06233   0.00000  Uiso   1.00
H206   H     0.75745   0.07912   0.06373   0.00000  Uiso   1.00
H207   H     0.72408   0.12261   0.08159   0.00000  Uiso   1.00
N208   N     0.69862   0.08720   0.49820   0.00000  Uiso   1.00
H209   H     0.67542   0.10248   0.02962   0.00000  Uiso   1.00
H210   H     0.70926   0.05949   0.01133   0.00000  Uiso   1.00
C211   C     0.16615   0.57919   0.25103   0.00000  Uiso   1.00
C212   C     0.15010   0.47561   0.48587   0.00000  Uiso   1.00
C213   C     0.16532   0.47754   0.43116   0.00000  Uiso   1.00
C214   C     0.18479   0.48600   0.01327   0.00000  Uiso   1.00
C215   C     0.23511   0.48654   0.48619   0.00000  Uiso   1.00
C216   C     0.24969   0.47832   0.43303   0.00000  Uiso   1.00
C217   C     0.21530   0.47384   0.40644   0.00000  Uiso   1.00
C218   C     0.17146   0.49679   0.06605   0.00000  Uiso   1.00
C219   C     0.25637   0.49886   0.06592   0.00000  Uiso   1.00
C220   C     0.13052   0.47617   0.40260   0.00000  Uiso   1.00
C221   C     0.20918   0.64449   0.23727   0.00000  Uiso   1.00
C222   C     0.14195   0.49208   0.34837   0.00000  Uiso   1.00
C223   C     0.21017   0.35353   0.23648   0.00000  Uiso   1.00
C224   C     0.16607   0.37586   0.25119   0.00000  Uiso   1.00
C225   C     0.12111   0.35491   0.26660   0.00000  Uiso   1.00
C226   C     0.12079   0.64541   0.26772   0.00000  Uiso   1.00
C227   C     0.16510   0.62368   0.25230   0.00000  Uiso   1.00
C228   C     0.29931   0.52312   0.28474   0.00000  Uiso   1.00
C229   C     0.01547   0.52306   0.28485   0.00000  Uiso   1.00
C230   C     0.03400   0.47677   0.21535   0.00000  Uiso   1.00
C231   C     0.31780   0.47672   0.21535   0.00000  Uiso   1.00
C232   C     0.16665   0.42066   0.25018   0.00000  Uiso   1.00
C233   C     0.19229   0.50097   0.15007   0.00000  Uiso   1.00
C234   C     0.27005   0.49380   0.01283   0.00000  Uiso   1.00
C235   C     0.20694   0.49952   0.09326   0.00000  Uiso   1.00
C236   C     0.08811   0.45364   0.42434   0.00000  Uiso   1.00
C237   C     0.07437   0.44498   0.47759   0.00000  Uiso   1.00
C238   C     0.10405   0.45746   0.00926   0.00000  Uiso   1.00
Cu239  Cu    0.11978   0.49999   0.25000   0.00000  Uiso   1.00
Cu240  Cu    0.21355   0.50001   0.25000   0.00000  Uiso   1.00
H241   H     0.27327   0.54165   0.31261   0.00000  Uiso   1.00
H242   H     0.06001   0.45809   0.18765   0.00000  Uiso   1.00
H243   H     0.30847   0.49472   0.49316   0.00000  Uiso   1.00
H244   H     0.22881   0.46289   0.36719   0.00000  Uiso   1.00
H245   H     0.24334   0.62784   0.22509   0.00000  Uiso   1.00
N246   N     0.04931   0.49999   0.24998   0.00000  Uiso   1.00
N247   N     0.28402   0.50002   0.24999   0.00000  Uiso   1.00
O248   O     0.12708   0.56011   0.25000   0.00000  Uiso   1.00
O249   O     0.20627   0.56012   0.25000   0.00000  Uiso   1.00
O250   O     0.10775   0.49998   0.32549   0.00000  Uiso   1.00
O251   O     0.18694   0.49999   0.32549   0.00000  Uiso   1.00
O252   O     0.12706   0.43988   0.24999   0.00000  Uiso   1.00
O253   O     0.20625   0.43989   0.24999   0.00000  Uiso   1.00
O254   O     0.14640   0.50001   0.17451   0.00000  Uiso   1.00
O255   O     0.22559   0.50002   0.17451   0.00000  Uiso   1.00
F256   F     0.29188   0.50378   0.09005   0.00000  Uiso   1.00
N257   N     0.25624   0.37357   0.21917   0.00000  Uiso   1.00
H258   H     0.27766   0.36450   0.24318   0.00000  Uiso   1.00
H259   H     0.27345   0.36359   0.18157   0.00000  Uiso   1.00
N260   N     0.07577   0.37704   0.28096   0.00000  Uiso   1.00
H261   H     0.05566   0.36957   0.25518   0.00000  Uiso   1.00
H262   H     0.05603   0.36865   0.31835   0.00000  Uiso   1.00
N263   N     0.07559   0.62396   0.28551   0.00000  Uiso   1.00
H264   H     0.05302   0.63183   0.26227   0.00000  Uiso   1.00
H265   H     0.05870   0.63228   0.32384   0.00000  Uiso   1.00
F266   F     0.02914   0.54612   0.32016   0.00000  Uiso   1.00
F267   F     0.30401   0.45320   0.18050   0.00000  Uiso   1.00
N268   N     0.29931   0.47177   0.40531   0.00000  Uiso   1.00
H269   H     0.31888   0.49836   0.40697   0.00000  Uiso   1.00
H270   H     0.31180   0.44790   0.42420   0.00000  Uiso   1.00
F271   F     0.12512   0.50882   0.08971   0.00000  Uiso   1.00
N272   N     0.06600   0.43064   0.39161   0.00000  Uiso   1.00
H273   H     0.09274   0.41147   0.36870   0.00000  Uiso   1.00
H274   H     0.05386   0.45002   0.36698   0.00000  Uiso   1.00
N275   N     0.09179   0.44439   0.06233   0.00000  Uiso   1.00
H276   H     0.09078   0.41245   0.06373   0.00000  Uiso   1.00
H277   H     0.05741   0.45594   0.08159   0.00000  Uiso   1.00
N278   N     0.03195   0.42054   0.49820   0.00000  Uiso   1.00
H279   H     0.00875   0.43581   0.02962   0.00000  Uiso   1.00
H280   H     0.04260   0.39283   0.01133   0.00000  Uiso   1.00
C281   C     0.49948   0.57919   0.25103   0.00000  Uiso   1.00
C282   C     0.48343   0.47561   0.48587   0.00000  Uiso   1.00
C283   C     0.49865   0.47754   0.43116   0.00000  Uiso   1.00
C284   C     0.51812   0.48600   0.01327   0.00000  Uiso   1.00
C285   C     0.56844   0.48654   0.48619   0.00000  Uiso   1.00
C286   C     0.58302   0.47832   0.43303   0.00000  Uiso   1.00
C287   C     0.54864   0.47384   0.40644   0.00000  Uiso   1.00
C288   C     0.50479   0.49679   0.06605   0.00000  Uiso   1.00
C289   C     0.58970   0.49886   0.06592   0.00000  Uiso   1.00
C290   C     0.46386   0.47617   0.40260   0.00000  Uiso   1.00
C291   C     0.54251   0.64449   0.23727   0.00000  Uiso   1.00
C292   C     0.47528   0.49208   0.34837   0.00000  Uiso   1.00
C293   C     0.54351   0.35353   0.23648   0.00000  Uiso   1.00
C294   C     0.49940   0.37586   0.25119   0.00000  Uiso   1.00
C295   C     0.45445   0.35491   0.26660   0.00000  Uiso   1.00
C296   C     0.45413   0.64541   0.26772   0.00000  Uiso   1.00
C297   C     0.49844   0.62368   0.25230   0.00000  Uiso   1.00
C298   C     0.63265   0.52312   0.28474   0.00000  Uiso   1.00
C299   C     0.34881   0.52306   0.28485   0.00000  Uiso   1.00
C300   C     0.36733   0.47677   0.21535   0.00000  Uiso   1.00
C301   C     0.65114   0.47672   0.21535   0.00000  Uiso   1.00
C302   C     0.49998   0.42066   0.25018   0.00000  Uiso   1.00
C303   C     0.52563   0.50097   0.15007   0.00000  Uiso   1.00
C304   C     0.60338   0.49380   0.01283   0.00000  Uiso   1.00
C305   C     0.54027   0.49952   0.09326   0.00000  Uiso   1.00
C306   C     0.42144   0.45364   0.42434   0.00000  Uiso   1.00
C307   C     0.40771   0.44498   0.47759   0.00000  Uiso   1.00
C308   C     0.43738   0.45746   0.00926   0.00000  Uiso   1.00
Cu309  Cu    0.45311   0.49999   0.25000   0.00000  Uiso   1.00
Cu310  Cu    0.54689   0.50001   0.25000   0.00000  Uiso   1.00
H311   H     0.60661   0.54165   0.31261   0.00000  Uiso   1.00
H312   H     0.39334   0.45809   0.18765   0.00000  Uiso   1.00
H313   H     0.64180   0.49472   0.49316   0.00000  Uiso   1.00
H314   H     0.56215   0.46289   0.36719   0.00000  Uiso   1.00
H315   H     0.57667   0.62784   0.22509   0.00000  Uiso   1.00
N316   N     0.38265   0.49999   0.24998   0.00000  Uiso   1.00
N317   N     0.61735   0.50002   0.24999   0.00000  Uiso   1.00
O318   O     0.46042   0.56011   0.25000   0.00000  Uiso   1.00
O319   O     0.53961   0.56012   0.25000   0.00000  Uiso   1.00
O320   O     0.44108   0.49998   0.32549   0.00000  Uiso   1.00
O321   O     0.52027   0.49999   0.32549   0.00000  Uiso   1.00
O322   O     0.46039   0.43988   0.24999   0.00000  Uiso   1.00
O323   O     0.53958   0.43989   0.24999   0.00000  Uiso   1.00
O324   O     0.47973   0.50001   0.17451   0.00000  Uiso   1.00
O325   O     0.55892   0.50002   0.17451   0.00000  Uiso   1.00
F326   F     0.62521   0.50378   0.09005   0.00000  Uiso   1.00
N327   N     0.58957   0.37357   0.21917   0.00000  Uiso   1.00
H328   H     0.61099   0.36450   0.24318   0.00000  Uiso   1.00
H329   H     0.60678   0.36359   0.18157   0.00000  Uiso   1.00
N330   N     0.40910   0.37704   0.28096   0.00000  Uiso   1.00
H331   H     0.38899   0.36957   0.25518   0.00000  Uiso   1.00
H332   H     0.38936   0.36865   0.31835   0.00000  Uiso   1.00
N333   N     0.40893   0.62396   0.28551   0.00000  Uiso   1.00
H334   H     0.38635   0.63183   0.26227   0.00000  Uiso   1.00
H335   H     0.39203   0.63228   0.32384   0.00000  Uiso   1.00
F336   F     0.36247   0.54612   0.32016   0.00000  Uiso   1.00
F337   F     0.63734   0.45320   0.18050   0.00000  Uiso   1.00
N338   N     0.63264   0.47177   0.40531   0.00000  Uiso   1.00
H339   H     0.65222   0.49836   0.40697   0.00000  Uiso   1.00
H340   H     0.64514   0.44790   0.42420   0.00000  Uiso   1.00
F341   F     0.45845   0.50882   0.08971   0.00000  Uiso   1.00
N342   N     0.39933   0.43064   0.39161   0.00000  Uiso   1.00
H343   H     0.42607   0.41147   0.36870   0.00000  Uiso   1.00
H344   H     0.38719   0.45002   0.36698   0.00000  Uiso   1.00
N345   N     0.42512   0.44439   0.06233   0.00000  Uiso   1.00
H346   H     0.42411   0.41245   0.06373   0.00000  Uiso   1.00
H347   H     0.39075   0.45594   0.08159   0.00000  Uiso   1.00
N348   N     0.36529   0.42054   0.49820   0.00000  Uiso   1.00
H349   H     0.34209   0.43581   0.02962   0.00000  Uiso   1.00
H350   H     0.37593   0.39283   0.01133   0.00000  Uiso   1.00
C351   C     0.83282   0.57919   0.25103   0.00000  Uiso   1.00
C352   C     0.81677   0.47561   0.48587   0.00000  Uiso   1.00
C353   C     0.83198   0.47754   0.43116   0.00000  Uiso   1.00
C354   C     0.85146   0.48600   0.01327   0.00000  Uiso   1.00
C355   C     0.90177   0.48654   0.48619   0.00000  Uiso   1.00
C356   C     0.91636   0.47832   0.43303   0.00000  Uiso   1.00
C357   C     0.88197   0.47384   0.40644   0.00000  Uiso   1.00
C358   C     0.83813   0.49679   0.06605   0.00000  Uiso   1.00
C359   C     0.92303   0.49886   0.06592   0.00000  Uiso   1.00
C360   C     0.79719   0.47617   0.40260   0.00000  Uiso   1.00
C361   C     0.87584   0.64449   0.23727   0.00000  Uiso   1.00
C362   C     0.80861   0.49208   0.34837   0.00000  Uiso   1.00
C363   C     0.87684   0.35353   0.23648   0.00000  Uiso   1.00
C364   C     0.83273   0.37586   0.25119   0.00000  Uiso   1.00
C365   C     0.78778   0.35491   0.26660   0.00000  Uiso   1.00
C366   C     0.78746   0.64541   0.26772   0.00000  Uiso   1.00
C367   C     0.83177   0.62368   0.25230   0.00000  Uiso   1.00
C368   C     0.96598   0.52312   0.28474   0.00000  Uiso   1.00
C369   C     0.68214   0.52306   0.28485   0.00000  Uiso   1.00
C370   C     0.70067   0.47677   0.21535   0.00000  Uiso   1.00
C371   C     0.98447   0.47672   0.21535   0.00000  Uiso   1.00
C372   C     0.83332   0.42066   0.25018   0.00000  Uiso   1.00
C373   C     0.85896   0.50097   0.15007   0.00000  Uiso   1.00
C374   C     0.93671   0.49380   0.01283   0.00000  Uiso   1.00
C375   C     0.87361   0.49952   0.09326   0.00000  Uiso   1.00
C376   C     0.75478   0.45364   0.42434   0.00000  Uiso   1.00
C377   C     0.74104   0.44498   0.47759   0.00000  Uiso   1.00
C378   C     0.77071   0.45746   0.00926   0.00000  Uiso   1.00
Cu379  Cu    0.78645   0.49999   0.25000   0.00000  Uiso   1.00
Cu380  Cu    0.88022   0.50001   0.25000   0.00000  Uiso   1.00
H381   H     0.93994   0.54165   0.31261   0.00000  Uiso   1.00
H382   H     0.72668   0.45809   0.18765   0.00000  Uiso   1.00
H383   H     0.97514   0.49472   0.49316   0.00000  Uiso   1.00
H384   H     0.89548   0.46289   0.36719   0.00000  Uiso   1.00
H385   H     0.91001   0.62784   0.22509   0.00000  Uiso   1.00
N386   N     0.71598   0.49999   0.24998   0.00000  Uiso   1.00
N387   N     0.95069   0.50002   0.24999   0.00000  Uiso   1.00
O388   O     0.79375   0.56011   0.25000   0.00000  Uiso   1.00
O389   O     0.87294   0.56012   0.25000   0.00000  Uiso   1.00
O390   O     0.77441   0.49998   0.32549   0.00000  Uiso   1.00
O391   O     0.85360   0.49999   0.32549   0.00000  Uiso   1.00
O392   O     0.79373   0.43988   0.24999   0.00000  Uiso   1.00
O393   O     0.87292   0.43989   0.24999   0.00000  Uiso   1.00
O394   O     0.81306   0.50001   0.17451   0.00000  Uiso   1.00
O395   O     0.89225   0.50002   0.17451   0.00000  Uiso   1.00
F396   F     0.95854   0.50378   0.09005   0.00000  Uiso   1.00
N397   N     0.92290   0.37357   0.21917   0.00000  Uiso   1.00
H398   H     0.94432   0.36450   0.24318   0.00000  Uiso   1.00
H399   H     0.94011   0.36359   0.18157   0.00000  Uiso   1.00
N400   N     0.74243   0.37704   0.28096   0.00000  Uiso   1.00
H401   H     0.72232   0.36957   0.25518   0.00000  Uiso   1.00
H402   H     0.72270   0.36865   0.31835   0.00000  Uiso   1.00
N403   N     0.74226   0.62396   0.28551   0.00000  Uiso   1.00
H404   H     0.71968   0.63183   0.26227   0.00000  Uiso   1.00
H405   H     0.72536   0.63228   0.32384   0.00000  Uiso   1.00
F406   F     0.69581   0.54612   0.32016   0.00000  Uiso   1.00
F407   F     0.97068   0.45320   0.18050   0.00000  Uiso   1.00
N408   N     0.96598   0.47177   0.40531   0.00000  Uiso   1.00
H409   H     0.98555   0.49836   0.40697   0.00000  Uiso   1.00
H410   H     0.97847   0.44790   0.42420   0.00000  Uiso   1.00
F411   F     0.79179   0.50882   0.08971   0.00000  Uiso   1.00
N412   N     0.73267   0.43064   0.39161   0.00000  Uiso   1.00
H413   H     0.75941   0.41147   0.36870   0.00000  Uiso   1.00
H414   H     0.72053   0.45002   0.36698   0.00000  Uiso   1.00
N415   N     0.75846   0.44439   0.06233   0.00000  Uiso   1.00
H416   H     0.75745   0.41245   0.06373   0.00000  Uiso   1.00
H417   H     0.72408   0.45594   0.08159   0.00000  Uiso   1.00
N418   N     0.69862   0.42054   0.49820   0.00000  Uiso   1.00
H419   H     0.67542   0.43581   0.02962   0.00000  Uiso   1.00
H420   H     0.70926   0.39283   0.01133   0.00000  Uiso   1.00
C421   C     0.16615   0.91252   0.25103   0.00000  Uiso   1.00
C422   C     0.15010   0.80894   0.48587   0.00000  Uiso   1.00
C423   C     0.16532   0.81087   0.43116   0.00000  Uiso   1.00
C424   C     0.18479   0.81933   0.01327   0.00000  Uiso   1.00
C425   C     0.23511   0.81987   0.48619   0.00000  Uiso   1.00
C426   C     0.24969   0.81166   0.43303   0.00000  Uiso   1.00
C427   C     0.21530   0.80717   0.40644   0.00000  Uiso   1.00
C428   C     0.17146   0.83012   0.06605   0.00000  Uiso   1.00
C429   C     0.25637   0.83220   0.06592   0.00000  Uiso   1.00
C430   C     0.13052   0.80950   0.40260   0.00000  Uiso   1.00
C431   C     0.20918   0.97782   0.23727   0.00000  Uiso   1.00
C432   C     0.14195   0.82542   0.34837   0.00000  Uiso   1.00
C433   C     0.21017   0.68687   0.23648   0.00000  Uiso   1.00
C434   C     0.16607   0.70919   0.25119   0.00000  Uiso   1.00
C435   C     0.12111   0.68824   0.26660   0.00000  Uiso   1.00
C436   C     0.12079   0.97875   0.26772   0.00000  Uiso   1.00
C437   C     0.16510   0.95701   0.25230   0.00000  Uiso   1.00
C438   C     0.29931   0.85646   0.28474   0.00000  Uiso   1.00
C439   C     0.01547   0.85639   0.28485   0.00000  Uiso   1.00
C440   C     0.03400   0.81010   0.21535   0.00000  Uiso   1.00
C441   C     0.31780   0.81006   0.21535   0.00000  Uiso   1.00
C442   C     0.16665   0.75399   0.25018   0.00000  Uiso   1.00
C443   C     0.19229   0.83430   0.15007   0.00000  Uiso   1.00
C444   C     0.27005   0.82714   0.01283   0.00000  Uiso   1.00
C445   C     0.20694   0.83286   0.09326   0.00000  Uiso   1.00
C446   C     0.08811   0.78698   0.42434   0.00000  Uiso   1.00
C447   C     0.07437   0.77831   0.47759   0.00000  Uiso   1.00
C448   C     0.10405   0.79079   0.00926   0.00000  Uiso   1.00
Cu449  Cu    0.11978   0.83333   0.25000   0.00000  Uiso   1.00
Cu450  Cu    0.21355   0.83334   0.25000   0.00000  Uiso   1.00
H451   H     0.27327   0.87498   0.31261   0.00000  Uiso   1.00
H452   H     0.06001   0.79142   0.18765   0.00000  Uiso   1.00
H453   H     0.30847   0.82806   0.49316   0.00000  Uiso   1.00
H454   H     0.22881   0.79622   0.36719   0.00000  Uiso   1.00
H455   H     0.24334   0.96117   0.22509   0.00000  Uiso   1.00
N456   N     0.04931   0.83332   0.24998   0.00000  Uiso   1.00
N457   N     0.28402   0.83335   0.24999   0.00000  Uiso   1.00
O458   O     0.12708   0.89345   0.25000   0.00000  Uiso   1.00
O459   O     0.20627   0.89346   0.25000   0.00000  Uiso   1.00
O460   O     0.10775   0.83332   0.32549   0.00000  Uiso   1.00
O461   O     0.18694   0.83333   0.32549   0.00000  Uiso   1.00
O462   O     0.12706   0.77321   0.24999   0.00000  Uiso   1.00
O463   O     0.20625   0.77322   0.24999   0.00000  Uiso   1.00
O464   O     0.14640   0.83334   0.17451   0.00000  Uiso   1.00
O465   O     0.22559   0.83335   0.17451   0.00000  Uiso   1.00
F466   F     0.29188   0.83711   0.09005   0.00000  Uiso   1.00
N467   N     0.25624   0.70691   0.21917   0.00000  Uiso   1.00
H468   H     0.27766   0.69783   0.24318   0.00000  Uiso   1.00
H469   H     0.27345   0.69692   0.18157   0.00000  Uiso   1.00
N470   N     0.07577   0.71038   0.28096   0.00000  Uiso   1.00
H471   H     0.05566   0.70291   0.25518   0.00000  Uiso   1.00
H472   H     0.05603   0.70198   0.31835   0.00000  Uiso   1.00
N473   N     0.07559   0.95730   0.28551   0.00000  Uiso   1.00
H474   H     0.05302   0.96517   0.26227   0.00000  Uiso   1.00
H475   H     0.05870   0.96562   0.32384   0.00000  Uiso   1.00
F476   F     0.02914   0.87946   0.32016   0.00000  Uiso   1.00
F477   F     0.30401   0.78653   0.18050   0.00000  Uiso   1.00
N478   N     0.29931   0.80510   0.40531   0.00000  Uiso   1.00
H479   H     0.31888   0.83169   0.40697   0.00000  Uiso   1.00
H480   H     0.31180   0.78124   0.42420   0.00000  Uiso   1.00
F481   F     0.12512   0.84215   0.08971   0.00000  Uiso   1.00
N482   N     0.06600   0.76398   0.39161   0.00000  Uiso   1.00
H483   H     0.09274   0.74480   0.36870   0.00000  Uiso   1.00
H484   H     0.05386   0.78335   0.36698   0.00000  Uiso   1.00
N485   N     0.09179   0.77772   0.06233   0.00000  Uiso   1.00
H486   H     0.09078   0.74579   0.06373   0.00000  Uiso   1.00
H487   H     0.05741   0.78928   0.08159   0.00000  Uiso   1.00
N488   N     0.03195   0.75387   0.49820   0.00000  Uiso   1.00
H489   H     0.00875   0.76914   0.02962   0.00000  Uiso   1.00
H490   H     0.04260   0.72616   0.01133   0.00000  Uiso   1.00
C491   C     0.49948   0.91252   0.25103   0.00000  Uiso   1.00
C492   C     0.48343   0.80894   0.48587   0.00000  Uiso   1.00
C493   C     0.49865   0.81087   0.43116   0.00000  Uiso   1.00
C494   C     0.51812   0.81933   0.01327   0.00000  Uiso   1.00
C495   C     0.56844   0.81987   0.48619   0.00000  Uiso   1.00
C496   C     0.58302   0.81166   0.43303   0.00000  Uiso   1.00
C497   C     0.54864   0.80717   0.40644   0.00000  Uiso   1.00
C498   C     0.50479   0.83012   0.06605   0.00000  Uiso   1.00
C499   C     0.58970   0.83220   0.06592   0.00000  Uiso   1.00
C500   C     0.46386   0.80950   0.40260   0.00000  Uiso   1.00
C501   C     0.54251   0.97782   0.23727   0.00000  Uiso   1.00
C502   C     0.47528   0.82542   0.34837   0.00000  Uiso   1.00
C503   C     0.54351   0.68687   0.23648   0.00000  Uiso   1.00
C504   C     0.49940   0.70919   0.25119   0.00000  Uiso   1.00
C505   C     0.45445   0.68824   0.26660   0.00000  Uiso   1.00
C506   C     0.45413   0.97875   0.26772   0.00000  Uiso   1.00
C507   C     0.49844   0.95701   0.25230   0.00000  Uiso   1.00
C508   C     0.63265   0.85646   0.28474   0.00000  Uiso   1.00
C509   C     0.34881   0.85639   0.28485   0.00000  Uiso   1.00
C510   C     0.36733   0.81010   0.21535   0.00000  Uiso   1.00
C511   C     0.65114   0.81006   0.21535   0.00000  Uiso   1.00
C512   C     0.49998   0.75399   0.25018   0.00000  Uiso   1.00
C513   C     0.52563   0.83430   0.15007   0.00000  Uiso   1.00
C514   C     0.60338   0.82714   0.01283   0.00000  Uiso   1.00
C515   C     0.54027   0.83286   0.09326   0.00000  Uiso   1.00
C516   C     0.42144   0.78698   0.42434   0.00000  Uiso   1.00
C517   C     0.40771   0.77831   0.47759   0.00000  Uiso   1.00
C518   C     0.43738   0.79079   0.00926   0.00000  Uiso   1.00
Cu519  Cu    0.45311   0.83333   0.25000   0.00000  Uiso   1.00
Cu520  Cu    0.54689   0.83334   0.25000   0.00000  Uiso   1.00
H521   H     0.60661   0.87498   0.31261   0.00000  Uiso   1.00
H522   H     0.39334   0.79142   0.18765   0.00000  Uiso   1.00
H523   H     0.64180   0.82806   0.49316   0.00000  Uiso   1.00
H524   H     0.56215   0.79622   0.36719   0.00000  Uiso   1.00
H525   H     0.57667   0.96117   0.22509   0.00000  Uiso   1.00
N526   N     0.38265   0.83332   0.24998   0.00000  Uiso   1.00
N527   N     0.61735   0.83335   0.24999   0.00000  Uiso   1.00
O528   O     0.46042   0.89345   0.25000   0.00000  Uiso   1.00
O529   O     0.53961   0.89346   0.25000   0.00000  Uiso   1.00
O530   O     0.44108   0.83332   0.32549   0.00000  Uiso   1.00
O531   O     0.52027   0.83333   0.32549   0.00000  Uiso   1.00
O532   O     0.46039   0.77321   0.24999   0.00000  Uiso   1.00
O533   O     0.53958   0.77322   0.24999   0.00000  Uiso   1.00
O534   O     0.47973   0.83334   0.17451   0.00000  Uiso   1.00
O535   O     0.55892   0.83335   0.17451   0.00000  Uiso   1.00
F536   F     0.62521   0.83711   0.09005   0.00000  Uiso   1.00
N537   N     0.58957   0.70691   0.21917   0.00000  Uiso   1.00
H538   H     0.61099   0.69783   0.24318   0.00000  Uiso   1.00
H539   H     0.60678   0.69692   0.18157   0.00000  Uiso   1.00
N540   N     0.40910   0.71038   0.28096   0.00000  Uiso   1.00
H541   H     0.38899   0.70291   0.25518   0.00000  Uiso   1.00
H542   H     0.38936   0.70198   0.31835   0.00000  Uiso   1.00
N543   N     0.40893   0.95730   0.28551   0.00000  Uiso   1.00
H544   H     0.38635   0.96517   0.26227   0.00000  Uiso   1.00
H545   H     0.39203   0.96562   0.32384   0.00000  Uiso   1.00
F546   F     0.36247   0.87946   0.32016   0.00000  Uiso   1.00
F547   F     0.63734   0.78653   0.18050   0.00000  Uiso   1.00
N548   N     0.63264   0.80510   0.40531   0.00000  Uiso   1.00
H549   H     0.65222   0.83169   0.40697   0.00000  Uiso   1.00
H550   H     0.64514   0.78124   0.42420   0.00000  Uiso   1.00
F551   F     0.45845   0.84215   0.08971   0.00000  Uiso   1.00
N552   N     0.39933   0.76398   0.39161   0.00000  Uiso   1.00
H553   H     0.42607   0.74480   0.36870   0.00000  Uiso   1.00
H554   H     0.38719   0.78335   0.36698   0.00000  Uiso   1.00
N555   N     0.42512   0.77772   0.06233   0.00000  Uiso   1.00
H556   H     0.42411   0.74579   0.06373   0.00000  Uiso   1.00
H557   H     0.39075   0.78928   0.08159   0.00000  Uiso   1.00
N558   N     0.36529   0.75387   0.49820   0.00000  Uiso   1.00
H559   H     0.34209   0.76914   0.02962   0.00000  Uiso   1.00
H560   H     0.37593   0.72616   0.01133   0.00000  Uiso   1.00
C561   C     0.83282   0.91252   0.25103   0.00000  Uiso   1.00
C562   C     0.81677   0.80894   0.48587   0.00000  Uiso   1.00
C563   C     0.83198   0.81087   0.43116   0.00000  Uiso   1.00
C564   C     0.85146   0.81933   0.01327   0.00000  Uiso   1.00
C565   C     0.90177   0.81987   0.48619   0.00000  Uiso   1.00
C566   C     0.91636   0.81166   0.43303   0.00000  Uiso   1.00
C567   C     0.88197   0.80717   0.40644   0.00000  Uiso   1.00
C568   C     0.83813   0.83012   0.06605   0.00000  Uiso   1.00
C569   C     0.92303   0.83220   0.06592   0.00000  Uiso   1.00
C570   C     0.79719   0.80950   0.40260   0.00000  Uiso   1.00
C571   C     0.87584   0.97782   0.23727   0.00000  Uiso   1.00
C572   C     0.80861   0.82542   0.34837   0.00000  Uiso   1.00
C573   C     0.87684   0.68687   0.23648   0.00000  Uiso   1.00
C574   C     0.83273   0.70919   0.25119   0.00000  Uiso   1.00
C575   C     0.78778   0.68824   0.26660   0.00000  Uiso   1.00
C576   C     0.78746   0.97875   0.26772   0.00000  Uiso   1.00
C577   C     0.83177   0.95701   0.25230   0.00000  Uiso   1.00
C578   C     0.96598   0.85646   0.28474   0.00000  Uiso   1.00
C579   C     0.68214   0.85639   0.28485   0.00000  Uiso   1.00
C580   C     0.70067   0.81010   0.21535   0.00000  Uiso   1.00
C581   C     0.98447   0.81006   0.21535   0.00000  Uiso   1.00
C582   C     0.83332   0.75399   0.25018   0.00000  Uiso   1.00
C583   C     0.85896   0.83430   0.15007   0.00000  Uiso   1.00
C584   C     0.93671   0.82714   0.01283   0.00000  Uiso   1.00
C585   C     0.87361   0.83286   0.09326   0.00000  Uiso   1.00
C586   C     0.75478   0.78698   0.42434   0.00000  Uiso   1.00
C587   C     0.74104   0.77831   0.47759   0.00000  Uiso   1.00
C588   C     0.77071   0.79079   0.00926   0.00000  Uiso   1.00
Cu589  Cu    0.78645   0.83333   0.25000   0.00000  Uiso   1.00
Cu590  Cu    0.88022   0.83334   0.25000   0.00000  Uiso   1.00
H591   H     0.93994   0.87498   0.31261   0.00000  Uiso   1.00
H592   H     0.72668   0.79142   0.18765   0.00000  Uiso   1.00
H593   H     0.97514   0.82806   0.49316   0.00000  Uiso   1.00
H594   H     0.89548   0.79622   0.36719   0.00000  Uiso   1.00
H595   H     0.91001   0.96117   0.22509   0.00000  Uiso   1.00
N596   N     0.71598   0.83332   0.24998   0.00000  Uiso   1.00
N597   N     0.95069   0.83335   0.24999   0.00000  Uiso   1.00
O598   O     0.79375   0.89345   0.25000   0.00000  Uiso   1.00
O599   O     0.87294   0.89346   0.25000   0.00000  Uiso   1.00
O600   O     0.77441   0.83332   0.32549   0.00000  Uiso   1.00
O601   O     0.85360   0.83333   0.32549   0.00000  Uiso   1.00
O602   O     0.79373   0.77321   0.24999   0.00000  Uiso   1.00
O603   O     0.87292   0.77322   0.24999   0.00000  Uiso   1.00
O604   O     0.81306   0.83334   0.17451   0.00000  Uiso   1.00
O605   O     0.89225   0.83335   0.17451   0.00000  Uiso   1.00
F606   F     0.95854   0.83711   0.09005   0.00000  Uiso   1.00
N607   N     0.92290   0.70691   0.21917   0.00000  Uiso   1.00
H608   H     0.94432   0.69783   0.24318   0.00000  Uiso   1.00
H609   H     0.94011   0.69692   0.18157   0.00000  Uiso   1.00
N610   N     0.74243   0.71038   0.28096   0.00000  Uiso   1.00
H611   H     0.72232   0.70291   0.25518   0.00000  Uiso   1.00
H612   H     0.72270   0.70198   0.31835   0.00000  Uiso   1.00
N613   N     0.74226   0.95730   0.28551   0.00000  Uiso   1.00
H614   H     0.71968   0.96517   0.26227   0.00000  Uiso   1.00
H615   H     0.72536   0.96562   0.32384   0.00000  Uiso   1.00
F616   F     0.69581   0.87946   0.32016   0.00000  Uiso   1.00
F617   F     0.97068   0.78653   0.18050   0.00000  Uiso   1.00
N618   N     0.96598   0.80510   0.40531   0.00000  Uiso   1.00
H619   H     0.98555   0.83169   0.40697   0.00000  Uiso   1.00
H620   H     0.97847   0.78124   0.42420   0.00000  Uiso   1.00
F621   F     0.79179   0.84215   0.08971   0.00000  Uiso   1.00
N622   N     0.73267   0.76398   0.39161   0.00000  Uiso   1.00
H623   H     0.75941   0.74480   0.36870   0.00000  Uiso   1.00
H624   H     0.72053   0.78335   0.36698   0.00000  Uiso   1.00
N625   N     0.75846   0.77772   0.06233   0.00000  Uiso   1.00
H626   H     0.75745   0.74579   0.06373   0.00000  Uiso   1.00
H627   H     0.72408   0.78928   0.08159   0.00000  Uiso   1.00
N628   N     0.69862   0.75387   0.49820   0.00000  Uiso   1.00
H629   H     0.67542   0.76914   0.02962   0.00000  Uiso   1.00
H630   H     0.70926   0.72616   0.01133   0.00000  Uiso   1.00
C631   C     0.16615   0.24585   0.75103   0.00000  Uiso   1.00
C632   C     0.15010   0.14227   0.98587   0.00000  Uiso   1.00
C633   C     0.16532   0.14421   0.93116   0.00000  Uiso   1.00
C634   C     0.18479   0.15267   0.51327   0.00000  Uiso   1.00
C635   C     0.23511   0.15320   0.98619   0.00000  Uiso   1.00
C636   C     0.24969   0.14499   0.93303   0.00000  Uiso   1.00
C637   C     0.21530   0.14050   0.90644   0.00000  Uiso   1.00
C638   C     0.17146   0.16345   0.56605   0.00000  Uiso   1.00
C639   C     0.25637   0.16553   0.56592   0.00000  Uiso   1.00
C640   C     0.13052   0.14283   0.90260   0.00000  Uiso   1.00
C641   C     0.20918   0.31115   0.73727   0.00000  Uiso   1.00
C642   C     0.14195   0.15875   0.84837   0.00000  Uiso   1.00
C643   C     0.21017   0.02020   0.73648   0.00000  Uiso   1.00
C644   C     0.16607   0.04252   0.75119   0.00000  Uiso   1.00
C645   C     0.12111   0.02157   0.76660   0.00000  Uiso   1.00
C646   C     0.12079   0.31208   0.76772   0.00000  Uiso   1.00
C647   C     0.16510   0.29034   0.75230   0.00000  Uiso   1.00
C648   C     0.29931   0.18979   0.78474   0.00000  Uiso   1.00
C649   C     0.01547   0.18973   0.78485   0.00000  Uiso   1.00
C650   C     0.03400   0.14343   0.71535   0.00000  Uiso   1.00
C651   C     0.31780   0.14339   0.71535   0.00000  Uiso   1.00
C652   C     0.16665   0.08733   0.75018   0.00000  Uiso   1.00
C653   C     0.19229   0.16764   0.65007   0.00000  Uiso   1.00
C654   C     0.27005   0.16047   0.51283   0.00000  Uiso   1.00
C655   C     0.20694   0.16619   0.59326   0.00000  Uiso   1.00
C656   C     0.08811   0.12031   0.92434   0.00000  Uiso   1.00
C657   C     0.07437   0.11165   0.97759   0.00000  Uiso   1.00
C658   C     0.10405   0.12412   0.50926   0.00000  Uiso   1.00
Cu659  Cu    0.11978   0.16666   0.75000   0.00000  Uiso   1.00
Cu660  Cu    0.21355   0.16667   0.75000   0.00000  Uiso   1.00
H661   H     0.27327   0.20831   0.81261   0.00000  Uiso   1.00
H662   H     0.06001   0.12475   0.68765   0.00000  Uiso   1.00
H663   H     0.30847   0.16139   0.99316   0.00000  Uiso   1.00
H664   H     0.22881   0.12955   0.86719   0.00000  Uiso   1.00
H665   H     0.24334   0.29451   0.72509   0.00000  Uiso   1.00
N666   N     0.04931   0.16666   0.74998   0.00000  Uiso   1.00
N667   N     0.28402   0.16669   0.74999   0.00000  Uiso   1.00
O668   O     0.12708   0.22678   0.75000   0.00000  Uiso   1.00
O669   O     0.20627   0.22679   0.75000   0.00000  Uiso   1.00
O670   O     0.10775   0.16665   0.82549   0.00000  Uiso   1.00
O671   O     0.18694   0.16666   0.82549   0.00000  Uiso   1.00
O672   O     0.12706   0.10654   0.74999   0.00000  Uiso   1.00
O673   O     0.20625   0.10655   0.74999   0.00000  Uiso   1.00
O674   O     0.14640   0.16667   0.67451   0.00000  Uiso   1.00
O675   O     0.22559   0.16668   0.67451   0.00000  Uiso   1.00
F676   F     0.29188   0.17045   0.59005   0.00000  Uiso   1.00
N677   N     0.25624   0.04024   0.71917   0.00000  Uiso   1.00
H678   H     0.27766   0.03117   0.74318   0.00000  Uiso   1.00
H679   H     0.27345   0.03025   0.68157   0.00000  Uiso   1.00
N680   N     0.07577   0.04371   0.78096   0.00000  Uiso   1.00
H681   H     0.05566   0.03624   0.75518   0.00000  Uiso   1.00
H682   H     0.05603   0.03531   0.81835   0.00000  Uiso   1.00
N683   N     0.07559   0.29063   0.78551   0.00000  Uiso   1.00
H684   H     0.05302   0.29850   0.76227   0.00000  Uiso   1.00
H685   H     0.05870   0.29895   0.82384   0.00000  Uiso   1.00
F686   F     0.02914   0.21279   0.82016   0.00000  Uiso   1.00
F687   F     0.30401   0.11987   0.68050   0.00000  Uiso   1.00
N688   N     0.29931   0.13843   0.90531   0.00000  Uiso   1.00
H689   H     0.31888   0.16503   0.90697   0.00000  Uiso   1.00
H690   H     0.31180   0.11457   0.92420   0.00000  Uiso   1.00
F691   F     0.12512   0.17549   0.58971   0.00000  Uiso   1.00
N692   N     0.06600   0.09731   0.89161   0.00000  Uiso   1.00
H693   H     0.09274   0.07814   0.86870   0.00000  Uiso   1.00
H694   H     0.05386   0.11669   0.86698   0.00000  Uiso   1.00
N695   N     0.09179   0.11105   0.56233   0.00000  Uiso   1.00
H696   H     0.09078   0.07912   0.56373   0.00000  Uiso   1.00
H697   H     0.05741   0.12261   0.58159   0.00000  Uiso   1.00
N698   N     0.03195   0.08720   0.99820   0.00000  Uiso   1.00
H699   H     0.00875   0.10248   0.52962   0.00000  Uiso   1.00
H700   H     0.04260   0.05949   0.51133   0.00000  Uiso   1.00
C701   C     0.49948   0.24585   0.75103   0.00000  Uiso   1.00
C702   C     0.48343   0.14227   0.98587   0.00000  Uiso   1.00
C703   C     0.49865   0.14421   0.93116   0.00000  Uiso   1.00
C704   C     0.51812   0.15267   0.51327   0.00000  Uiso   1.00
C705   C     0.56844   0.15320   0.98619   0.00000  Uiso   1.00
C706   C     0.58302   0.14499   0.93303   0.00000  Uiso   1.00
C707   C     0.54864   0.14050   0.90644   0.00000  Uiso   1.00
C708   C     0.50479   0.16345   0.56605   0.00000  Uiso   1.00
C709   C     0.58970   0.16553   0.56592   0.00000  Uiso   1.00
C710   C     0.46386   0.14283   0.90260   0.00000  Uiso   1.00
C711   C     0.54251   0.31115   0.73727   0.00000  Uiso   1.00
C712   C     0.47528   0.15875   0.84837   0.00000  Uiso   1.00
C713   C     0.54351   0.02020   0.73648   0.00000  Uiso   1.00
C714   C     0.49940   0.04252   0.75119   0.00000  Uiso   1.00
C715   C     0.45445   0.02157   0.76660   0.00000  Uiso   1.00
C716   C     0.45413   0.31208   0.76772   0.00000  Uiso   1.00
C717   C     0.49844   0.29034   0.75230   0.00000  Uiso   1.00
C718   C     0.63265   0.18979   0.78474   0.00000  Uiso   1.00
C719   C     0.34881   0.18973   0.78485   0.00000  Uiso   1.00
C720   C     0.36733   0.14343   0.71535   0.00000  Uiso   1.00
C721   C     0.65114   0.14339   0.71535   0.00000  Uiso   1.00
C722   C     0.49998   0.08733   0.75018   0.00000  Uiso   1.00
C723   C     0.52563   0.16764   0.65007   0.00000  Uiso   1.00
C724   C     0.60338   0.16047   0.51283   0.00000  Uiso   1.00
C725   C     0.54027   0.16619   0.59326   0.00000  Uiso   1.00
C726   C     0.42144   0.12031   0.92434   0.00000  Uiso   1.00
C727   C     0.40771   0.11165   0.97759   0.00000  Uiso   1.00
C728   C     0.43738   0.12412   0.50926   0.00000  Uiso   1.00
Cu729  Cu    0.45311   0.16666   0.75000   0.00000  Uiso   1.00
Cu730  Cu    0.54689   0.16667   0.75000   0.00000  Uiso   1.00
H731   H     0.60661   0.20831   0.81261   0.00000  Uiso   1.00
H732   H     0.39334   0.12475   0.68765   0.00000  Uiso   1.00
H733   H     0.64180   0.16139   0.99316   0.00000  Uiso   1.00
H734   H     0.56215   0.12955   0.86719   0.00000  Uiso   1.00
H735   H     0.57667   0.29451   0.72509   0.00000  Uiso   1.00
N736   N     0.38265   0.16666   0.74998   0.00000  Uiso   1.00
N737   N     0.61735   0.16669   0.74999   0.00000  Uiso   1.00
O738   O     0.46042   0.22678   0.75000   0.00000  Uiso   1.00
O739   O     0.53961   0.22679   0.75000   0.00000  Uiso   1.00
O740   O     0.44108   0.16665   0.82549   0.00000  Uiso   1.00
O741   O     0.52027   0.16666   0.82549   0.00000  Uiso   1.00
O742   O     0.46039   0.10654   0.74999   0.00000  Uiso   1.00
O743   O     0.53958   0.10655   0.74999   0.00000  Uiso   1.00
O744   O     0.47973   0.16667   0.67451   0.00000  Uiso   1.00
O745   O     0.55892   0.16668   0.67451   0.00000  Uiso   1.00
F746   F     0.62521   0.17045   0.59005   0.00000  Uiso   1.00
N747   N     0.58957   0.04024   0.71917   0.00000  Uiso   1.00
H748   H     0.61099   0.03117   0.74318   0.00000  Uiso   1.00
H749   H     0.60678   0.03025   0.68157   0.00000  Uiso   1.00
N750   N     0.40910   0.04371   0.78096   0.00000  Uiso   1.00
H751   H     0.38899   0.03624   0.75518   0.00000  Uiso   1.00
H752   H     0.38936   0.03531   0.81835   0.00000  Uiso   1.00
N753   N     0.40893   0.29063   0.78551   0.00000  Uiso   1.00
H754   H     0.38635   0.29850   0.76227   0.00000  Uiso   1.00
H755   H     0.39203   0.29895   0.82384   0.00000  Uiso   1.00
F756   F     0.36247   0.21279   0.82016   0.00000  Uiso   1.00
F757   F     0.63734   0.11987   0.68050   0.00000  Uiso   1.00
N758   N     0.63264   0.13843   0.90531   0.00000  Uiso   1.00
H759   H     0.65222   0.16503   0.90697   0.00000  Uiso   1.00
H760   H     0.64514   0.11457   0.92420   0.00000  Uiso   1.00
F761   F     0.45845   0.17549   0.58971   0.00000  Uiso   1.00
N762   N     0.39933   0.09731   0.89161   0.00000  Uiso   1.00
H763   H     0.42607   0.07814   0.86870   0.00000  Uiso   1.00
H764   H     0.38719   0.11669   0.86698   0.00000  Uiso   1.00
N765   N     0.42512   0.11105   0.56233   0.00000  Uiso   1.00
H766   H     0.42411   0.07912   0.56373   0.00000  Uiso   1.00
H767   H     0.39075   0.12261   0.58159   0.00000  Uiso   1.00
N768   N     0.36529   0.08720   0.99820   0.00000  Uiso   1.00
H769   H     0.34209   0.10248   0.52962   0.00000  Uiso   1.00
H770   H     0.37593   0.05949   0.51133   0.00000  Uiso   1.00
C771   C     0.83282   0.24585   0.75103   0.00000  Uiso   1.00
C772   C     0.81677   0.14227   0.98587   0.00000  Uiso   1.00
C773   C     0.83198   0.14421   0.93116   0.00000  Uiso   1.00
C774   C     0.85146   0.15267   0.51327   0.00000  Uiso   1.00
C775   C     0.90177   0.15320   0.98619   0.00000  Uiso   1.00
C776   C     0.91636   0.14499   0.93303   0.00000  Uiso   1.00
C777   C     0.88197   0.14050   0.90644   0.00000  Uiso   1.00
C778   C     0.83813   0.16345   0.56605   0.00000  Uiso   1.00
C779   C     0.92303   0.16553   0.56592   0.00000  Uiso   1.00
C780   C     0.79719   0.14283   0.90260   0.00000  Uiso   1.00
C781   C     0.87584   0.31115   0.73727   0.00000  Uiso   1.00
C782   C     0.80861   0.15875   0.84837   0.00000  Uiso   1.00
C783   C     0.87684   0.02020   0.73648   0.00000  Uiso   1.00
C784   C     0.83273   0.04252   0.75119   0.00000  Uiso   1.00
C785   C     0.78778   0.02157   0.76660   0.00000  Uiso   1.00
C786   C     0.78746   0.31208   0.76772   0.00000  Uiso   1.00
C787   C     0.83177   0.29034   0.75230   0.00000  Uiso   1.00
C788   C     0.96598   0.18979   0.78474   0.00000  Uiso   1.00
C789   C     0.68214   0.18973   0.78485   0.00000  Uiso   1.00
C790   C     0.70067   0.14343   0.71535   0.00000  Uiso   1.00
C791   C     0.98447   0.14339   0.71535   0.00000  Uiso   1.00
C792   C     0.83332   0.08733   0.75018   0.00000  Uiso   1.00
C793   C     0.85896   0.16764   0.65007   0.00000  Uiso   1.00
C794   C     0.93671   0.16047   0.51283   0.00000  Uiso   1.00
C795   C     0.87361   0.16619   0.59326   0.00000  Uiso   1.00
C796   C     0.75478   0.12031   0.92434   0.00000  Uiso   1.00
C797   C     0.74104   0.11165   0.97759   0.00000  Uiso   1.00
C798   C     0.77071   0.12412   0.50926   0.00000  Uiso   1.00
Cu799  Cu    0.78645   0.16666   0.75000   0.00000  Uiso   1.00
Cu800  Cu    0.88022   0.16667   0.75000   0.00000  Uiso   1.00
H801   H     0.93994   0.20831   0.81261   0.00000  Uiso   1.00
H802   H     0.72668   0.12475   0.68765   0.00000  Uiso   1.00
H803   H     0.97514   0.16139   0.99316   0.00000  Uiso   1.00
H804   H     0.89548   0.12955   0.86719   0.00000  Uiso   1.00
H805   H     0.91001   0.29451   0.72509   0.00000  Uiso   1.00
N806   N     0.71598   0.16666   0.74998   0.00000  Uiso   1.00
N807   N     0.95069   0.16669   0.74999   0.00000  Uiso   1.00
O808   O     0.79375   0.22678   0.75000   0.00000  Uiso   1.00
O809   O     0.87294   0.22679   0.75000   0.00000  Uiso   1.00
O810   O     0.77441   0.16665   0.82549   0.00000  Uiso   1.00
O811   O     0.85360   0.16666   0.82549   0.00000  Uiso   1.00
O812   O     0.79373   0.10654   0.74999   0.00000  Uiso   1.00
O813   O     0.87292   0.10655   0.74999   0.00000  Uiso   1.00
O814   O     0.81306   0.16667   0.67451   0.00000  Uiso   1.00
O815   O     0.89225   0.16668   0.67451   0.00000  Uiso   1.00
F816   F     0.95854   0.17045   0.59005   0.00000  Uiso   1.00
N817   N     0.92290   0.04024   0.71917   0.00000  Uiso   1.00
H818   H     0.94432   0.03117   0.74318   0.00000  Uiso   1.00
H819   H     0.94011   0.03025   0.68157   0.00000  Uiso   1.00
N820   N     0.74243   0.04371   0.78096   0.00000  Uiso   1.00
H821   H     0.72232   0.03624   0.75518   0.00000  Uiso   1.00
H822   H     0.72270   0.03531   0.81835   0.00000  Uiso   1.00
N823   N     0.74226   0.29063   0.78551   0.00000  Uiso   1.00
H824   H     0.71968   0.29850   0.76227   0.00000  Uiso   1.00
H825   H     0.72536   0.29895   0.82384   0.00000  Uiso   1.00
F826   F     0.69581   0.21279   0.82016   0.00000  Uiso   1.00
F827   F     0.97068   0.11987   0.68050   0.00000  Uiso   1.00
N828   N     0.96598   0.13843   0.90531   0.00000  Uiso   1.00
H829   H     0.98555   0.16503   0.90697   0.00000  Uiso   1.00
H830   H     0.97847   0.11457   0.92420   0.00000  Uiso   1.00
F831   F     0.79179   0.17549   0.58971   0.00000  Uiso   1.00
N832   N     0.73267   0.09731   0.89161   0.00000  Uiso   1.00
H833   H     0.75941   0.07814   0.86870   0.00000  Uiso   1.00
H834   H     0.72053   0.11669   0.86698   0.00000  Uiso   1.00
N835   N     0.75846   0.11105   0.56233   0.00000  Uiso   1.00
H836   H     0.75745   0.07912   0.56373   0.00000  Uiso   1.00
H837   H     0.72408   0.12261   0.58159   0.00000  Uiso   1.00
N838   N     0.69862   0.08720   0.99820   0.00000  Uiso   1.00
H839   H     0.67542   0.10248   0.52962   0.00000  Uiso   1.00
H840   H     0.70926   0.05949   0.51133   0.00000  Uiso   1.00
C841   C     0.16615   0.57919   0.75103   0.00000  Uiso   1.00
C842   C     0.15010   0.47561   0.98587   0.00000  Uiso   1.00
C843   C     0.16532   0.47754   0.93116   0.00000  Uiso   1.00
C844   C     0.18479   0.48600   0.51327   0.00000  Uiso   1.00
C845   C     0.23511   0.48654   0.98619   0.00000  Uiso   1.00
C846   C     0.24969   0.47832   0.93303   0.00000  Uiso   1.00
C847   C     0.21530   0.47384   0.90644   0.00000  Uiso   1.00
C848   C     0.17146   0.49679   0.56605   0.00000  Uiso   1.00
C849   C     0.25637   0.49886   0.56592   0.00000  Uiso   1.00
C850   C     0.13052   0.47617   0.90260   0.00000  Uiso   1.00
C851   C     0.20918   0.64449   0.73727   0.00000  Uiso   1.00
C852   C     0.14195   0.49208   0.84837   0.00000  Uiso   1.00
C853   C     0.21017   0.35353   0.73648   0.00000  Uiso   1.00
C854   C     0.16607   0.37586   0.75119   0.00000  Uiso   1.00
C855   C     0.12111   0.35491   0.76660   0.00000  Uiso   1.00
C856   C     0.12079   0.64541   0.76772   0.00000  Uiso   1.00
C857   C     0.16510   0.62368   0.75230   0.00000  Uiso   1.00
C858   C     0.29931   0.52312   0.78474   0.00000  Uiso   1.00
C859   C     0.01547   0.52306   0.78485   0.00000  Uiso   1.00
C860   C     0.03400   0.47677   0.71535   0.00000  Uiso   1.00
C861   C     0.31780   0.47672   0.71535   0.00000  Uiso   1.00
C862   C     0.16665   0.42066   0.75018   0.00000  Uiso   1.00
C863   C     0.19229   0.50097   0.65007   0.00000  Uiso   1.00
C864   C     0.27005   0.49380   0.51283   0.00000  Uiso   1.00
C865   C     0.20694   0.49952   0.59326   0.00000  Uiso   1.00
C866   C     0.08811   0.45364   0.92434   0.00000  Uiso   1.00
C867   C     0.07437   0.44498   0.97759   0.00000  Uiso   1.00
C868   C     0.10405   0.45746   0.50926   0.00000  Uiso   1.00
Cu869  Cu    0.11978   0.49999   0.75000   0.00000  Uiso   1.00
Cu870  Cu    0.21355   0.50001   0.75000   0.00000  Uiso   1.00
H871   H     0.27327   0.54165   0.81261   0.00000  Uiso   1.00
H872   H     0.06001   0.45809   0.68765   0.00000  Uiso   1.00
H873   H     0.30847   0.49472   0.99316   0.00000  Uiso   1.00
H874   H     0.22881   0.46289   0.86719   0.00000  Uiso   1.00
H875   H     0.24334   0.62784   0.72509   0.00000  Uiso   1.00
N876   N     0.04931   0.49999   0.74998   0.00000  Uiso   1.00
N877   N     0.28402   0.50002   0.74999   0.00000  Uiso   1.00
O878   O     0.12708   0.56011   0.75000   0.00000  Uiso   1.00
O879   O     0.20627   0.56012   0.75000   0.00000  Uiso   1.00
O880   O     0.10775   0.49998   0.82549   0.00000  Uiso   1.00
O881   O     0.18694   0.49999   0.82549   0.00000  Uiso   1.00
O882   O     0.12706   0.43988   0.74999   0.00000  Uiso   1.00
O883   O     0.20625   0.43989   0.74999   0.00000  Uiso   1.00
O884   O     0.14640   0.50001   0.67451   0.00000  Uiso   1.00
O885   O     0.22559   0.50002   0.67451   0.00000  Uiso   1.00
F886   F     0.29188   0.50378   0.59005   0.00000  Uiso   1.00
N887   N     0.25624   0.37357   0.71917   0.00000  Uiso   1.00
H888   H     0.27766   0.36450   0.74318   0.00000  Uiso   1.00
H889   H     0.27345   0.36359   0.68157   0.00000  Uiso   1.00
N890   N     0.07577   0.37704   0.78096   0.00000  Uiso   1.00
H891   H     0.05566   0.36957   0.75518   0.00000  Uiso   1.00
H892   H     0.05603   0.36865   0.81835   0.00000  Uiso   1.00
N893   N     0.07559   0.62396   0.78551   0.00000  Uiso   1.00
H894   H     0.05302   0.63183   0.76227   0.00000  Uiso   1.00
H895   H     0.05870   0.63228   0.82384   0.00000  Uiso   1.00
F896   F     0.02914   0.54612   0.82016   0.00000  Uiso   1.00
F897   F     0.30401   0.45320   0.68050   0.00000  Uiso   1.00
N898   N     0.29931   0.47177   0.90531   0.00000  Uiso   1.00
H899   H     0.31888   0.49836   0.90697   0.00000  Uiso   1.00
H900   H     0.31180   0.44790   0.92420   0.00000  Uiso   1.00
F901   F     0.12512   0.50882   0.58971   0.00000  Uiso   1.00
N902   N     0.06600   0.43064   0.89161   0.00000  Uiso   1.00
H903   H     0.09274   0.41147   0.86870   0.00000  Uiso   1.00
H904   H     0.05386   0.45002   0.86698   0.00000  Uiso   1.00
N905   N     0.09179   0.44439   0.56233   0.00000  Uiso   1.00
H906   H     0.09078   0.41245   0.56373   0.00000  Uiso   1.00
H907   H     0.05741   0.45594   0.58159   0.00000  Uiso   1.00
N908   N     0.03195   0.42054   0.99820   0.00000  Uiso   1.00
H909   H     0.00875   0.43581   0.52962   0.00000  Uiso   1.00
H910   H     0.04260   0.39283   0.51133   0.00000  Uiso   1.00
C911   C     0.49948   0.57919   0.75103   0.00000  Uiso   1.00
C912   C     0.48343   0.47561   0.98587   0.00000  Uiso   1.00
C913   C     0.49865   0.47754   0.93116   0.00000  Uiso   1.00
C914   C     0.51812   0.48600   0.51327   0.00000  Uiso   1.00
C915   C     0.56844   0.48654   0.98619   0.00000  Uiso   1.00
C916   C     0.58302   0.47832   0.93303   0.00000  Uiso   1.00
C917   C     0.54864   0.47384   0.90644   0.00000  Uiso   1.00
C918   C     0.50479   0.49679   0.56605   0.00000  Uiso   1.00
C919   C     0.58970   0.49886   0.56592   0.00000  Uiso   1.00
C920   C     0.46386   0.47617   0.90260   0.00000  Uiso   1.00
C921   C     0.54251   0.64449   0.73727   0.00000  Uiso   1.00
C922   C     0.47528   0.49208   0.84837   0.00000  Uiso   1.00
C923   C     0.54351   0.35353   0.73648   0.00000  Uiso   1.00
C924   C     0.49940   0.37586   0.75119   0.00000  Uiso   1.00
C925   C     0.45445   0.35491   0.76660   0.00000  Uiso   1.00
C926   C     0.45413   0.64541   0.76772   0.00000  Uiso   1.00
C927   C     0.49844   0.62368   0.75230   0.00000  Uiso   1.00
C928   C     0.63265   0.52312   0.78474   0.00000  Uiso   1.00
C929   C     0.34881   0.52306   0.78485   0.00000  Uiso   1.00
C930   C     0.36733   0.47677   0.71535   0.00000  Uiso   1.00
C931   C     0.65114   0.47672   0.71535   0.00000  Uiso   1.00
C932   C     0.49998   0.42066   0.75018   0.00000  Uiso   1.00
C933   C     0.52563   0.50097   0.65007   0.00000  Uiso   1.00
C934   C     0.60338   0.49380   0.51283   0.00000  Uiso   1.00
C935   C     0.54027   0.49952   0.59326   0.00000  Uiso   1.00
C936   C     0.42144   0.45364   0.92434   0.00000  Uiso   1.00
C937   C     0.40771   0.44498   0.97759   0.00000  Uiso   1.00
C938   C     0.43738   0.45746   0.50926   0.00000  Uiso   1.00
Cu939  Cu    0.45311   0.49999   0.75000   0.00000  Uiso   1.00
Cu940  Cu    0.54689   0.50001   0.75000   0.00000  Uiso   1.00
H941   H     0.60661   0.54165   0.81261   0.00000  Uiso   1.00
H942   H     0.39334   0.45809   0.68765   0.00000  Uiso   1.00
H943   H     0.64180   0.49472   0.99316   0.00000  Uiso   1.00
H944   H     0.56215   0.46289   0.86719   0.00000  Uiso   1.00
H945   H     0.57667   0.62784   0.72509   0.00000  Uiso   1.00
N946   N     0.38265   0.49999   0.74998   0.00000  Uiso   1.00
N947   N     0.61735   0.50002   0.74999   0.00000  Uiso   1.00
O948   O     0.46042   0.56011   0.75000   0.00000  Uiso   1.00
O949   O     0.53961   0.56012   0.75000   0.00000  Uiso   1.00
O950   O     0.44108   0.49998   0.82549   0.00000  Uiso   1.00
O951   O     0.52027   0.49999   0.82549   0.00000  Uiso   1.00
O952   O     0.46039   0.43988   0.74999   0.00000  Uiso   1.00
O953   O     0.53958   0.43989   0.74999   0.00000  Uiso   1.00
O954   O     0.47973   0.50001   0.67451   0.00000  Uiso   1.00
O955   O     0.55892   0.50002   0.67451   0.00000  Uiso   1.00
F956   F     0.62521   0.50378   0.59005   0.00000  Uiso   1.00
N957   N     0.58957   0.37357   0.71917   0.00000  Uiso   1.00
H958   H     0.61099   0.36450   0.74318   0.00000  Uiso   1.00
H959   H     0.60678   0.36359   0.68157   0.00000  Uiso   1.00
N960   N     0.40910   0.37704   0.78096   0.00000  Uiso   1.00
H961   H     0.38899   0.36957   0.75518   0.00000  Uiso   1.00
H962   H     0.38936   0.36865   0.81835   0.00000  Uiso   1.00
N963   N     0.40893   0.62396   0.78551   0.00000  Uiso   1.00
H964   H     0.38635   0.63183   0.76227   0.00000  Uiso   1.00
H965   H     0.39203   0.63228   0.82384   0.00000  Uiso   1.00
F966   F     0.36247   0.54612   0.82016   0.00000  Uiso   1.00
F967   F     0.63734   0.45320   0.68050   0.00000  Uiso   1.00
N968   N     0.63264   0.47177   0.90531   0.00000  Uiso   1.00
H969   H     0.65222   0.49836   0.90697   0.00000  Uiso   1.00
H970   H     0.64514   0.44790   0.92420   0.00000  Uiso   1.00
F971   F     0.45845   0.50882   0.58971   0.00000  Uiso   1.00
N972   N     0.39933   0.43064   0.89161   0.00000  Uiso   1.00
H973   H     0.42607   0.41147   0.86870   0.00000  Uiso   1.00
H974   H     0.38719   0.45002   0.86698   0.00000  Uiso   1.00
N975   N     0.42512   0.44439   0.56233   0.00000  Uiso   1.00
H976   H     0.42411   0.41245   0.56373   0.00000  Uiso   1.00
H977   H     0.39075   0.45594   0.58159   0.00000  Uiso   1.00
N978   N     0.36529   0.42054   0.99820   0.00000  Uiso   1.00
H979   H     0.34209   0.43581   0.52962   0.00000  Uiso   1.00
H980   H     0.37593   0.39283   0.51133   0.00000  Uiso   1.00
C981   C     0.83282   0.57919   0.75103   0.00000  Uiso   1.00
C982   C     0.81677   0.47561   0.98587   0.00000  Uiso   1.00
C983   C     0.83198   0.47754   0.93116   0.00000  Uiso   1.00
C984   C     0.85146   0.48600   0.51327   0.00000  Uiso   1.00
C985   C     0.90177   0.48654   0.98619   0.00000  Uiso   1.00
C986   C     0.91636   0.47832   0.93303   0.00000  Uiso   1.00
C987   C     0.88197   0.47384   0.90644   0.00000  Uiso   1.00
C988   C     0.83813   0.49679   0.56605   0.00000  Uiso   1.00
C989   C     0.92303   0.49886   0.56592   0.00000  Uiso   1.00
C990   C     0.79719   0.47617   0.90260   0.00000  Uiso   1.00
C991   C     0.87584   0.64449   0.73727   0.00000  Uiso   1.00
C992   C     0.80861   0.49208   0.84837   0.00000  Uiso   1.00
C993   C     0.87684   0.35353   0.73648   0.00000  Uiso   1.00
C994   C     0.83273   0.37586   0.75119   0.00000  Uiso   1.00
C995   C     0.78778   0.35491   0.76660   0.00000  Uiso   1.00
C996   C     0.78746   0.64541   0.76772   0.00000  Uiso   1.00
C997   C     0.83177   0.62368   0.75230   0.00000  Uiso   1.00
C998   C     0.96598   0.52312   0.78474   0.00000  Uiso   1.00
C999   C     0.68214   0.52306   0.78485   0.00000  Uiso   1.00
C1000  C     0.70067   0.47677   0.71535   0.00000  Uiso   1.00
C1001  C     0.98447   0.47672   0.71535   0.00000  Uiso   1.00
C1002  C     0.83332   0.42066   0.75018   0.00000  Uiso   1.00
C1003  C     0.85896   0.50097   0.65007   0.00000  Uiso   1.00
C1004  C     0.93671   0.49380   0.51283   0.00000  Uiso   1.00
C1005  C     0.87361   0.49952   0.59326   0.00000  Uiso   1.00
C1006  C     0.75478   0.45364   0.92434   0.00000  Uiso   1.00
C1007  C     0.74104   0.44498   0.97759   0.00000  Uiso   1.00
C1008  C     0.77071   0.45746   0.50926   0.00000  Uiso   1.00
Cu1009 Cu    0.78645   0.49999   0.75000   0.00000  Uiso   1.00
Cu1010 Cu    0.88022   0.50001   0.75000   0.00000  Uiso   1.00
H1011  H     0.93994   0.54165   0.81261   0.00000  Uiso   1.00
H1012  H     0.72668   0.45809   0.68765   0.00000  Uiso   1.00
H1013  H     0.97514   0.49472   0.99316   0.00000  Uiso   1.00
H1014  H     0.89548   0.46289   0.86719   0.00000  Uiso   1.00
H1015  H     0.91001   0.62784   0.72509   0.00000  Uiso   1.00
N1016  N     0.71598   0.49999   0.74998   0.00000  Uiso   1.00
N1017  N     0.95069   0.50002   0.74999   0.00000  Uiso   1.00
O1018  O     0.79375   0.56011   0.75000   0.00000  Uiso   1.00
O1019  O     0.87294   0.56012   0.75000   0.00000  Uiso   1.00
O1020  O     0.77441   0.49998   0.82549   0.00000  Uiso   1.00
O1021  O     0.85360   0.49999   0.82549   0.00000  Uiso   1.00
O1022  O     0.79373   0.43988   0.74999   0.00000  Uiso   1.00
O1023  O     0.87292   0.43989   0.74999   0.00000  Uiso   1.00
O1024  O     0.81306   0.50001   0.67451   0.00000  Uiso   1.00
O1025  O     0.89225   0.50002   0.67451   0.00000  Uiso   1.00
F1026  F     0.95854   0.50378   0.59005   0.00000  Uiso   1.00
N1027  N     0.92290   0.37357   0.71917   0.00000  Uiso   1.00
H1028  H     0.94432   0.36450   0.74318   0.00000  Uiso   1.00
H1029  H     0.94011   0.36359   0.68157   0.00000  Uiso   1.00
N1030  N     0.74243   0.37704   0.78096   0.00000  Uiso   1.00
H1031  H     0.72232   0.36957   0.75518   0.00000  Uiso   1.00
H1032  H     0.72270   0.36865   0.81835   0.00000  Uiso   1.00
N1033  N     0.74226   0.62396   0.78551   0.00000  Uiso   1.00
H1034  H     0.71968   0.63183   0.76227   0.00000  Uiso   1.00
H1035  H     0.72536   0.63228   0.82384   0.00000  Uiso   1.00
F1036  F     0.69581   0.54612   0.82016   0.00000  Uiso   1.00
F1037  F     0.97068   0.45320   0.68050   0.00000  Uiso   1.00
N1038  N     0.96598   0.47177   0.90531   0.00000  Uiso   1.00
H1039  H     0.98555   0.49836   0.90697   0.00000  Uiso   1.00
H1040  H     0.97847   0.44790   0.92420   0.00000  Uiso   1.00
F1041  F     0.79179   0.50882   0.58971   0.00000  Uiso   1.00
N1042  N     0.73267   0.43064   0.89161   0.00000  Uiso   1.00
H1043  H     0.75941   0.41147   0.86870   0.00000  Uiso   1.00
H1044  H     0.72053   0.45002   0.86698   0.00000  Uiso   1.00
N1045  N     0.75846   0.44439   0.56233   0.00000  Uiso   1.00
H1046  H     0.75745   0.41245   0.56373   0.00000  Uiso   1.00
H1047  H     0.72408   0.45594   0.58159   0.00000  Uiso   1.00
N1048  N     0.69862   0.42054   0.99820   0.00000  Uiso   1.00
H1049  H     0.67542   0.43581   0.52962   0.00000  Uiso   1.00
H1050  H     0.70926   0.39283   0.51133   0.00000  Uiso   1.00
C1051  C     0.16615   0.91252   0.75103   0.00000  Uiso   1.00
C1052  C     0.15010   0.80894   0.98587   0.00000  Uiso   1.00
C1053  C     0.16532   0.81087   0.93116   0.00000  Uiso   1.00
C1054  C     0.18479   0.81933   0.51327   0.00000  Uiso   1.00
C1055  C     0.23511   0.81987   0.98619   0.00000  Uiso   1.00
C1056  C     0.24969   0.81166   0.93303   0.00000  Uiso   1.00
C1057  C     0.21530   0.80717   0.90644   0.00000  Uiso   1.00
C1058  C     0.17146   0.83012   0.56605   0.00000  Uiso   1.00
C1059  C     0.25637   0.83220   0.56592   0.00000  Uiso   1.00
C1060  C     0.13052   0.80950   0.90260   0.00000  Uiso   1.00
C1061  C     0.20918   0.97782   0.73727   0.00000  Uiso   1.00
C1062  C     0.14195   0.82542   0.84837   0.00000  Uiso   1.00
C1063  C     0.21017   0.68687   0.73648   0.00000  Uiso   1.00
C1064  C     0.16607   0.70919   0.75119   0.00000  Uiso   1.00
C1065  C     0.12111   0.68824   0.76660   0.00000  Uiso   1.00
C1066  C     0.12079   0.97875   0.76772   0.00000  Uiso   1.00
C1067  C     0.16510   0.95701   0.75230   0.00000  Uiso   1.00
C1068  C     0.29931   0.85646   0.78474   0.00000  Uiso   1.00
C1069  C     0.01547   0.85639   0.78485   0.00000  Uiso   1.00
C1070  C     0.03400   0.81010   0.71535   0.00000  Uiso   1.00
C1071  C     0.31780   0.81006   0.71535   0.00000  Uiso   1.00
C1072  C     0.16665   0.75399   0.75018   0.00000  Uiso   1.00
C1073  C     0.19229   0.83430   0.65007   0.00000  Uiso   1.00
C1074  C     0.27005   0.82714   0.51283   0.00000  Uiso   1.00
C1075  C     0.20694   0.83286   0.59326   0.00000  Uiso   1.00
C1076  C     0.08811   0.78698   0.92434   0.00000  Uiso   1.00
C1077  C     0.07437   0.77831   0.97759   0.00000  Uiso   1.00
C1078  C     0.10405   0.79079   0.50926   0.00000  Uiso   1.00
Cu1079 Cu    0.11978   0.83333   0.75000   0.00000  Uiso   1.00
Cu1080 Cu    0.21355   0.83334   0.75000   0.00000  Uiso   1.00
H1081  H     0.27327   0.87498   0.81261   0.00000  Uiso   1.00
H1082  H     0.06001   0.79142   0.68765   0.00000  Uiso   1.00
H1083  H     0.30847   0.82806   0.99316   0.00000  Uiso   1.00
H1084  H     0.22881   0.79622   0.86719   0.00000  Uiso   1.00
H1085  H     0.24334   0.96117   0.72509   0.00000  Uiso   1.00
N1086  N     0.04931   0.83332   0.74998   0.00000  Uiso   1.00
N1087  N     0.28402   0.83335   0.74999   0.00000  Uiso   1.00
O1088  O     0.12708   0.89345   0.75000   0.00000  Uiso   1.00
O1089  O     0.20627   0.89346   0.75000   0.00000  Uiso   1.00
O1090  O     0.10775   0.83332   0.82549   0.00000  Uiso   1.00
O1091  O     0.18694   0.83333   0.82549   0.00000  Uiso   1.00
O1092  O     0.12706   0.77321   0.74999   0.00000  Uiso   1.00
O1093  O     0.20625   0.77322   0.74999   0.00000  Uiso   1.00
O1094  O     0.14640   0.83334   0.67451   0.00000  Uiso   1.00
O1095  O     0.22559   0.83335   0.67451   0.00000  Uiso   1.00
F1096  F     0.29188   0.83711   0.59005   0.00000  Uiso   1.00
N1097  N     0.25624   0.70691   0.71917   0.00000  Uiso   1.00
H1098  H     0.27766   0.69783   0.74318   0.00000  Uiso   1.00
H1099  H     0.27345   0.69692   0.68157   0.00000  Uiso   1.00
N1100  N     0.07577   0.71038   0.78096   0.00000  Uiso   1.00
H1101  H     0.05566   0.70291   0.75518   0.00000  Uiso   1.00
H1102  H     0.05603   0.70198   0.81835   0.00000  Uiso   1.00
N1103  N     0.07559   0.95730   0.78551   0.00000  Uiso   1.00
H1104  H     0.05302   0.96517   0.76227   0.00000  Uiso   1.00
H1105  H     0.05870   0.96562   0.82384   0.00000  Uiso   1.00
F1106  F     0.02914   0.87946   0.82016   0.00000  Uiso   1.00
F1107  F     0.30401   0.78653   0.68050   0.00000  Uiso   1.00
N1108  N     0.29931   0.80510   0.90531   0.00000  Uiso   1.00
H1109  H     0.31888   0.83169   0.90697   0.00000  Uiso   1.00
H1110  H     0.31180   0.78124   0.92420   0.00000  Uiso   1.00
F1111  F     0.12512   0.84215   0.58971   0.00000  Uiso   1.00
N1112  N     0.06600   0.76398   0.89161   0.00000  Uiso   1.00
H1113  H     0.09274   0.74480   0.86870   0.00000  Uiso   1.00
H1114  H     0.05386   0.78335   0.86698   0.00000  Uiso   1.00
N1115  N     0.09179   0.77772   0.56233   0.00000  Uiso   1.00
H1116  H     0.09078   0.74579   0.56373   0.00000  Uiso   1.00
H1117  H     0.05741   0.78928   0.58159   0.00000  Uiso   1.00
N1118  N     0.03195   0.75387   0.99820   0.00000  Uiso   1.00
H1119  H     0.00875   0.76914   0.52962   0.00000  Uiso   1.00
H1120  H     0.04260   0.72616   0.51133   0.00000  Uiso   1.00
C1121  C     0.49948   0.91252   0.75103   0.00000  Uiso   1.00
C1122  C     0.48343   0.80894   0.98587   0.00000  Uiso   1.00
C1123  C     0.49865   0.81087   0.93116   0.00000  Uiso   1.00
C1124  C     0.51812   0.81933   0.51327   0.00000  Uiso   1.00
C1125  C     0.56844   0.81987   0.98619   0.00000  Uiso   1.00
C1126  C     0.58302   0.81166   0.93303   0.00000  Uiso   1.00
C1127  C     0.54864   0.80717   0.90644   0.00000  Uiso   1.00
C1128  C     0.50479   0.83012   0.56605   0.00000  Uiso   1.00
C1129  C     0.58970   0.83220   0.56592   0.00000  Uiso   1.00
C1130  C     0.46386   0.80950   0.90260   0.00000  Uiso   1.00
C1131  C     0.54251   0.97782   0.73727   0.00000  Uiso   1.00
C1132  C     0.47528   0.82542   0.84837   0.00000  Uiso   1.00
C1133  C     0.54351   0.68687   0.73648   0.00000  Uiso   1.00
C1134  C     0.49940   0.70919   0.75119   0.00000  Uiso   1.00
C1135  C     0.45445   0.68824   0.76660   0.00000  Uiso   1.00
C1136  C     0.45413   0.97875   0.76772   0.00000  Uiso   1.00
C1137  C     0.49844   0.95701   0.75230   0.00000  Uiso   1.00
C1138  C     0.63265   0.85646   0.78474   0.00000  Uiso   1.00
C1139  C     0.34881   0.85639   0.78485   0.00000  Uiso   1.00
C1140  C     0.36733   0.81010   0.71535   0.00000  Uiso   1.00
C1141  C     0.65114   0.81006   0.71535   0.00000  Uiso   1.00
C1142  C     0.49998   0.75399   0.75018   0.00000  Uiso   1.00
C1143  C     0.52563   0.83430   0.65007   0.00000  Uiso   1.00
C1144  C     0.60338   0.82714   0.51283   0.00000  Uiso   1.00
C1145  C     0.54027   0.83286   0.59326   0.00000  Uiso   1.00
C1146  C     0.42144   0.78698   0.92434   0.00000  Uiso   1.00
C1147  C     0.40771   0.77831   0.97759   0.00000  Uiso   1.00
C1148  C     0.43738   0.79079   0.50926   0.00000  Uiso   1.00
Cu1149 Cu    0.45311   0.83333   0.75000   0.00000  Uiso   1.00
Cu1150 Cu    0.54689   0.83334   0.75000   0.00000  Uiso   1.00
H1151  H     0.60661   0.87498   0.81261   0.00000  Uiso   1.00
H1152  H     0.39334   0.79142   0.68765   0.00000  Uiso   1.00
H1153  H     0.64180   0.82806   0.99316   0.00000  Uiso   1.00
H1154  H     0.56215   0.79622   0.86719   0.00000  Uiso   1.00
H1155  H     0.57667   0.96117   0.72509   0.00000  Uiso   1.00
N1156  N     0.38265   0.83332   0.74998   0.00000  Uiso   1.00
N1157  N     0.61735   0.83335   0.74999   0.00000  Uiso   1.00
O1158  O     0.46042   0.89345   0.75000   0.00000  Uiso   1.00
O1159  O     0.53961   0.89346   0.75000   0.00000  Uiso   1.00
O1160  O     0.44108   0.83332   0.82549   0.00000  Uiso   1.00
O1161  O     0.52027   0.83333   0.82549   0.00000  Uiso   1.00
O1162  O     0.46039   0.77321   0.74999   0.00000  Uiso   1.00
O1163  O     0.53958   0.77322   0.74999   0.00000  Uiso   1.00
O1164  O     0.47973   0.83334   0.67451   0.00000  Uiso   1.00
O1165  O     0.55892   0.83335   0.67451   0.00000  Uiso   1.00
F1166  F     0.62521   0.83711   0.59005   0.00000  Uiso   1.00
N1167  N     0.58957   0.70691   0.71917   0.00000  Uiso   1.00
H1168  H     0.61099   0.69783   0.74318   0.00000  Uiso   1.00
H1169  H     0.60678   0.69692   0.68157   0.00000  Uiso   1.00
N1170  N     0.40910   0.71038   0.78096   0.00000  Uiso   1.00
H1171  H     0.38899   0.70291   0.75518   0.00000  Uiso   1.00
H1172  H     0.38936   0.70198   0.81835   0.00000  Uiso   1.00
N1173  N     0.40893   0.95730   0.78551   0.00000  Uiso   1.00
H1174  H     0.38635   0.96517   0.76227   0.00000  Uiso   1.00
H1175  H     0.39203   0.96562   0.82384   0.00000  Uiso   1.00
F1176  F     0.36247   0.87946   0.82016   0.00000  Uiso   1.00
F1177  F     0.63734   0.78653   0.68050   0.00000  Uiso   1.00
N1178  N     0.63264   0.80510   0.90531   0.00000  Uiso   1.00
H1179  H     0.65222   0.83169   0.90697   0.00000  Uiso   1.00
H1180  H     0.64514   0.78124   0.92420   0.00000  Uiso   1.00
F1181  F     0.45845   0.84215   0.58971   0.00000  Uiso   1.00
N1182  N     0.39933   0.76398   0.89161   0.00000  Uiso   1.00
H1183  H     0.42607   0.74480   0.86870   0.00000  Uiso   1.00
H1184  H     0.38719   0.78335   0.86698   0.00000  Uiso   1.00
N1185  N     0.42512   0.77772   0.56233   0.00000  Uiso   1.00
H1186  H     0.42411   0.74579   0.56373   0.00000  Uiso   1.00
H1187  H     0.39075   0.78928   0.58159   0.00000  Uiso   1.00
N1188  N     0.36529   0.75387   0.99820   0.00000  Uiso   1.00
H1189  H     0.34209   0.76914   0.52962   0.00000  Uiso   1.00
H1190  H     0.37593   0.72616   0.51133   0.00000  Uiso   1.00
C1191  C     0.83282   0.91252   0.75103   0.00000  Uiso   1.00
C1192  C     0.81677   0.80894   0.98587   0.00000  Uiso   1.00
C1193  C     0.83198   0.81087   0.93116   0.00000  Uiso   1.00
C1194  C     0.85146   0.81933   0.51327   0.00000  Uiso   1.00
C1195  C     0.90177   0.81987   0.98619   0.00000  Uiso   1.00
C1196  C     0.91636   0.81166   0.93303   0.00000  Uiso   1.00
C1197  C     0.88197   0.80717   0.90644   0.00000  Uiso   1.00
C1198  C     0.83813   0.83012   0.56605   0.00000  Uiso   1.00
C1199  C     0.92303   0.83220   0.56592   0.00000  Uiso   1.00
C1200  C     0.79719   0.80950   0.90260   0.00000  Uiso   1.00
C1201  C     0.87584   0.97782   0.73727   0.00000  Uiso   1.00
C1202  C     0.80861   0.82542   0.84837   0.00000  Uiso   1.00
C1203  C     0.87684   0.68687   0.73648   0.00000  Uiso   1.00
C1204  C     0.83273   0.70919   0.75119   0.00000  Uiso   1.00
C1205  C     0.78778   0.68824   0.76660   0.00000  Uiso   1.00
C1206  C     0.78746   0.97875   0.76772   0.00000  Uiso   1.00
C1207  C     0.83177   0.95701   0.75230   0.00000  Uiso   1.00
C1208  C     0.96598   0.85646   0.78474   0.00000  Uiso   1.00
C1209  C     0.68214   0.85639   0.78485   0.00000  Uiso   1.00
C1210  C     0.70067   0.81010   0.71535   0.00000  Uiso   1.00
C1211  C     0.98447   0.81006   0.71535   0.00000  Uiso   1.00
C1212  C     0.83332   0.75399   0.75018   0.00000  Uiso   1.00
C1213  C     0.85896   0.83430   0.65007   0.00000  Uiso   1.00
C1214  C     0.93671   0.82714   0.51283   0.00000  Uiso   1.00
C1215  C     0.87361   0.83286   0.59326   0.00000  Uiso   1.00
C1216  C     0.75478   0.78698   0.92434   0.00000  Uiso   1.00
C1217  C     0.74104   0.77831   0.97759   0.00000  Uiso   1.00
C1218  C     0.77071   0.79079   0.50926   0.00000  Uiso   1.00
Cu1219 Cu    0.78645   0.83333   0.75000   0.00000  Uiso   1.00
Cu1220 Cu    0.88022   0.83334   0.75000   0.00000  Uiso   1.00
H1221  H     0.93994   0.87498   0.81261   0.00000  Uiso   1.00
H1222  H     0.72668   0.79142   0.68765   0.00000  Uiso   1.00
H1223  H     0.97514   0.82806   0.99316   0.00000  Uiso   1.00
H1224  H     0.89548   0.79622   0.86719   0.00000  Uiso   1.00
H1225  H     0.91001   0.96117   0.72509   0.00000  Uiso   1.00
N1226  N     0.71598   0.83332   0.74998   0.00000  Uiso   1.00
N1227  N     0.95069   0.83335   0.74999   0.00000  Uiso   1.00
O1228  O     0.79375   0.89345   0.75000   0.00000  Uiso   1.00
O1229  O     0.87294   0.89346   0.75000   0.00000  Uiso   1.00
O1230  O     0.77441   0.83332   0.82549   0.00000  Uiso   1.00
O1231  O     0.85360   0.83333   0.82549   0.00000  Uiso   1.00
O1232  O     0.79373   0.77321   0.74999   0.00000  Uiso   1.00
O1233  O     0.87292   0.77322   0.74999   0.00000  Uiso   1.00
O1234  O     0.81306   0.83334   0.67451   0.00000  Uiso   1.00
O1235  O     0.89225   0.83335   0.67451   0.00000  Uiso   1.00
F1236  F     0.95854   0.83711   0.59005   0.00000  Uiso   1.00
N1237  N     0.92290   0.70691   0.71917   0.00000  Uiso   1.00
H1238  H     0.94432   0.69783   0.74318   0.00000  Uiso   1.00
H1239  H     0.94011   0.69692   0.68157   0.00000  Uiso   1.00
N1240  N     0.74243   0.71038   0.78096   0.00000  Uiso   1.00
H1241  H     0.72232   0.70291   0.75518   0.00000  Uiso   1.00
H1242  H     0.72270   0.70198   0.81835   0.00000  Uiso   1.00
N1243  N     0.74226   0.95730   0.78551   0.00000  Uiso   1.00
H1244  H     0.71968   0.96517   0.76227   0.00000  Uiso   1.00
H1245  H     0.72536   0.96562   0.82384   0.00000  Uiso   1.00
F1246  F     0.69581   0.87946   0.82016   0.00000  Uiso   1.00
F1247  F     0.97068   0.78653   0.68050   0.00000  Uiso   1.00
N1248  N     0.96598   0.80510   0.90531   0.00000  Uiso   1.00
H1249  H     0.98555   0.83169   0.90697   0.00000  Uiso   1.00
H1250  H     0.97847   0.78124   0.92420   0.00000  Uiso   1.00
F1251  F     0.79179   0.84215   0.58971   0.00000  Uiso   1.00
N1252  N     0.73267   0.76398   0.89161   0.00000  Uiso   1.00
H1253  H     0.75941   0.74480   0.86870   0.00000  Uiso   1.00
H1254  H     0.72053   0.78335   0.86698   0.00000  Uiso   1.00
N1255  N     0.75846   0.77772   0.56233   0.00000  Uiso   1.00
H1256  H     0.75745   0.74579   0.56373   0.00000  Uiso   1.00
H1257  H     0.72408   0.78928   0.58159   0.00000  Uiso   1.00
N1258  N     0.69862   0.75387   0.99820   0.00000  Uiso   1.00
H1259  H     0.67542   0.76914   0.52962   0.00000  Uiso   1.00
H1260  H     0.70926   0.72616   0.51133   0.00000  Uiso   1.00
loop_
_geom_bond_atom_site_label_1
_geom_bond_atom_site_label_2
_geom_bond_distance
_geom_bond_site_symmetry_2
_ccdc_geom_bond_type
C1     C17     1.455   .     S
C1     O38     1.291   .     A
C1     O39     1.296   .     A
C2     C3      1.414   .     A
C2     C634    1.432   .     S
C2     C658    1.427   .     S
C3     C10     1.416   .     A
C3     C7      1.405   .     A
C4     C8      1.407   .     A
C4     C632    1.432   1_554 S
C4     C635    1.423   1_554 S
C5     C6      1.399   .     A
C5     C634    1.423   .     S
C5     C654    1.402   .     S
C6     N58     1.425   .     S
C6     C7      1.374   .     A
C7     H34     1.079   .     S
C8     F61     1.359   .     S
C8     C25     1.408   .     A
C9     C25     1.402   .     A
C9     F46     1.358   .     S
C9     C24     1.380   .     A
C10    C26     1.406   .     A
C10    C12     1.495   .     S
C11    H35     1.084   .     S
C11    C17     1.395   .     A
C11    C223    1.386   .     S
C12    O40     1.315   .     A
C12    O41     1.292   .     A
C13    N47     1.434   .     S
C13    C14     1.412   .     A
C13    C431    1.386   1_545 S
C14    C22     1.465   .     S
C14    C15     1.419   .     A
C15    N50     1.438   .     S
C15    C436    1.400   1_545 S
C16    N53     1.436   .     S
C16    C17     1.408   .     A
C16    C225    1.400   .     S
C18    N37     1.366   .     A
C18    H31     1.082   .     S
C18    C89     1.417   .     S
C19    F56     1.354   .     S
C19    N36     1.370   .     A
C19    C158    1.417   1_455 S
C20    N36     1.366   .     A
C20    H32     1.082   .     S
C20    C161    1.417   1_455 S
C21    F57     1.354   .     S
C21    N37     1.370   .     A
C21    C90     1.417   .     S
C22    O43     1.299   .     A
C22    O42     1.293   .     A
C23    O45     1.298   .     A
C23    C25     1.467   .     S
C23    O44     1.297   .     A
C24    C635    1.402   1_554 S
C24    H663    1.081   1_554 S
C26    N62     1.433   .     S
C26    C27     1.403   .     A
C27    N68     1.435   .     S
C27    C658    1.419   .     S
C28    N65     1.435   .     S
C28    C632    1.427   1_554 S
C28    C657    1.419   1_554 S
Cu29   O38     1.978   .     S
Cu29   O42     1.975   .     S
Cu29   N36     2.016   .     S
Cu29   Cu30    2.683   .     S
Cu29   O40     1.960   .     S
Cu29   O44     1.959   .     S
Cu30   O41     1.959   .     S
Cu30   O45     1.960   .     S
Cu30   O39     1.975   .     S
Cu30   O43     1.978   .     S
Cu30   N37     2.016   .     S
H33    C654    1.081   .     S
N47    H49     1.046   .     S
N47    H48     1.046   .     S
N50    H52     1.044   .     S
N50    H51     1.045   .     S
N53    H54     1.045   .     S
N53    H55     1.045   .     S
N58    H60     1.043   .     S
N58    H59     1.045   .     S
N62    H63     1.045   .     S
N62    H64     1.040   .     S
N65    H66     1.045   .     S
N65    H67     1.045   .     S
N68    H699    1.044   .     S
N68    H700    1.045   .     S
H69    N698    1.044   1_554 S
H70    N698    1.045   1_554 S
C71    C87     1.455   .     S
C71    O108    1.291   .     A
C71    O109    1.296   .     A
C72    C73     1.414   .     A
C72    C704    1.432   .     S
C72    C728    1.427   .     S
C73    C80     1.416   .     A
C73    C77     1.405   .     A
C74    C78     1.407   .     A
C74    C702    1.432   1_554 S
C74    C705    1.423   1_554 S
C75    C76     1.399   .     A
C75    C704    1.423   .     S
C75    C724    1.402   .     S
C76    N128    1.425   .     S
C76    C77     1.374   .     A
C77    H104    1.079   .     S
C78    F131    1.359   .     S
C78    C95     1.408   .     A
C79    C95     1.402   .     A
C79    F116    1.358   .     S
C79    C94     1.380   .     A
C80    C96     1.406   .     A
C80    C82     1.495   .     S
C81    H105    1.084   .     S
C81    C87     1.395   .     A
C81    C293    1.386   .     S
C82    O110    1.315   .     A
C82    O111    1.292   .     A
C83    N117    1.434   .     S
C83    C84     1.412   .     A
C83    C501    1.386   1_545 S
C84    C92     1.465   .     S
C84    C85     1.419   .     A
C85    N120    1.438   .     S
C85    C506    1.400   1_545 S
C86    N123    1.436   .     S
C86    C87     1.408   .     A
C86    C295    1.400   .     S
C88    N107    1.366   .     A
C88    H101    1.082   .     S
C88    C159    1.417   .     S
C89    F126    1.354   .     S
C89    N106    1.370   .     A
C90    N106    1.366   .     A
C90    H102    1.082   .     S
C91    F127    1.354   .     S
C91    N107    1.370   .     A
C91    C160    1.417   .     S
C92    O113    1.299   .     A
C92    O112    1.293   .     A
C93    O115    1.298   .     A
C93    C95     1.467   .     S
C93    O114    1.297   .     A
C94    C705    1.402   1_554 S
C94    H733    1.081   1_554 S
C96    N132    1.433   .     S
C96    C97     1.403   .     A
C97    N138    1.435   .     S
C97    C728    1.419   .     S
C98    N135    1.435   .     S
C98    C702    1.427   1_554 S
C98    C727    1.419   1_554 S
Cu99   O108    1.978   .     S
Cu99   O112    1.975   .     S
Cu99   N106    2.016   .     S
Cu99   Cu100   2.683   .     S
Cu99   O110    1.960   .     S
Cu99   O114    1.959   .     S
Cu100  O111    1.959   .     S
Cu100  O115    1.960   .     S
Cu100  O109    1.975   .     S
Cu100  O113    1.978   .     S
Cu100  N107    2.016   .     S
H103   C724    1.081   .     S
N117   H119    1.046   .     S
N117   H118    1.046   .     S
N120   H122    1.044   .     S
N120   H121    1.045   .     S
N123   H124    1.045   .     S
N123   H125    1.045   .     S
N128   H130    1.043   .     S
N128   H129    1.045   .     S
N132   H133    1.045   .     S
N132   H134    1.040   .     S
N135   H136    1.045   .     S
N135   H137    1.045   .     S
N138   H769    1.044   .     S
N138   H770    1.045   .     S
H139   N768    1.044   1_554 S
H140   N768    1.045   1_554 S
C141   C157    1.455   .     S
C141   O178    1.291   .     A
C141   O179    1.296   .     A
C142   C143    1.414   .     A
C142   C774    1.432   .     S
C142   C798    1.427   .     S
C143   C150    1.416   .     A
C143   C147    1.405   .     A
C144   C148    1.407   .     A
C144   C772    1.432   1_554 S
C144   C775    1.423   1_554 S
C145   C146    1.399   .     A
C145   C774    1.423   .     S
C145   C794    1.402   .     S
C146   N198    1.425   .     S
C146   C147    1.374   .     A
C147   H174    1.079   .     S
C148   F201    1.359   .     S
C148   C165    1.408   .     A
C149   C165    1.402   .     A
C149   F186    1.358   .     S
C149   C164    1.380   .     A
C150   C166    1.406   .     A
C150   C152    1.495   .     S
C151   H175    1.084   .     S
C151   C157    1.395   .     A
C151   C363    1.386   .     S
C152   O180    1.315   .     A
C152   O181    1.292   .     A
C153   N187    1.434   .     S
C153   C154    1.412   .     A
C153   C571    1.386   1_545 S
C154   C162    1.465   .     S
C154   C155    1.419   .     A
C155   N190    1.438   .     S
C155   C576    1.400   1_545 S
C156   N193    1.436   .     S
C156   C157    1.408   .     A
C156   C365    1.400   .     S
C158   N177    1.366   .     A
C158   H171    1.082   .     S
C158   C19     1.417   1_655 S
C159   F196    1.354   .     S
C159   N176    1.370   .     A
C160   N176    1.366   .     A
C160   H172    1.082   .     S
C161   F197    1.354   .     S
C161   N177    1.370   .     A
C161   C20     1.417   1_655 S
C162   O183    1.299   .     A
C162   O182    1.293   .     A
C163   O185    1.298   .     A
C163   C165    1.467   .     S
C163   O184    1.297   .     A
C164   C775    1.402   1_554 S
C164   H803    1.081   1_554 S
C166   N202    1.433   .     S
C166   C167    1.403   .     A
C167   N208    1.435   .     S
C167   C798    1.419   .     S
C168   N205    1.435   .     S
C168   C772    1.427   1_554 S
C168   C797    1.419   1_554 S
Cu169  O178    1.978   .     S
Cu169  O182    1.975   .     S
Cu169  N176    2.016   .     S
Cu169  Cu170   2.683   .     S
Cu169  O180    1.960   .     S
Cu169  O184    1.959   .     S
Cu170  O181    1.959   .     S
Cu170  O185    1.960   .     S
Cu170  O179    1.975   .     S
Cu170  O183    1.978   .     S
Cu170  N177    2.016   .     S
H173   C794    1.081   .     S
N187   H189    1.046   .     S
N187   H188    1.046   .     S
N190   H192    1.044   .     S
N190   H191    1.045   .     S
N193   H194    1.045   .     S
N193   H195    1.045   .     S
N198   H200    1.043   .     S
N198   H199    1.045   .     S
N202   H203    1.045   .     S
N202   H204    1.040   .     S
N205   H206    1.045   .     S
N205   H207    1.045   .     S
N208   H839    1.044   .     S
N208   H840    1.045   .     S
H209   N838    1.044   1_554 S
H210   N838    1.045   1_554 S
C211   C227    1.455   .     S
C211   O248    1.291   .     A
C211   O249    1.296   .     A
C212   C213    1.414   .     A
C212   C844    1.432   .     S
C212   C868    1.427   .     S
C213   C220    1.416   .     A
C213   C217    1.405   .     A
C214   C218    1.407   .     A
C214   C842    1.432   1_554 S
C214   C845    1.423   1_554 S
C215   C216    1.399   .     A
C215   C844    1.423   .     S
C215   C864    1.402   .     S
C216   N268    1.425   .     S
C216   C217    1.374   .     A
C217   H244    1.079   .     S
C218   F271    1.359   .     S
C218   C235    1.408   .     A
C219   C235    1.402   .     A
C219   F256    1.358   .     S
C219   C234    1.380   .     A
C220   C236    1.406   .     A
C220   C222    1.495   .     S
C221   H245    1.084   .     S
C221   C227    1.395   .     A
C221   C433    1.386   .     S
C222   O250    1.315   .     A
C222   O251    1.292   .     A
C223   N257    1.434   .     S
C223   C224    1.412   .     A
C224   C232    1.465   .     S
C224   C225    1.419   .     A
C225   N260    1.438   .     S
C226   N263    1.436   .     S
C226   C227    1.408   .     A
C226   C435    1.400   .     S
C228   N247    1.366   .     A
C228   H241    1.082   .     S
C228   C299    1.417   .     S
C229   F266    1.354   .     S
C229   N246    1.370   .     A
C229   C368    1.417   1_455 S
C230   N246    1.366   .     A
C230   H242    1.082   .     S
C230   C371    1.417   1_455 S
C231   F267    1.354   .     S
C231   N247    1.370   .     A
C231   C300    1.417   .     S
C232   O253    1.299   .     A
C232   O252    1.293   .     A
C233   O255    1.298   .     A
C233   C235    1.467   .     S
C233   O254    1.297   .     A
C234   C845    1.402   1_554 S
C234   H873    1.081   1_554 S
C236   N272    1.433   .     S
C236   C237    1.403   .     A
C237   N278    1.435   .     S
C237   C868    1.419   .     S
C238   N275    1.435   .     S
C238   C842    1.427   1_554 S
C238   C867    1.419   1_554 S
Cu239  O248    1.978   .     S
Cu239  O252    1.975   .     S
Cu239  N246    2.016   .     S
Cu239  Cu240   2.683   .     S
Cu239  O250    1.960   .     S
Cu239  O254    1.959   .     S
Cu240  O251    1.959   .     S
Cu240  O255    1.960   .     S
Cu240  O249    1.975   .     S
Cu240  O253    1.978   .     S
Cu240  N247    2.016   .     S
H243   C864    1.081   .     S
N257   H259    1.046   .     S
N257   H258    1.046   .     S
N260   H262    1.044   .     S
N260   H261    1.045   .     S
N263   H264    1.045   .     S
N263   H265    1.045   .     S
N268   H270    1.043   .     S
N268   H269    1.045   .     S
N272   H273    1.045   .     S
N272   H274    1.040   .     S
N275   H276    1.045   .     S
N275   H277    1.045   .     S
N278   H909    1.044   .     S
N278   H910    1.045   .     S
H279   N908    1.044   1_554 S
H280   N908    1.045   1_554 S
C281   C297    1.455   .     S
C281   O318    1.291   .     A
C281   O319    1.296   .     A
C282   C283    1.414   .     A
C282   C914    1.432   .     S
C282   C938    1.427   .     S
C283   C290    1.416   .     A
C283   C287    1.405   .     A
C284   C288    1.407   .     A
C284   C912    1.432   1_554 S
C284   C915    1.423   1_554 S
C285   C286    1.399   .     A
C285   C914    1.423   .     S
C285   C934    1.402   .     S
C286   N338    1.425   .     S
C286   C287    1.374   .     A
C287   H314    1.079   .     S
C288   F341    1.359   .     S
C288   C305    1.408   .     A
C289   C305    1.402   .     A
C289   F326    1.358   .     S
C289   C304    1.380   .     A
C290   C306    1.406   .     A
C290   C292    1.495   .     S
C291   H315    1.084   .     S
C291   C297    1.395   .     A
C291   C503    1.386   .     S
C292   O320    1.315   .     A
C292   O321    1.292   .     A
C293   N327    1.434   .     S
C293   C294    1.412   .     A
C294   C302    1.465   .     S
C294   C295    1.419   .     A
C295   N330    1.438   .     S
C296   N333    1.436   .     S
C296   C297    1.408   .     A
C296   C505    1.400   .     S
C298   N317    1.366   .     A
C298   H311    1.082   .     S
C298   C369    1.417   .     S
C299   F336    1.354   .     S
C299   N316    1.370   .     A
C300   N316    1.366   .     A
C300   H312    1.082   .     S
C301   F337    1.354   .     S
C301   N317    1.370   .     A
C301   C370    1.417   .     S
C302   O323    1.299   .     A
C302   O322    1.293   .     A
C303   O325    1.298   .     A
C303   C305    1.467   .     S
C303   O324    1.297   .     A
C304   C915    1.402   1_554 S
C304   H943    1.081   1_554 S
C306   N342    1.433   .     S
C306   C307    1.403   .     A
C307   N348    1.435   .     S
C307   C938    1.419   .     S
C308   N345    1.435   .     S
C308   C912    1.427   1_554 S
C308   C937    1.419   1_554 S
Cu309  O318    1.978   .     S
Cu309  O322    1.975   .     S
Cu309  N316    2.016   .     S
Cu309  Cu310   2.683   .     S
Cu309  O320    1.960   .     S
Cu309  O324    1.959   .     S
Cu310  O321    1.959   .     S
Cu310  O325    1.960   .     S
Cu310  O319    1.975   .     S
Cu310  O323    1.978   .     S
Cu310  N317    2.016   .     S
H313   C934    1.081   .     S
N327   H329    1.046   .     S
N327   H328    1.046   .     S
N330   H332    1.044   .     S
N330   H331    1.045   .     S
N333   H334    1.045   .     S
N333   H335    1.045   .     S
N338   H340    1.043   .     S
N338   H339    1.045   .     S
N342   H343    1.045   .     S
N342   H344    1.040   .     S
N345   H346    1.045   .     S
N345   H347    1.045   .     S
N348   H979    1.044   .     S
N348   H980    1.045   .     S
H349   N978    1.044   1_554 S
H350   N978    1.045   1_554 S
C351   C367    1.455   .     S
C351   O388    1.291   .     A
C351   O389    1.296   .     A
C352   C353    1.414   .     A
C352   C984    1.432   .     S
C352   C1008   1.427   .     S
C353   C360    1.416   .     A
C353   C357    1.405   .     A
C354   C358    1.407   .     A
C354   C982    1.432   1_554 S
C354   C985    1.423   1_554 S
C355   C356    1.399   .     A
C355   C984    1.423   .     S
C355   C1004   1.402   .     S
C356   N408    1.425   .     S
C356   C357    1.374   .     A
C357   H384    1.079   .     S
C358   F411    1.359   .     S
C358   C375    1.408   .     A
C359   C375    1.402   .     A
C359   F396    1.358   .     S
C359   C374    1.380   .     A
C360   C376    1.406   .     A
C360   C362    1.495   .     S
C361   H385    1.084   .     S
C361   C367    1.395   .     A
C361   C573    1.386   .     S
C362   O390    1.315   .     A
C362   O391    1.292   .     A
C363   N397    1.434   .     S
C363   C364    1.412   .     A
C364   C372    1.465   .     S
C364   C365    1.419   .     A
C365   N400    1.438   .     S
C366   N403    1.436   .     S
C366   C367    1.408   .     A
C366   C575    1.400   .     S
C368   N387    1.366   .     A
C368   H381    1.082   .     S
C368   C229    1.417   1_655 S
C369   F406    1.354   .     S
C369   N386    1.370   .     A
C370   N386    1.366   .     A
C370   H382    1.082   .     S
C371   F407    1.354   .     S
C371   N387    1.370   .     A
C371   C230    1.417   1_655 S
C372   O393    1.299   .     A
C372   O392    1.293   .     A
C373   O395    1.298   .     A
C373   C375    1.467   .     S
C373   O394    1.297   .     A
C374   C985    1.402   1_554 S
C374   H1013   1.081   1_554 S
C376   N412    1.433   .     S
C376   C377    1.403   .     A
C377   N418    1.435   .     S
C377   C1008   1.419   .     S
C378   N415    1.435   .     S
C378   C982    1.427   1_554 S
C378   C1007   1.419   1_554 S
Cu379  O388    1.978   .     S
Cu379  O392    1.975   .     S
Cu379  N386    2.016   .     S
Cu379  Cu380   2.683   .     S
Cu379  O390    1.960   .     S
Cu379  O394    1.959   .     S
Cu380  O391    1.959   .     S
Cu380  O395    1.960   .     S
Cu380  O389    1.975   .     S
Cu380  O393    1.978   .     S
Cu380  N387    2.016   .     S
H383   C1004   1.081   .     S
N397   H399    1.046   .     S
N397   H398    1.046   .     S
N400   H402    1.044   .     S
N400   H401    1.045   .     S
N403   H404    1.045   .     S
N403   H405    1.045   .     S
N408   H410    1.043   .     S
N408   H409    1.045   .     S
N412   H413    1.045   .     S
N412   H414    1.040   .     S
N415   H416    1.045   .     S
N415   H417    1.045   .     S
N418   H1049   1.044   .     S
N418   H1050   1.045   .     S
H419   N1048   1.044   1_554 S
H420   N1048   1.045   1_554 S
C421   C437    1.455   .     S
C421   O458    1.291   .     A
C421   O459    1.296   .     A
C422   C423    1.414   .     A
C422   C1054   1.432   .     S
C422   C1078   1.427   .     S
C423   C430    1.416   .     A
C423   C427    1.405   .     A
C424   C428    1.407   .     A
C424   C1052   1.432   1_554 S
C424   C1055   1.423   1_554 S
C425   C426    1.399   .     A
C425   C1054   1.423   .     S
C425   C1074   1.402   .     S
C426   N478    1.425   .     S
C426   C427    1.374   .     A
C427   H454    1.079   .     S
C428   F481    1.359   .     S
C428   C445    1.408   .     A
C429   C445    1.402   .     A
C429   F466    1.358   .     S
C429   C444    1.380   .     A
C430   C446    1.406   .     A
C430   C432    1.495   .     S
C431   H455    1.084   .     S
C431   C437    1.395   .     A
C431   C13     1.386   1_565 S
C432   O460    1.315   .     A
C432   O461    1.292   .     A
C433   N467    1.434   .     S
C433   C434    1.412   .     A
C434   C442    1.465   .     S
C434   C435    1.419   .     A
C435   N470    1.438   .     S
C436   N473    1.436   .     S
C436   C437    1.408   .     A
C436   C15     1.400   1_565 S
C438   N457    1.366   .     A
C438   H451    1.082   .     S
C438   C509    1.417   .     S
C439   F476    1.354   .     S
C439   N456    1.370   .     A
C439   C578    1.417   1_455 S
C440   N456    1.366   .     A
C440   H452    1.082   .     S
C440   C581    1.417   1_455 S
C441   F477    1.354   .     S
C441   N457    1.370   .     A
C441   C510    1.417   .     S
C442   O463    1.299   .     A
C442   O462    1.293   .     A
C443   O465    1.298   .     A
C443   C445    1.467   .     S
C443   O464    1.297   .     A
C444   C1055   1.402   1_554 S
C444   H1083   1.081   1_554 S
C446   N482    1.433   .     S
C446   C447    1.403   .     A
C447   N488    1.435   .     S
C447   C1078   1.419   .     S
C448   N485    1.435   .     S
C448   C1052   1.427   1_554 S
C448   C1077   1.419   1_554 S
Cu449  O458    1.978   .     S
Cu449  O462    1.975   .     S
Cu449  N456    2.016   .     S
Cu449  Cu450   2.683   .     S
Cu449  O460    1.960   .     S
Cu449  O464    1.959   .     S
Cu450  O461    1.959   .     S
Cu450  O465    1.960   .     S
Cu450  O459    1.975   .     S
Cu450  O463    1.978   .     S
Cu450  N457    2.016   .     S
H453   C1074   1.081   .     S
N467   H469    1.046   .     S
N467   H468    1.046   .     S
N470   H472    1.044   .     S
N470   H471    1.045   .     S
N473   H474    1.045   .     S
N473   H475    1.045   .     S
N478   H480    1.043   .     S
N478   H479    1.045   .     S
N482   H483    1.045   .     S
N482   H484    1.040   .     S
N485   H486    1.045   .     S
N485   H487    1.045   .     S
N488   H1119   1.044   .     S
N488   H1120   1.045   .     S
H489   N1118   1.044   1_554 S
H490   N1118   1.045   1_554 S
C491   C507    1.455   .     S
C491   O528    1.291   .     A
C491   O529    1.296   .     A
C492   C493    1.414   .     A
C492   C1124   1.432   .     S
C492   C1148   1.427   .     S
C493   C500    1.416   .     A
C493   C497    1.405   .     A
C494   C498    1.407   .     A
C494   C1122   1.432   1_554 S
C494   C1125   1.423   1_554 S
C495   C496    1.399   .     A
C495   C1124   1.423   .     S
C495   C1144   1.402   .     S
C496   N548    1.425   .     S
C496   C497    1.374   .     A
C497   H524    1.079   .     S
C498   F551    1.359   .     S
C498   C515    1.408   .     A
C499   C515    1.402   .     A
C499   F536    1.358   .     S
C499   C514    1.380   .     A
C500   C516    1.406   .     A
C500   C502    1.495   .     S
C501   H525    1.084   .     S
C501   C507    1.395   .     A
C501   C83     1.386   1_565 S
C502   O530    1.315   .     A
C502   O531    1.292   .     A
C503   N537    1.434   .     S
C503   C504    1.412   .     A
C504   C512    1.465   .     S
C504   C505    1.419   .     A
C505   N540    1.438   .     S
C506   N543    1.436   .     S
C506   C507    1.408   .     A
C506   C85     1.400   1_565 S
C508   N527    1.366   .     A
C508   H521    1.082   .     S
C508   C579    1.417   .     S
C509   F546    1.354   .     S
C509   N526    1.370   .     A
C510   N526    1.366   .     A
C510   H522    1.082   .     S
C511   F547    1.354   .     S
C511   N527    1.370   .     A
C511   C580    1.417   .     S
C512   O533    1.299   .     A
C512   O532    1.293   .     A
C513   O535    1.298   .     A
C513   C515    1.467   .     S
C513   O534    1.297   .     A
C514   C1125   1.402   1_554 S
C514   H1153   1.081   1_554 S
C516   N552    1.433   .     S
C516   C517    1.403   .     A
C517   N558    1.435   .     S
C517   C1148   1.419   .     S
C518   N555    1.435   .     S
C518   C1122   1.427   1_554 S
C518   C1147   1.419   1_554 S
Cu519  O528    1.978   .     S
Cu519  O532    1.975   .     S
Cu519  N526    2.016   .     S
Cu519  Cu520   2.683   .     S
Cu519  O530    1.960   .     S
Cu519  O534    1.959   .     S
Cu520  O531    1.959   .     S
Cu520  O535    1.960   .     S
Cu520  O529    1.975   .     S
Cu520  O533    1.978   .     S
Cu520  N527    2.016   .     S
H523   C1144   1.081   .     S
N537   H539    1.046   .     S
N537   H538    1.046   .     S
N540   H542    1.044   .     S
N540   H541    1.045   .     S
N543   H544    1.045   .     S
N543   H545    1.045   .     S
N548   H550    1.043   .     S
N548   H549    1.045   .     S
N552   H553    1.045   .     S
N552   H554    1.040   .     S
N555   H556    1.045   .     S
N555   H557    1.045   .     S
N558   H1189   1.044   .     S
N558   H1190   1.045   .     S
H559   N1188   1.044   1_554 S
H560   N1188   1.045   1_554 S
C561   C577    1.455   .     S
C561   O598    1.291   .     A
C561   O599    1.296   .     A
C562   C563    1.414   .     A
C562   C1194   1.432   .     S
C562   C1218   1.427   .     S
C563   C570    1.416   .     A
C563   C567    1.405   .     A
C564   C568    1.407   .     A
C564   C1192   1.432   1_554 S
C564   C1195   1.423   1_554 S
C565   C566    1.399   .     A
C565   C1194   1.423   .     S
C565   C1214   1.402   .     S
C566   N618    1.425   .     S
C566   C567    1.374   .     A
C567   H594    1.079   .     S
C568   F621    1.359   .     S
C568   C585    1.408   .     A
C569   C585    1.402   .     A
C569   F606    1.358   .     S
C569   C584    1.380   .     A
C570   C586    1.406   .     A
C570   C572    1.495   .     S
C571   H595    1.084   .     S
C571   C577    1.395   .     A
C571   C153    1.386   1_565 S
C572   O600    1.315   .     A
C572   O601    1.292   .     A
C573   N607    1.434   .     S
C573   C574    1.412   .     A
C574   C582    1.465   .     S
C574   C575    1.419   .     A
C575   N610    1.438   .     S
C576   N613    1.436   .     S
C576   C577    1.408   .     A
C576   C155    1.400   1_565 S
C578   N597    1.366   .     A
C578   H591    1.082   .     S
C578   C439    1.417   1_655 S
C579   F616    1.354   .     S
C579   N596    1.370   .     A
C580   N596    1.366   .     A
C580   H592    1.082   .     S
C581   F617    1.354   .     S
C581   N597    1.370   .     A
C581   C440    1.417   1_655 S
C582   O603    1.299   .     A
C582   O602    1.293   .     A
C583   O605    1.298   .     A
C583   C585    1.467   .     S
C583   O604    1.297   .     A
C584   C1195   1.402   1_554 S
C584   H1223   1.081   1_554 S
C586   N622    1.433   .     S
C586   C587    1.403   .     A
C587   N628    1.435   .     S
C587   C1218   1.419   .     S
C588   N625    1.435   .     S
C588   C1192   1.427   1_554 S
C588   C1217   1.419   1_554 S
Cu589  O598    1.978   .     S
Cu589  O602    1.975   .     S
Cu589  N596    2.016   .     S
Cu589  Cu590   2.683   .     S
Cu589  O600    1.960   .     S
Cu589  O604    1.959   .     S
Cu590  O601    1.959   .     S
Cu590  O605    1.960   .     S
Cu590  O599    1.975   .     S
Cu590  O603    1.978   .     S
Cu590  N597    2.016   .     S
H593   C1214   1.081   .     S
N607   H609    1.046   .     S
N607   H608    1.046   .     S
N610   H612    1.044   .     S
N610   H611    1.045   .     S
N613   H614    1.045   .     S
N613   H615    1.045   .     S
N618   H620    1.043   .     S
N618   H619    1.045   .     S
N622   H623    1.045   .     S
N622   H624    1.040   .     S
N625   H626    1.045   .     S
N625   H627    1.045   .     S
N628   H1259   1.044   .     S
N628   H1260   1.045   .     S
H629   N1258   1.044   1_554 S
H630   N1258   1.045   1_554 S
C631   C647    1.455   .     S
C631   O668    1.291   .     A
C631   O669    1.296   .     A
C632   C633    1.414   .     A
C632   C4      1.432   1_556 S
C632   C28     1.427   1_556 S
C633   C640    1.416   .     A
C633   C637    1.405   .     A
C634   C638    1.407   .     A
C635   C636    1.399   .     A
C635   C4      1.423   1_556 S
C635   C24     1.402   1_556 S
C636   N688    1.425   .     S
C636   C637    1.374   .     A
C637   H664    1.079   .     S
C638   F691    1.359   .     S
C638   C655    1.408   .     A
C639   C655    1.402   .     A
C639   F676    1.358   .     S
C639   C654    1.380   .     A
C640   C656    1.406   .     A
C640   C642    1.495   .     S
C641   H665    1.084   .     S
C641   C647    1.395   .     A
C641   C853    1.386   .     S
C642   O670    1.315   .     A
C642   O671    1.292   .     A
C643   N677    1.434   .     S
C643   C644    1.412   .     A
C643   C1061   1.386   1_545 S
C644   C652    1.465   .     S
C644   C645    1.419   .     A
C645   N680    1.438   .     S
C645   C1066   1.400   1_545 S
C646   N683    1.436   .     S
C646   C647    1.408   .     A
C646   C855    1.400   .     S
C648   N667    1.366   .     A
C648   H661    1.082   .     S
C648   C719    1.417   .     S
C649   F686    1.354   .     S
C649   N666    1.370   .     A
C649   C788    1.417   1_455 S
C650   N666    1.366   .     A
C650   H662    1.082   .     S
C650   C791    1.417   1_455 S
C651   F687    1.354   .     S
C651   N667    1.370   .     A
C651   C720    1.417   .     S
C652   O673    1.299   .     A
C652   O672    1.293   .     A
C653   O675    1.298   .     A
C653   C655    1.467   .     S
C653   O674    1.297   .     A
C656   N692    1.433   .     S
C656   C657    1.403   .     A
C657   N698    1.435   .     S
C657   C28     1.419   1_556 S
C658   N695    1.435   .     S
Cu659  O668    1.978   .     S
Cu659  O672    1.975   .     S
Cu659  N666    2.016   .     S
Cu659  Cu660   2.683   .     S
Cu659  O670    1.960   .     S
Cu659  O674    1.959   .     S
Cu660  O671    1.959   .     S
Cu660  O675    1.960   .     S
Cu660  O669    1.975   .     S
Cu660  O673    1.978   .     S
Cu660  N667    2.016   .     S
H663   C24     1.081   1_556 S
N677   H679    1.046   .     S
N677   H678    1.046   .     S
N680   H682    1.044   .     S
N680   H681    1.045   .     S
N683   H684    1.045   .     S
N683   H685    1.045   .     S
N688   H690    1.043   .     S
N688   H689    1.045   .     S
N692   H693    1.045   .     S
N692   H694    1.040   .     S
N695   H696    1.045   .     S
N695   H697    1.045   .     S
N698   H69     1.044   1_556 S
N698   H70     1.045   1_556 S
C701   C717    1.455   .     S
C701   O738    1.291   .     A
C701   O739    1.296   .     A
C702   C703    1.414   .     A
C702   C74     1.432   1_556 S
C702   C98     1.427   1_556 S
C703   C710    1.416   .     A
C703   C707    1.405   .     A
C704   C708    1.407   .     A
C705   C706    1.399   .     A
C705   C74     1.423   1_556 S
C705   C94     1.402   1_556 S
C706   N758    1.425   .     S
C706   C707    1.374   .     A
C707   H734    1.079   .     S
C708   F761    1.359   .     S
C708   C725    1.408   .     A
C709   C725    1.402   .     A
C709   F746    1.358   .     S
C709   C724    1.380   .     A
C710   C726    1.406   .     A
C710   C712    1.495   .     S
C711   H735    1.084   .     S
C711   C717    1.395   .     A
C711   C923    1.386   .     S
C712   O740    1.315   .     A
C712   O741    1.292   .     A
C713   N747    1.434   .     S
C713   C714    1.412   .     A
C713   C1131   1.386   1_545 S
C714   C722    1.465   .     S
C714   C715    1.419   .     A
C715   N750    1.438   .     S
C715   C1136   1.400   1_545 S
C716   N753    1.436   .     S
C716   C717    1.408   .     A
C716   C925    1.400   .     S
C718   N737    1.366   .     A
C718   H731    1.082   .     S
C718   C789    1.417   .     S
C719   F756    1.354   .     S
C719   N736    1.370   .     A
C720   N736    1.366   .     A
C720   H732    1.082   .     S
C721   F757    1.354   .     S
C721   N737    1.370   .     A
C721   C790    1.417   .     S
C722   O743    1.299   .     A
C722   O742    1.293   .     A
C723   O745    1.298   .     A
C723   C725    1.467   .     S
C723   O744    1.297   .     A
C726   N762    1.433   .     S
C726   C727    1.403   .     A
C727   N768    1.435   .     S
C727   C98     1.419   1_556 S
C728   N765    1.435   .     S
Cu729  O738    1.978   .     S
Cu729  O742    1.975   .     S
Cu729  N736    2.016   .     S
Cu729  Cu730   2.683   .     S
Cu729  O740    1.960   .     S
Cu729  O744    1.959   .     S
Cu730  O741    1.959   .     S
Cu730  O745    1.960   .     S
Cu730  O739    1.975   .     S
Cu730  O743    1.978   .     S
Cu730  N737    2.016   .     S
H733   C94     1.081   1_556 S
N747   H749    1.046   .     S
N747   H748    1.046   .     S
N750   H752    1.044   .     S
N750   H751    1.045   .     S
N753   H754    1.045   .     S
N753   H755    1.045   .     S
N758   H760    1.043   .     S
N758   H759    1.045   .     S
N762   H763    1.045   .     S
N762   H764    1.040   .     S
N765   H766    1.045   .     S
N765   H767    1.045   .     S
N768   H139    1.044   1_556 S
N768   H140    1.045   1_556 S
C771   C787    1.455   .     S
C771   O808    1.291   .     A
C771   O809    1.296   .     A
C772   C773    1.414   .     A
C772   C144    1.432   1_556 S
C772   C168    1.427   1_556 S
C773   C780    1.416   .     A
C773   C777    1.405   .     A
C774   C778    1.407   .     A
C775   C776    1.399   .     A
C775   C144    1.423   1_556 S
C775   C164    1.402   1_556 S
C776   N828    1.425   .     S
C776   C777    1.374   .     A
C777   H804    1.079   .     S
C778   F831    1.359   .     S
C778   C795    1.408   .     A
C779   C795    1.402   .     A
C779   F816    1.358   .     S
C779   C794    1.380   .     A
C780   C796    1.406   .     A
C780   C782    1.495   .     S
C781   H805    1.084   .     S
C781   C787    1.395   .     A
C781   C993    1.386   .     S
C782   O810    1.315   .     A
C782   O811    1.292   .     A
C783   N817    1.434   .     S
C783   C784    1.412   .     A
C783   C1201   1.386   1_545 S
C784   C792    1.465   .     S
C784   C785    1.419   .     A
C785   N820    1.438   .     S
C785   C1206   1.400   1_545 S
C786   N823    1.436   .     S
C786   C787    1.408   .     A
C786   C995    1.400   .     S
C788   N807    1.366   .     A
C788   H801    1.082   .     S
C788   C649    1.417   1_655 S
C789   F826    1.354   .     S
C789   N806    1.370   .     A
C790   N806    1.366   .     A
C790   H802    1.082   .     S
C791   F827    1.354   .     S
C791   N807    1.370   .     A
C791   C650    1.417   1_655 S
C792   O813    1.299   .     A
C792   O812    1.293   .     A
C793   O815    1.298   .     A
C793   C795    1.467   .     S
C793   O814    1.297   .     A
C796   N832    1.433   .     S
C796   C797    1.403   .     A
C797   N838    1.435   .     S
C797   C168    1.419   1_556 S
C798   N835    1.435   .     S
Cu799  O808    1.978   .     S
Cu799  O812    1.975   .     S
Cu799  N806    2.016   .     S
Cu799  Cu800   2.683   .     S
Cu799  O810    1.960   .     S
Cu799  O814    1.959   .     S
Cu800  O811    1.959   .     S
Cu800  O815    1.960   .     S
Cu800  O809    1.975   .     S
Cu800  O813    1.978   .     S
Cu800  N807    2.016   .     S
H803   C164    1.081   1_556 S
N817   H819    1.046   .     S
N817   H818    1.046   .     S
N820   H822    1.044   .     S
N820   H821    1.045   .     S
N823   H824    1.045   .     S
N823   H825    1.045   .     S
N828   H830    1.043   .     S
N828   H829    1.045   .     S
N832   H833    1.045   .     S
N832   H834    1.040   .     S
N835   H836    1.045   .     S
N835   H837    1.045   .     S
N838   H209    1.044   1_556 S
N838   H210    1.045   1_556 S
C841   C857    1.455   .     S
C841   O878    1.291   .     A
C841   O879    1.296   .     A
C842   C843    1.414   .     A
C842   C214    1.432   1_556 S
C842   C238    1.427   1_556 S
C843   C850    1.416   .     A
C843   C847    1.405   .     A
C844   C848    1.407   .     A
C845   C846    1.399   .     A
C845   C214    1.423   1_556 S
C845   C234    1.402   1_556 S
C846   N898    1.425   .     S
C846   C847    1.374   .     A
C847   H874    1.079   .     S
C848   F901    1.359   .     S
C848   C865    1.408   .     A
C849   C865    1.402   .     A
C849   F886    1.358   .     S
C849   C864    1.380   .     A
C850   C866    1.406   .     A
C850   C852    1.495   .     S
C851   H875    1.084   .     S
C851   C857    1.395   .     A
C851   C1063   1.386   .     S
C852   O880    1.315   .     A
C852   O881    1.292   .     A
C853   N887    1.434   .     S
C853   C854    1.412   .     A
C854   C862    1.465   .     S
C854   C855    1.419   .     A
C855   N890    1.438   .     S
C856   N893    1.436   .     S
C856   C857    1.408   .     A
C856   C1065   1.400   .     S
C858   N877    1.366   .     A
C858   H871    1.082   .     S
C858   C929    1.417   .     S
C859   F896    1.354   .     S
C859   N876    1.370   .     A
C859   C998    1.417   1_455 S
C860   N876    1.366   .     A
C860   H872    1.082   .     S
C860   C1001   1.417   1_455 S
C861   F897    1.354   .     S
C861   N877    1.370   .     A
C861   C930    1.417   .     S
C862   O883    1.299   .     A
C862   O882    1.293   .     A
C863   O885    1.298   .     A
C863   C865    1.467   .     S
C863   O884    1.297   .     A
C866   N902    1.433   .     S
C866   C867    1.403   .     A
C867   N908    1.435   .     S
C867   C238    1.419   1_556 S
C868   N905    1.435   .     S
Cu869  O878    1.978   .     S
Cu869  O882    1.975   .     S
Cu869  N876    2.016   .     S
Cu869  Cu870   2.683   .     S
Cu869  O880    1.960   .     S
Cu869  O884    1.959   .     S
Cu870  O881    1.959   .     S
Cu870  O885    1.960   .     S
Cu870  O879    1.975   .     S
Cu870  O883    1.978   .     S
Cu870  N877    2.016   .     S
H873   C234    1.081   1_556 S
N887   H889    1.046   .     S
N887   H888    1.046   .     S
N890   H892    1.044   .     S
N890   H891    1.045   .     S
N893   H894    1.045   .     S
N893   H895    1.045   .     S
N898   H900    1.043   .     S
N898   H899    1.045   .     S
N902   H903    1.045   .     S
N902   H904    1.040   .     S
N905   H906    1.045   .     S
N905   H907    1.045   .     S
N908   H279    1.044   1_556 S
N908   H280    1.045   1_556 S
C911   C927    1.455   .     S
C911   O948    1.291   .     A
C911   O949    1.296   .     A
C912   C913    1.414   .     A
C912   C284    1.432   1_556 S
C912   C308    1.427   1_556 S
C913   C920    1.416   .     A
C913   C917    1.405   .     A
C914   C918    1.407   .     A
C915   C916    1.399   .     A
C915   C284    1.423   1_556 S
C915   C304    1.402   1_556 S
C916   N968    1.425   .     S
C916   C917    1.374   .     A
C917   H944    1.079   .     S
C918   F971    1.359   .     S
C918   C935    1.408   .     A
C919   C935    1.402   .     A
C919   F956    1.358   .     S
C919   C934    1.380   .     A
C920   C936    1.406   .     A
C920   C922    1.495   .     S
C921   H945    1.084   .     S
C921   C927    1.395   .     A
C921   C1133   1.386   .     S
C922   O950    1.315   .     A
C922   O951    1.292   .     A
C923   N957    1.434   .     S
C923   C924    1.412   .     A
C924   C932    1.465   .     S
C924   C925    1.419   .     A
C925   N960    1.438   .     S
C926   N963    1.436   .     S
C926   C927    1.408   .     A
C926   C1135   1.400   .     S
C928   N947    1.366   .     A
C928   H941    1.082   .     S
C928   C999    1.417   .     S
C929   F966    1.354   .     S
C929   N946    1.370   .     A
C930   N946    1.366   .     A
C930   H942    1.082   .     S
C931   F967    1.354   .     S
C931   N947    1.370   .     A
C931   C1000   1.417   .     S
C932   O953    1.299   .     A
C932   O952    1.293   .     A
C933   O955    1.298   .     A
C933   C935    1.467   .     S
C933   O954    1.297   .     A
C936   N972    1.433   .     S
C936   C937    1.403   .     A
C937   N978    1.435   .     S
C937   C308    1.419   1_556 S
C938   N975    1.435   .     S
Cu939  O948    1.978   .     S
Cu939  O952    1.975   .     S
Cu939  N946    2.016   .     S
Cu939  Cu940   2.683   .     S
Cu939  O950    1.960   .     S
Cu939  O954    1.959   .     S
Cu940  O951    1.959   .     S
Cu940  O955    1.960   .     S
Cu940  O949    1.975   .     S
Cu940  O953    1.978   .     S
Cu940  N947    2.016   .     S
H943   C304    1.081   1_556 S
N957   H959    1.046   .     S
N957   H958    1.046   .     S
N960   H962    1.044   .     S
N960   H961    1.045   .     S
N963   H964    1.045   .     S
N963   H965    1.045   .     S
N968   H970    1.043   .     S
N968   H969    1.045   .     S
N972   H973    1.045   .     S
N972   H974    1.040   .     S
N975   H976    1.045   .     S
N975   H977    1.045   .     S
N978   H349    1.044   1_556 S
N978   H350    1.045   1_556 S
C981   C997    1.455   .     S
C981   O1018   1.291   .     A
C981   O1019   1.296   .     A
C982   C983    1.414   .     A
C982   C354    1.432   1_556 S
C982   C378    1.427   1_556 S
C983   C990    1.416   .     A
C983   C987    1.405   .     A
C984   C988    1.407   .     A
C985   C986    1.399   .     A
C985   C354    1.423   1_556 S
C985   C374    1.402   1_556 S
C986   N1038   1.425   .     S
C986   C987    1.374   .     A
C987   H1014   1.079   .     S
C988   F1041   1.359   .     S
C988   C1005   1.408   .     A
C989   C1005   1.402   .     A
C989   F1026   1.358   .     S
C989   C1004   1.380   .     A
C990   C1006   1.406   .     A
C990   C992    1.495   .     S
C991   H1015   1.084   .     S
C991   C997    1.395   .     A
C991   C1203   1.386   .     S
C992   O1020   1.315   .     A
C992   O1021   1.292   .     A
C993   N1027   1.434   .     S
C993   C994    1.412   .     A
C994   C1002   1.465   .     S
C994   C995    1.419   .     A
C995   N1030   1.438   .     S
C996   N1033   1.436   .     S
C996   C997    1.408   .     A
C996   C1205   1.400   .     S
C998   N1017   1.366   .     A
C998   H1011   1.082   .     S
C998   C859    1.417   1_655 S
C999   F1036   1.354   .     S
C999   N1016   1.370   .     A
C1000  N1016   1.366   .     A
C1000  H1012   1.082   .     S
C1001  F1037   1.354   .     S
C1001  N1017   1.370   .     A
C1001  C860    1.417   1_655 S
C1002  O1023   1.299   .     A
C1002  O1022   1.293   .     A
C1003  O1025   1.298   .     A
C1003  C1005   1.467   .     S
C1003  O1024   1.297   .     A
C1006  N1042   1.433   .     S
C1006  C1007   1.403   .     A
C1007  N1048   1.435   .     S
C1007  C378    1.419   1_556 S
C1008  N1045   1.435   .     S
Cu1009 O1018   1.978   .     S
Cu1009 O1022   1.975   .     S
Cu1009 N1016   2.016   .     S
Cu1009 Cu1010  2.683   .     S
Cu1009 O1020   1.960   .     S
Cu1009 O1024   1.959   .     S
Cu1010 O1021   1.959   .     S
Cu1010 O1025   1.960   .     S
Cu1010 O1019   1.975   .     S
Cu1010 O1023   1.978   .     S
Cu1010 N1017   2.016   .     S
H1013  C374    1.081   1_556 S
N1027  H1029   1.046   .     S
N1027  H1028   1.046   .     S
N1030  H1032   1.044   .     S
N1030  H1031   1.045   .     S
N1033  H1034   1.045   .     S
N1033  H1035   1.045   .     S
N1038  H1040   1.043   .     S
N1038  H1039   1.045   .     S
N1042  H1043   1.045   .     S
N1042  H1044   1.040   .     S
N1045  H1046   1.045   .     S
N1045  H1047   1.045   .     S
N1048  H419    1.044   1_556 S
N1048  H420    1.045   1_556 S
C1051  C1067   1.455   .     S
C1051  O1088   1.291   .     A
C1051  O1089   1.296   .     A
C1052  C1053   1.414   .     A
C1052  C424    1.432   1_556 S
C1052  C448    1.427   1_556 S
C1053  C1060   1.416   .     A
C1053  C1057   1.405   .     A
C1054  C1058   1.407   .     A
C1055  C1056   1.399   .     A
C1055  C424    1.423   1_556 S
C1055  C444    1.402   1_556 S
C1056  N1108   1.425   .     S
C1056  C1057   1.374   .     A
C1057  H1084   1.079   .     S
C1058  F1111   1.359   .     S
C1058  C1075   1.408   .     A
C1059  C1075   1.402   .     A
C1059  F1096   1.358   .     S
C1059  C1074   1.380   .     A
C1060  C1076   1.406   .     A
C1060  C1062   1.495   .     S
C1061  H1085   1.084   .     S
C1061  C1067   1.395   .     A
C1061  C643    1.386   1_565 S
C1062  O1090   1.315   .     A
C1062  O1091   1.292   .     A
C1063  N1097   1.434   .     S
C1063  C1064   1.412   .     A
C1064  C1072   1.465   .     S
C1064  C1065   1.419   .     A
C1065  N1100   1.438   .     S
C1066  N1103   1.436   .     S
C1066  C1067   1.408   .     A
C1066  C645    1.400   1_565 S
C1068  N1087   1.366   .     A
C1068  H1081   1.082   .     S
C1068  C1139   1.417   .     S
C1069  F1106   1.354   .     S
C1069  N1086   1.370   .     A
C1069  C1208   1.417   1_455 S
C1070  N1086   1.366   .     A
C1070  H1082   1.082   .     S
C1070  C1211   1.417   1_455 S
C1071  F1107   1.354   .     S
C1071  N1087   1.370   .     A
C1071  C1140   1.417   .     S
C1072  O1093   1.299   .     A
C1072  O1092   1.293   .     A
C1073  O1095   1.298   .     A
C1073  C1075   1.467   .     S
C1073  O1094   1.297   .     A
C1076  N1112   1.433   .     S
C1076  C1077   1.403   .     A
C1077  N1118   1.435   .     S
C1077  C448    1.419   1_556 S
C1078  N1115   1.435   .     S
Cu1079 O1088   1.978   .     S
Cu1079 O1092   1.975   .     S
Cu1079 N1086   2.016   .     S
Cu1079 Cu1080  2.683   .     S
Cu1079 O1090   1.960   .     S
Cu1079 O1094   1.959   .     S
Cu1080 O1091   1.959   .     S
Cu1080 O1095   1.960   .     S
Cu1080 O1089   1.975   .     S
Cu1080 O1093   1.978   .     S
Cu1080 N1087   2.016   .     S
H1083  C444    1.081   1_556 S
N1097  H1099   1.046   .     S
N1097  H1098   1.046   .     S
N1100  H1102   1.044   .     S
N1100  H1101   1.045   .     S
N1103  H1104   1.045   .     S
N1103  H1105   1.045   .     S
N1108  H1110   1.043   .     S
N1108  H1109   1.045   .     S
N1112  H1113   1.045   .     S
N1112  H1114   1.040   .     S
N1115  H1116   1.045   .     S
N1115  H1117   1.045   .     S
N1118  H489    1.044   1_556 S
N1118  H490    1.045   1_556 S
C1121  C1137   1.455   .     S
C1121  O1158   1.291   .     A
C1121  O1159   1.296   .     A
C1122  C1123   1.414   .     A
C1122  C494    1.432   1_556 S
C1122  C518    1.427   1_556 S
C1123  C1130   1.416   .     A
C1123  C1127   1.405   .     A
C1124  C1128   1.407   .     A
C1125  C1126   1.399   .     A
C1125  C494    1.423   1_556 S
C1125  C514    1.402   1_556 S
C1126  N1178   1.425   .     S
C1126  C1127   1.374   .     A
C1127  H1154   1.079   .     S
C1128  F1181   1.359   .     S
C1128  C1145   1.408   .     A
C1129  C1145   1.402   .     A
C1129  F1166   1.358   .     S
C1129  C1144   1.380   .     A
C1130  C1146   1.406   .     A
C1130  C1132   1.495   .     S
C1131  H1155   1.084   .     S
C1131  C1137   1.395   .     A
C1131  C713    1.386   1_565 S
C1132  O1160   1.315   .     A
C1132  O1161   1.292   .     A
C1133  N1167   1.434   .     S
C1133  C1134   1.412   .     A
C1134  C1142   1.465   .     S
C1134  C1135   1.419   .     A
C1135  N1170   1.438   .     S
C1136  N1173   1.436   .     S
C1136  C1137   1.408   .     A
C1136  C715    1.400   1_565 S
C1138  N1157   1.366   .     A
C1138  H1151   1.082   .     S
C1138  C1209   1.417   .     S
C1139  F1176   1.354   .     S
C1139  N1156   1.370   .     A
C1140  N1156   1.366   .     A
C1140  H1152   1.082   .     S
C1141  F1177   1.354   .     S
C1141  N1157   1.370   .     A
C1141  C1210   1.417   .     S
C1142  O1163   1.299   .     A
C1142  O1162   1.293   .     A
C1143  O1165   1.298   .     A
C1143  C1145   1.467   .     S
C1143  O1164   1.297   .     A
C1146  N1182   1.433   .     S
C1146  C1147   1.403   .     A
C1147  N1188   1.435   .     S
C1147  C518    1.419   1_556 S
C1148  N1185   1.435   .     S
Cu1149 O1158   1.978   .     S
Cu1149 O1162   1.975   .     S
Cu1149 N1156   2.016   .     S
Cu1149 Cu1150  2.683   .     S
Cu1149 O1160   1.960   .     S
Cu1149 O1164   1.959   .     S
Cu1150 O1161   1.959   .     S
Cu1150 O1165   1.960   .     S
Cu1150 O1159   1.975   .     S
Cu1150 O1163   1.978   .     S
Cu1150 N1157   2.016   .     S
H1153  C514    1.081   1_556 S
N1167  H1169   1.046   .     S
N1167  H1168   1.046   .     S
N1170  H1172   1.044   .     S
N1170  H1171   1.045   .     S
N1173  H1174   1.045   .     S
N1173  H1175   1.045   .     S
N1178  H1180   1.043   .     S
N1178  H1179   1.045   .     S
N1182  H1183   1.045   .     S
N1182  H1184   1.040   .     S
N1185  H1186   1.045   .     S
N1185  H1187   1.045   .     S
N1188  H559    1.044   1_556 S
N1188  H560    1.045   1_556 S
C1191  C1207   1.455   .     S
C1191  O1228   1.291   .     A
C1191  O1229   1.296   .     A
C1192  C1193   1.414   .     A
C1192  C564    1.432   1_556 S
C1192  C588    1.427   1_556 S
C1193  C1200   1.416   .     A
C1193  C1197   1.405   .     A
C1194  C1198   1.407   .     A
C1195  C1196   1.399   .     A
C1195  C564    1.423   1_556 S
C1195  C584    1.402   1_556 S
C1196  N1248   1.425   .     S
C1196  C1197   1.374   .     A
C1197  H1224   1.079   .     S
C1198  F1251   1.359   .     S
C1198  C1215   1.408   .     A
C1199  C1215   1.402   .     A
C1199  F1236   1.358   .     S
C1199  C1214   1.380   .     A
C1200  C1216   1.406   .     A
C1200  C1202   1.495   .     S
C1201  H1225   1.084   .     S
C1201  C1207   1.395   .     A
C1201  C783    1.386   1_565 S
C1202  O1230   1.315   .     A
C1202  O1231   1.292   .     A
C1203  N1237   1.434   .     S
C1203  C1204   1.412   .     A
C1204  C1212   1.465   .     S
C1204  C1205   1.419   .     A
C1205  N1240   1.438   .     S
C1206  N1243   1.436   .     S
C1206  C1207   1.408   .     A
C1206  C785    1.400   1_565 S
C1208  N1227   1.366   .     A
C1208  H1221   1.082   .     S
C1208  C1069   1.417   1_655 S
C1209  F1246   1.354   .     S
C1209  N1226   1.370   .     A
C1210  N1226   1.366   .     A
C1210  H1222   1.082   .     S
C1211  F1247   1.354   .     S
C1211  N1227   1.370   .     A
C1211  C1070   1.417   1_655 S
C1212  O1233   1.299   .     A
C1212  O1232   1.293   .     A
C1213  O1235   1.298   .     A
C1213  C1215   1.467   .     S
C1213  O1234   1.297   .     A
C1216  N1252   1.433   .     S
C1216  C1217   1.403   .     A
C1217  N1258   1.435   .     S
C1217  C588    1.419   1_556 S
C1218  N1255   1.435   .     S
Cu1219 O1228   1.978   .     S
Cu1219 O1232   1.975   .     S
Cu1219 N1226   2.016   .     S
Cu1219 Cu1220  2.683   .     S
Cu1219 O1230   1.960   .     S
Cu1219 O1234   1.959   .     S
Cu1220 O1231   1.959   .     S
Cu1220 O1235   1.960   .     S
Cu1220 O1229   1.975   .     S
Cu1220 O1233   1.978   .     S
Cu1220 N1227   2.016   .     S
H1223  C584    1.081   1_556 S
N1237  H1239   1.046   .     S
N1237  H1238   1.046   .     S
N1240  H1242   1.044   .     S
N1240  H1241   1.045   .     S
N1243  H1244   1.045   .     S
N1243  H1245   1.045   .     S
N1248  H1250   1.043   .     S
N1248  H1249   1.045   .     S
N1252  H1253   1.045   .     S
N1252  H1254   1.040   .     S
N1255  H1256   1.045   .     S
N1255  H1257   1.045   .     S
N1258  H629    1.044   1_556 S
N1258  H630    1.045   1_556 S
