data_str_m2_o1_o16_pcu_sym.16
_audit_creation_date              2020-01-03
_audit_creation_method            'Materials Studio'
_symmetry_space_group_name_H-M    'P1'
_symmetry_Int_Tables_number       1
_symmetry_cell_setting            triclinic
loop_
_symmetry_equiv_pos_as_xyz
  x,y,z
_cell_length_a                    28.8655
_cell_length_b                    32.5214
_cell_length_c                    27.1527
_cell_angle_alpha                 92.5563
_cell_angle_beta                  73.8060
_cell_angle_gamma                 90.1871
loop_
_atom_site_label
_atom_site_type_symbol
_atom_site_fract_x
_atom_site_fract_y
_atom_site_fract_z
_atom_site_U_iso_or_equiv
_atom_site_adp_type
_atom_site_occupancy
C1     C     0.16654   0.24581   0.25082   0.00000  Uiso   1.00
C2     C     0.12608   0.17411   0.40698   0.00000  Uiso   1.00
C3     C     0.20928   0.31195   0.24280   0.00000  Uiso   1.00
C4     C     0.14098   0.16929   0.34987   0.00000  Uiso   1.00
C5     C     0.20846   0.02114   0.24443   0.00000  Uiso   1.00
C6     C     0.16447   0.04281   0.25612   0.00000  Uiso   1.00
C7     C     0.12061   0.02088   0.27033   0.00000  Uiso   1.00
C8     C     0.12192   0.31156   0.26787   0.00000  Uiso   1.00
C9     C     0.16600   0.29038   0.25331   0.00000  Uiso   1.00
C10    C     0.30220   0.19689   0.27566   0.00000  Uiso   1.00
C11    C     0.01778   0.19640   0.27679   0.00000  Uiso   1.00
C12    C     0.14439   0.16991   0.48994   0.00000  Uiso   1.00
C13    C     0.03283   0.13876   0.21907   0.00000  Uiso   1.00
C14    C     0.31656   0.13858   0.21942   0.00000  Uiso   1.00
C15    C     0.16575   0.08753   0.25265   0.00000  Uiso   1.00
C16    C     0.19216   0.16586   0.15054   0.00000  Uiso   1.00
C17    C     0.26348   0.14723   0.01273   0.00000  Uiso   1.00
C18    C     0.20542   0.16252   0.09451   0.00000  Uiso   1.00
C19    C     0.07717   0.17958   0.43337   0.00000  Uiso   1.00
C20    C     0.06172   0.17971   0.48674   0.00000  Uiso   1.00
C21    C     0.09447   0.17329   0.01483   0.00000  Uiso   1.00
C22    C     0.15989   0.17258   0.43593   0.00000  Uiso   1.00
C23    C     0.18012   0.16466   0.01631   0.00000  Uiso   1.00
C24    C     0.22859   0.15578   0.48752   0.00000  Uiso   1.00
C25    C     0.24160   0.15913   0.43432   0.00000  Uiso   1.00
C26    C     0.20908   0.17733   0.41280   0.00000  Uiso   1.00
C27    C     0.16958   0.16843   0.06977   0.00000  Uiso   1.00
C28    C     0.25225   0.15159   0.06581   0.00000  Uiso   1.00
Cu29   Cu    0.11978   0.16666   0.25000   0.00000  Uiso   1.00
Cu30   Cu    0.21355   0.16667   0.25000   0.00000  Uiso   1.00
H31    H     0.28042   0.14686   0.08412   0.00000  Uiso   1.00
H32    H     0.02397   0.18434   0.00661   0.00000  Uiso   1.00
H33    H     0.24379   0.29603   0.23266   0.00000  Uiso   1.00
H34    H     0.24254   0.03683   0.23611   0.00000  Uiso   1.00
H35    H     0.08826   0.29492   0.27843   0.00000  Uiso   1.00
H36    H     0.27939   0.22233   0.29393   0.00000  Uiso   1.00
H37    H     0.03040   0.22034   0.29869   0.00000  Uiso   1.00
H38    H     0.30008   0.13902   0.49170   0.00000  Uiso   1.00
H39    H     0.13403   0.17758   0.09277   0.00000  Uiso   1.00
H40    H     0.05084   0.18429   0.41270   0.00000  Uiso   1.00
H41    H     0.07967   0.17119   0.05573   0.00000  Uiso   1.00
I42    I     0.05052   0.04710   0.30098   0.00000  Uiso   1.00
I43    I     0.08153   0.09693   0.16525   0.00000  Uiso   1.00
I44    I     0.29620   0.09661   0.16598   0.00000  Uiso   1.00
I45    I     0.30818   0.13841   0.38451   0.00000  Uiso   1.00
I46    I     0.22559   0.23931   0.39411   0.00000  Uiso   1.00
N47    N     0.04931   0.16666   0.24998   0.00000  Uiso   1.00
N48    N     0.28402   0.16669   0.24999   0.00000  Uiso   1.00
O49    O     0.12708   0.22678   0.25000   0.00000  Uiso   1.00
O50    O     0.20627   0.22679   0.25000   0.00000  Uiso   1.00
O51    O     0.10775   0.16665   0.32549   0.00000  Uiso   1.00
O52    O     0.18694   0.16666   0.32549   0.00000  Uiso   1.00
O53    O     0.12706   0.10654   0.24999   0.00000  Uiso   1.00
O54    O     0.20625   0.10655   0.24999   0.00000  Uiso   1.00
O55    O     0.14640   0.16667   0.17451   0.00000  Uiso   1.00
O56    O     0.22559   0.16668   0.17451   0.00000  Uiso   1.00
C57    C     0.49988   0.24581   0.25082   0.00000  Uiso   1.00
C58    C     0.45941   0.17411   0.40698   0.00000  Uiso   1.00
C59    C     0.54261   0.31195   0.24280   0.00000  Uiso   1.00
C60    C     0.47431   0.16929   0.34987   0.00000  Uiso   1.00
C61    C     0.54179   0.02114   0.24443   0.00000  Uiso   1.00
C62    C     0.49781   0.04281   0.25612   0.00000  Uiso   1.00
C63    C     0.45395   0.02088   0.27033   0.00000  Uiso   1.00
C64    C     0.45526   0.31156   0.26787   0.00000  Uiso   1.00
C65    C     0.49933   0.29038   0.25331   0.00000  Uiso   1.00
C66    C     0.63553   0.19689   0.27566   0.00000  Uiso   1.00
C67    C     0.35111   0.19640   0.27679   0.00000  Uiso   1.00
C68    C     0.47772   0.16991   0.48994   0.00000  Uiso   1.00
C69    C     0.36616   0.13876   0.21907   0.00000  Uiso   1.00
C70    C     0.64989   0.13858   0.21942   0.00000  Uiso   1.00
C71    C     0.49908   0.08753   0.25265   0.00000  Uiso   1.00
C72    C     0.52549   0.16586   0.15054   0.00000  Uiso   1.00
C73    C     0.59681   0.14723   0.01273   0.00000  Uiso   1.00
C74    C     0.53875   0.16252   0.09451   0.00000  Uiso   1.00
C75    C     0.41050   0.17958   0.43337   0.00000  Uiso   1.00
C76    C     0.39505   0.17971   0.48674   0.00000  Uiso   1.00
C77    C     0.42781   0.17329   0.01483   0.00000  Uiso   1.00
C78    C     0.49323   0.17258   0.43593   0.00000  Uiso   1.00
C79    C     0.51346   0.16466   0.01631   0.00000  Uiso   1.00
C80    C     0.56193   0.15578   0.48752   0.00000  Uiso   1.00
C81    C     0.57493   0.15913   0.43432   0.00000  Uiso   1.00
C82    C     0.54241   0.17733   0.41280   0.00000  Uiso   1.00
C83    C     0.50291   0.16843   0.06977   0.00000  Uiso   1.00
C84    C     0.58558   0.15159   0.06581   0.00000  Uiso   1.00
Cu85   Cu    0.45311   0.16666   0.25000   0.00000  Uiso   1.00
Cu86   Cu    0.54689   0.16667   0.25000   0.00000  Uiso   1.00
H87    H     0.61375   0.14686   0.08412   0.00000  Uiso   1.00
H88    H     0.35730   0.18434   0.00661   0.00000  Uiso   1.00
H89    H     0.57713   0.29603   0.23266   0.00000  Uiso   1.00
H90    H     0.57588   0.03683   0.23611   0.00000  Uiso   1.00
H91    H     0.42159   0.29492   0.27843   0.00000  Uiso   1.00
H92    H     0.61273   0.22233   0.29393   0.00000  Uiso   1.00
H93    H     0.36373   0.22034   0.29869   0.00000  Uiso   1.00
H94    H     0.63341   0.13902   0.49170   0.00000  Uiso   1.00
H95    H     0.46736   0.17758   0.09277   0.00000  Uiso   1.00
H96    H     0.38417   0.18429   0.41270   0.00000  Uiso   1.00
H97    H     0.41301   0.17119   0.05573   0.00000  Uiso   1.00
I98    I     0.38385   0.04710   0.30098   0.00000  Uiso   1.00
I99    I     0.41487   0.09693   0.16525   0.00000  Uiso   1.00
I100   I     0.62953   0.09661   0.16598   0.00000  Uiso   1.00
I101   I     0.64152   0.13841   0.38451   0.00000  Uiso   1.00
I102   I     0.55892   0.23931   0.39411   0.00000  Uiso   1.00
N103   N     0.38265   0.16666   0.24998   0.00000  Uiso   1.00
N104   N     0.61735   0.16669   0.24999   0.00000  Uiso   1.00
O105   O     0.46042   0.22678   0.25000   0.00000  Uiso   1.00
O106   O     0.53961   0.22679   0.25000   0.00000  Uiso   1.00
O107   O     0.44108   0.16665   0.32549   0.00000  Uiso   1.00
O108   O     0.52027   0.16666   0.32549   0.00000  Uiso   1.00
O109   O     0.46039   0.10654   0.24999   0.00000  Uiso   1.00
O110   O     0.53958   0.10655   0.24999   0.00000  Uiso   1.00
O111   O     0.47973   0.16667   0.17451   0.00000  Uiso   1.00
O112   O     0.55892   0.16668   0.17451   0.00000  Uiso   1.00
C113   C     0.83321   0.24581   0.25082   0.00000  Uiso   1.00
C114   C     0.79274   0.17411   0.40698   0.00000  Uiso   1.00
C115   C     0.87594   0.31195   0.24280   0.00000  Uiso   1.00
C116   C     0.80765   0.16929   0.34987   0.00000  Uiso   1.00
C117   C     0.87512   0.02114   0.24443   0.00000  Uiso   1.00
C118   C     0.83114   0.04281   0.25612   0.00000  Uiso   1.00
C119   C     0.78728   0.02088   0.27033   0.00000  Uiso   1.00
C120   C     0.78859   0.31156   0.26787   0.00000  Uiso   1.00
C121   C     0.83267   0.29038   0.25331   0.00000  Uiso   1.00
C122   C     0.96886   0.19689   0.27566   0.00000  Uiso   1.00
C123   C     0.68445   0.19640   0.27679   0.00000  Uiso   1.00
C124   C     0.81106   0.16991   0.48994   0.00000  Uiso   1.00
C125   C     0.69949   0.13876   0.21907   0.00000  Uiso   1.00
C126   C     0.98322   0.13858   0.21942   0.00000  Uiso   1.00
C127   C     0.83242   0.08753   0.25265   0.00000  Uiso   1.00
C128   C     0.85882   0.16586   0.15054   0.00000  Uiso   1.00
C129   C     0.93015   0.14723   0.01273   0.00000  Uiso   1.00
C130   C     0.87209   0.16252   0.09451   0.00000  Uiso   1.00
C131   C     0.74383   0.17958   0.43337   0.00000  Uiso   1.00
C132   C     0.72838   0.17971   0.48674   0.00000  Uiso   1.00
C133   C     0.76114   0.17329   0.01483   0.00000  Uiso   1.00
C134   C     0.82656   0.17258   0.43593   0.00000  Uiso   1.00
C135   C     0.84679   0.16466   0.01631   0.00000  Uiso   1.00
C136   C     0.89526   0.15578   0.48752   0.00000  Uiso   1.00
C137   C     0.90826   0.15913   0.43432   0.00000  Uiso   1.00
C138   C     0.87575   0.17733   0.41280   0.00000  Uiso   1.00
C139   C     0.83624   0.16843   0.06977   0.00000  Uiso   1.00
C140   C     0.91892   0.15159   0.06581   0.00000  Uiso   1.00
Cu141  Cu    0.78645   0.16666   0.25000   0.00000  Uiso   1.00
Cu142  Cu    0.88022   0.16667   0.25000   0.00000  Uiso   1.00
H143   H     0.94709   0.14686   0.08412   0.00000  Uiso   1.00
H144   H     0.69063   0.18434   0.00661   0.00000  Uiso   1.00
H145   H     0.91046   0.29603   0.23266   0.00000  Uiso   1.00
H146   H     0.90921   0.03683   0.23611   0.00000  Uiso   1.00
H147   H     0.75493   0.29492   0.27843   0.00000  Uiso   1.00
H148   H     0.94606   0.22233   0.29393   0.00000  Uiso   1.00
H149   H     0.69707   0.22034   0.29869   0.00000  Uiso   1.00
H150   H     0.96674   0.13902   0.49170   0.00000  Uiso   1.00
H151   H     0.80069   0.17758   0.09277   0.00000  Uiso   1.00
H152   H     0.71751   0.18429   0.41270   0.00000  Uiso   1.00
H153   H     0.74634   0.17119   0.05573   0.00000  Uiso   1.00
I154   I     0.71719   0.04710   0.30098   0.00000  Uiso   1.00
I155   I     0.74820   0.09693   0.16525   0.00000  Uiso   1.00
I156   I     0.96286   0.09661   0.16598   0.00000  Uiso   1.00
I157   I     0.97485   0.13841   0.38451   0.00000  Uiso   1.00
I158   I     0.89225   0.23931   0.39411   0.00000  Uiso   1.00
N159   N     0.71598   0.16666   0.24998   0.00000  Uiso   1.00
N160   N     0.95069   0.16669   0.24999   0.00000  Uiso   1.00
O161   O     0.79375   0.22678   0.25000   0.00000  Uiso   1.00
O162   O     0.87294   0.22679   0.25000   0.00000  Uiso   1.00
O163   O     0.77441   0.16665   0.32549   0.00000  Uiso   1.00
O164   O     0.85360   0.16666   0.32549   0.00000  Uiso   1.00
O165   O     0.79373   0.10654   0.24999   0.00000  Uiso   1.00
O166   O     0.87292   0.10655   0.24999   0.00000  Uiso   1.00
O167   O     0.81306   0.16667   0.17451   0.00000  Uiso   1.00
O168   O     0.89225   0.16668   0.17451   0.00000  Uiso   1.00
C169   C     0.16654   0.57914   0.25082   0.00000  Uiso   1.00
C170   C     0.12608   0.50744   0.40698   0.00000  Uiso   1.00
C171   C     0.20928   0.64528   0.24280   0.00000  Uiso   1.00
C172   C     0.14098   0.50263   0.34987   0.00000  Uiso   1.00
C173   C     0.20846   0.35447   0.24443   0.00000  Uiso   1.00
C174   C     0.16447   0.37614   0.25612   0.00000  Uiso   1.00
C175   C     0.12061   0.35421   0.27033   0.00000  Uiso   1.00
C176   C     0.12192   0.64489   0.26787   0.00000  Uiso   1.00
C177   C     0.16600   0.62371   0.25331   0.00000  Uiso   1.00
C178   C     0.30220   0.53023   0.27566   0.00000  Uiso   1.00
C179   C     0.01778   0.52974   0.27679   0.00000  Uiso   1.00
C180   C     0.14439   0.50325   0.48994   0.00000  Uiso   1.00
C181   C     0.03283   0.47210   0.21907   0.00000  Uiso   1.00
C182   C     0.31656   0.47191   0.21942   0.00000  Uiso   1.00
C183   C     0.16575   0.42086   0.25265   0.00000  Uiso   1.00
C184   C     0.19216   0.49920   0.15054   0.00000  Uiso   1.00
C185   C     0.26348   0.48056   0.01273   0.00000  Uiso   1.00
C186   C     0.20542   0.49586   0.09451   0.00000  Uiso   1.00
C187   C     0.07717   0.51291   0.43337   0.00000  Uiso   1.00
C188   C     0.06172   0.51304   0.48674   0.00000  Uiso   1.00
C189   C     0.09447   0.50662   0.01483   0.00000  Uiso   1.00
C190   C     0.15989   0.50592   0.43593   0.00000  Uiso   1.00
C191   C     0.18012   0.49800   0.01631   0.00000  Uiso   1.00
C192   C     0.22859   0.48912   0.48752   0.00000  Uiso   1.00
C193   C     0.24160   0.49246   0.43432   0.00000  Uiso   1.00
C194   C     0.20908   0.51066   0.41280   0.00000  Uiso   1.00
C195   C     0.16958   0.50176   0.06977   0.00000  Uiso   1.00
C196   C     0.25225   0.48492   0.06581   0.00000  Uiso   1.00
Cu197  Cu    0.11978   0.49999   0.25000   0.00000  Uiso   1.00
Cu198  Cu    0.21355   0.50001   0.25000   0.00000  Uiso   1.00
H199   H     0.28042   0.48019   0.08412   0.00000  Uiso   1.00
H200   H     0.02397   0.51767   0.00661   0.00000  Uiso   1.00
H201   H     0.24379   0.62937   0.23266   0.00000  Uiso   1.00
H202   H     0.24254   0.37017   0.23611   0.00000  Uiso   1.00
H203   H     0.08826   0.62826   0.27843   0.00000  Uiso   1.00
H204   H     0.27939   0.55567   0.29393   0.00000  Uiso   1.00
H205   H     0.03040   0.55367   0.29869   0.00000  Uiso   1.00
H206   H     0.30008   0.47235   0.49170   0.00000  Uiso   1.00
H207   H     0.13403   0.51092   0.09277   0.00000  Uiso   1.00
H208   H     0.05084   0.51762   0.41270   0.00000  Uiso   1.00
H209   H     0.07967   0.50453   0.05573   0.00000  Uiso   1.00
I210   I     0.05052   0.38043   0.30098   0.00000  Uiso   1.00
I211   I     0.08153   0.43026   0.16525   0.00000  Uiso   1.00
I212   I     0.29620   0.42994   0.16598   0.00000  Uiso   1.00
I213   I     0.30818   0.47175   0.38451   0.00000  Uiso   1.00
I214   I     0.22559   0.57264   0.39411   0.00000  Uiso   1.00
N215   N     0.04931   0.49999   0.24998   0.00000  Uiso   1.00
N216   N     0.28402   0.50002   0.24999   0.00000  Uiso   1.00
O217   O     0.12708   0.56011   0.25000   0.00000  Uiso   1.00
O218   O     0.20627   0.56012   0.25000   0.00000  Uiso   1.00
O219   O     0.10775   0.49998   0.32549   0.00000  Uiso   1.00
O220   O     0.18694   0.49999   0.32549   0.00000  Uiso   1.00
O221   O     0.12706   0.43988   0.24999   0.00000  Uiso   1.00
O222   O     0.20625   0.43989   0.24999   0.00000  Uiso   1.00
O223   O     0.14640   0.50001   0.17451   0.00000  Uiso   1.00
O224   O     0.22559   0.50002   0.17451   0.00000  Uiso   1.00
C225   C     0.49988   0.57914   0.25082   0.00000  Uiso   1.00
C226   C     0.45941   0.50744   0.40698   0.00000  Uiso   1.00
C227   C     0.54261   0.64528   0.24280   0.00000  Uiso   1.00
C228   C     0.47431   0.50263   0.34987   0.00000  Uiso   1.00
C229   C     0.54179   0.35447   0.24443   0.00000  Uiso   1.00
C230   C     0.49781   0.37614   0.25612   0.00000  Uiso   1.00
C231   C     0.45395   0.35421   0.27033   0.00000  Uiso   1.00
C232   C     0.45526   0.64489   0.26787   0.00000  Uiso   1.00
C233   C     0.49933   0.62371   0.25331   0.00000  Uiso   1.00
C234   C     0.63553   0.53023   0.27566   0.00000  Uiso   1.00
C235   C     0.35111   0.52974   0.27679   0.00000  Uiso   1.00
C236   C     0.47772   0.50325   0.48994   0.00000  Uiso   1.00
C237   C     0.36616   0.47210   0.21907   0.00000  Uiso   1.00
C238   C     0.64989   0.47191   0.21942   0.00000  Uiso   1.00
C239   C     0.49908   0.42086   0.25265   0.00000  Uiso   1.00
C240   C     0.52549   0.49920   0.15054   0.00000  Uiso   1.00
C241   C     0.59681   0.48056   0.01273   0.00000  Uiso   1.00
C242   C     0.53875   0.49586   0.09451   0.00000  Uiso   1.00
C243   C     0.41050   0.51291   0.43337   0.00000  Uiso   1.00
C244   C     0.39505   0.51304   0.48674   0.00000  Uiso   1.00
C245   C     0.42781   0.50662   0.01483   0.00000  Uiso   1.00
C246   C     0.49323   0.50592   0.43593   0.00000  Uiso   1.00
C247   C     0.51346   0.49800   0.01631   0.00000  Uiso   1.00
C248   C     0.56193   0.48912   0.48752   0.00000  Uiso   1.00
C249   C     0.57493   0.49246   0.43432   0.00000  Uiso   1.00
C250   C     0.54241   0.51066   0.41280   0.00000  Uiso   1.00
C251   C     0.50291   0.50176   0.06977   0.00000  Uiso   1.00
C252   C     0.58558   0.48492   0.06581   0.00000  Uiso   1.00
Cu253  Cu    0.45311   0.49999   0.25000   0.00000  Uiso   1.00
Cu254  Cu    0.54689   0.50001   0.25000   0.00000  Uiso   1.00
H255   H     0.61375   0.48019   0.08412   0.00000  Uiso   1.00
H256   H     0.35730   0.51767   0.00661   0.00000  Uiso   1.00
H257   H     0.57713   0.62937   0.23266   0.00000  Uiso   1.00
H258   H     0.57588   0.37017   0.23611   0.00000  Uiso   1.00
H259   H     0.42159   0.62826   0.27843   0.00000  Uiso   1.00
H260   H     0.61273   0.55567   0.29393   0.00000  Uiso   1.00
H261   H     0.36373   0.55367   0.29869   0.00000  Uiso   1.00
H262   H     0.63341   0.47235   0.49170   0.00000  Uiso   1.00
H263   H     0.46736   0.51092   0.09277   0.00000  Uiso   1.00
H264   H     0.38417   0.51762   0.41270   0.00000  Uiso   1.00
H265   H     0.41301   0.50453   0.05573   0.00000  Uiso   1.00
I266   I     0.38385   0.38043   0.30098   0.00000  Uiso   1.00
I267   I     0.41487   0.43026   0.16525   0.00000  Uiso   1.00
I268   I     0.62953   0.42994   0.16598   0.00000  Uiso   1.00
I269   I     0.64152   0.47175   0.38451   0.00000  Uiso   1.00
I270   I     0.55892   0.57264   0.39411   0.00000  Uiso   1.00
N271   N     0.38265   0.49999   0.24998   0.00000  Uiso   1.00
N272   N     0.61735   0.50002   0.24999   0.00000  Uiso   1.00
O273   O     0.46042   0.56011   0.25000   0.00000  Uiso   1.00
O274   O     0.53961   0.56012   0.25000   0.00000  Uiso   1.00
O275   O     0.44108   0.49998   0.32549   0.00000  Uiso   1.00
O276   O     0.52027   0.49999   0.32549   0.00000  Uiso   1.00
O277   O     0.46039   0.43988   0.24999   0.00000  Uiso   1.00
O278   O     0.53958   0.43989   0.24999   0.00000  Uiso   1.00
O279   O     0.47973   0.50001   0.17451   0.00000  Uiso   1.00
O280   O     0.55892   0.50002   0.17451   0.00000  Uiso   1.00
C281   C     0.83321   0.57914   0.25082   0.00000  Uiso   1.00
C282   C     0.79274   0.50744   0.40698   0.00000  Uiso   1.00
C283   C     0.87594   0.64528   0.24280   0.00000  Uiso   1.00
C284   C     0.80765   0.50263   0.34987   0.00000  Uiso   1.00
C285   C     0.87512   0.35447   0.24443   0.00000  Uiso   1.00
C286   C     0.83114   0.37614   0.25612   0.00000  Uiso   1.00
C287   C     0.78728   0.35421   0.27033   0.00000  Uiso   1.00
C288   C     0.78859   0.64489   0.26787   0.00000  Uiso   1.00
C289   C     0.83267   0.62371   0.25331   0.00000  Uiso   1.00
C290   C     0.96886   0.53023   0.27566   0.00000  Uiso   1.00
C291   C     0.68445   0.52974   0.27679   0.00000  Uiso   1.00
C292   C     0.81106   0.50325   0.48994   0.00000  Uiso   1.00
C293   C     0.69949   0.47210   0.21907   0.00000  Uiso   1.00
C294   C     0.98322   0.47191   0.21942   0.00000  Uiso   1.00
C295   C     0.83242   0.42086   0.25265   0.00000  Uiso   1.00
C296   C     0.85882   0.49920   0.15054   0.00000  Uiso   1.00
C297   C     0.93015   0.48056   0.01273   0.00000  Uiso   1.00
C298   C     0.87209   0.49586   0.09451   0.00000  Uiso   1.00
C299   C     0.74383   0.51291   0.43337   0.00000  Uiso   1.00
C300   C     0.72838   0.51304   0.48674   0.00000  Uiso   1.00
C301   C     0.76114   0.50662   0.01483   0.00000  Uiso   1.00
C302   C     0.82656   0.50592   0.43593   0.00000  Uiso   1.00
C303   C     0.84679   0.49800   0.01631   0.00000  Uiso   1.00
C304   C     0.89526   0.48912   0.48752   0.00000  Uiso   1.00
C305   C     0.90826   0.49246   0.43432   0.00000  Uiso   1.00
C306   C     0.87575   0.51066   0.41280   0.00000  Uiso   1.00
C307   C     0.83624   0.50176   0.06977   0.00000  Uiso   1.00
C308   C     0.91892   0.48492   0.06581   0.00000  Uiso   1.00
Cu309  Cu    0.78645   0.49999   0.25000   0.00000  Uiso   1.00
Cu310  Cu    0.88022   0.50001   0.25000   0.00000  Uiso   1.00
H311   H     0.94709   0.48019   0.08412   0.00000  Uiso   1.00
H312   H     0.69063   0.51767   0.00661   0.00000  Uiso   1.00
H313   H     0.91046   0.62937   0.23266   0.00000  Uiso   1.00
H314   H     0.90921   0.37017   0.23611   0.00000  Uiso   1.00
H315   H     0.75493   0.62826   0.27843   0.00000  Uiso   1.00
H316   H     0.94606   0.55567   0.29393   0.00000  Uiso   1.00
H317   H     0.69707   0.55367   0.29869   0.00000  Uiso   1.00
H318   H     0.96674   0.47235   0.49170   0.00000  Uiso   1.00
H319   H     0.80069   0.51092   0.09277   0.00000  Uiso   1.00
H320   H     0.71751   0.51762   0.41270   0.00000  Uiso   1.00
H321   H     0.74634   0.50453   0.05573   0.00000  Uiso   1.00
I322   I     0.71719   0.38043   0.30098   0.00000  Uiso   1.00
I323   I     0.74820   0.43026   0.16525   0.00000  Uiso   1.00
I324   I     0.96286   0.42994   0.16598   0.00000  Uiso   1.00
I325   I     0.97485   0.47175   0.38451   0.00000  Uiso   1.00
I326   I     0.89225   0.57264   0.39411   0.00000  Uiso   1.00
N327   N     0.71598   0.49999   0.24998   0.00000  Uiso   1.00
N328   N     0.95069   0.50002   0.24999   0.00000  Uiso   1.00
O329   O     0.79375   0.56011   0.25000   0.00000  Uiso   1.00
O330   O     0.87294   0.56012   0.25000   0.00000  Uiso   1.00
O331   O     0.77441   0.49998   0.32549   0.00000  Uiso   1.00
O332   O     0.85360   0.49999   0.32549   0.00000  Uiso   1.00
O333   O     0.79373   0.43988   0.24999   0.00000  Uiso   1.00
O334   O     0.87292   0.43989   0.24999   0.00000  Uiso   1.00
O335   O     0.81306   0.50001   0.17451   0.00000  Uiso   1.00
O336   O     0.89225   0.50002   0.17451   0.00000  Uiso   1.00
C337   C     0.16654   0.91248   0.25082   0.00000  Uiso   1.00
C338   C     0.12608   0.84078   0.40698   0.00000  Uiso   1.00
C339   C     0.20928   0.97861   0.24280   0.00000  Uiso   1.00
C340   C     0.14098   0.83596   0.34987   0.00000  Uiso   1.00
C341   C     0.20846   0.68780   0.24443   0.00000  Uiso   1.00
C342   C     0.16447   0.70947   0.25612   0.00000  Uiso   1.00
C343   C     0.12061   0.68755   0.27033   0.00000  Uiso   1.00
C344   C     0.12192   0.97822   0.26787   0.00000  Uiso   1.00
C345   C     0.16600   0.95704   0.25331   0.00000  Uiso   1.00
C346   C     0.30220   0.86356   0.27566   0.00000  Uiso   1.00
C347   C     0.01778   0.86307   0.27679   0.00000  Uiso   1.00
C348   C     0.14439   0.83658   0.48994   0.00000  Uiso   1.00
C349   C     0.03283   0.80543   0.21907   0.00000  Uiso   1.00
C350   C     0.31656   0.80525   0.21942   0.00000  Uiso   1.00
C351   C     0.16575   0.75419   0.25265   0.00000  Uiso   1.00
C352   C     0.19216   0.83253   0.15054   0.00000  Uiso   1.00
C353   C     0.26348   0.81389   0.01273   0.00000  Uiso   1.00
C354   C     0.20542   0.82919   0.09451   0.00000  Uiso   1.00
C355   C     0.07717   0.84625   0.43337   0.00000  Uiso   1.00
C356   C     0.06172   0.84637   0.48674   0.00000  Uiso   1.00
C357   C     0.09447   0.83995   0.01483   0.00000  Uiso   1.00
C358   C     0.15989   0.83925   0.43593   0.00000  Uiso   1.00
C359   C     0.18012   0.83133   0.01631   0.00000  Uiso   1.00
C360   C     0.22859   0.82245   0.48752   0.00000  Uiso   1.00
C361   C     0.24160   0.82580   0.43432   0.00000  Uiso   1.00
C362   C     0.20908   0.84399   0.41280   0.00000  Uiso   1.00
C363   C     0.16958   0.83509   0.06977   0.00000  Uiso   1.00
C364   C     0.25225   0.81825   0.06581   0.00000  Uiso   1.00
Cu365  Cu    0.11978   0.83333   0.25000   0.00000  Uiso   1.00
Cu366  Cu    0.21355   0.83334   0.25000   0.00000  Uiso   1.00
H367   H     0.28042   0.81352   0.08412   0.00000  Uiso   1.00
H368   H     0.02397   0.85101   0.00661   0.00000  Uiso   1.00
H369   H     0.24379   0.96270   0.23266   0.00000  Uiso   1.00
H370   H     0.24254   0.70350   0.23611   0.00000  Uiso   1.00
H371   H     0.08826   0.96159   0.27843   0.00000  Uiso   1.00
H372   H     0.27939   0.88900   0.29393   0.00000  Uiso   1.00
H373   H     0.03040   0.88701   0.29869   0.00000  Uiso   1.00
H374   H     0.30008   0.80569   0.49170   0.00000  Uiso   1.00
H375   H     0.13403   0.84425   0.09277   0.00000  Uiso   1.00
H376   H     0.05084   0.85095   0.41270   0.00000  Uiso   1.00
H377   H     0.07967   0.83786   0.05573   0.00000  Uiso   1.00
I378   I     0.05052   0.71377   0.30098   0.00000  Uiso   1.00
I379   I     0.08153   0.76360   0.16525   0.00000  Uiso   1.00
I380   I     0.29620   0.76327   0.16598   0.00000  Uiso   1.00
I381   I     0.30818   0.80508   0.38451   0.00000  Uiso   1.00
I382   I     0.22559   0.90598   0.39411   0.00000  Uiso   1.00
N383   N     0.04931   0.83332   0.24998   0.00000  Uiso   1.00
N384   N     0.28402   0.83335   0.24999   0.00000  Uiso   1.00
O385   O     0.12708   0.89345   0.25000   0.00000  Uiso   1.00
O386   O     0.20627   0.89346   0.25000   0.00000  Uiso   1.00
O387   O     0.10775   0.83332   0.32549   0.00000  Uiso   1.00
O388   O     0.18694   0.83333   0.32549   0.00000  Uiso   1.00
O389   O     0.12706   0.77321   0.24999   0.00000  Uiso   1.00
O390   O     0.20625   0.77322   0.24999   0.00000  Uiso   1.00
O391   O     0.14640   0.83334   0.17451   0.00000  Uiso   1.00
O392   O     0.22559   0.83335   0.17451   0.00000  Uiso   1.00
C393   C     0.49988   0.91248   0.25082   0.00000  Uiso   1.00
C394   C     0.45941   0.84078   0.40698   0.00000  Uiso   1.00
C395   C     0.54261   0.97861   0.24280   0.00000  Uiso   1.00
C396   C     0.47431   0.83596   0.34987   0.00000  Uiso   1.00
C397   C     0.54179   0.68780   0.24443   0.00000  Uiso   1.00
C398   C     0.49781   0.70947   0.25612   0.00000  Uiso   1.00
C399   C     0.45395   0.68755   0.27033   0.00000  Uiso   1.00
C400   C     0.45526   0.97822   0.26787   0.00000  Uiso   1.00
C401   C     0.49933   0.95704   0.25331   0.00000  Uiso   1.00
C402   C     0.63553   0.86356   0.27566   0.00000  Uiso   1.00
C403   C     0.35111   0.86307   0.27679   0.00000  Uiso   1.00
C404   C     0.47772   0.83658   0.48994   0.00000  Uiso   1.00
C405   C     0.36616   0.80543   0.21907   0.00000  Uiso   1.00
C406   C     0.64989   0.80525   0.21942   0.00000  Uiso   1.00
C407   C     0.49908   0.75419   0.25265   0.00000  Uiso   1.00
C408   C     0.52549   0.83253   0.15054   0.00000  Uiso   1.00
C409   C     0.59681   0.81389   0.01273   0.00000  Uiso   1.00
C410   C     0.53875   0.82919   0.09451   0.00000  Uiso   1.00
C411   C     0.41050   0.84625   0.43337   0.00000  Uiso   1.00
C412   C     0.39505   0.84637   0.48674   0.00000  Uiso   1.00
C413   C     0.42781   0.83995   0.01483   0.00000  Uiso   1.00
C414   C     0.49323   0.83925   0.43593   0.00000  Uiso   1.00
C415   C     0.51346   0.83133   0.01631   0.00000  Uiso   1.00
C416   C     0.56193   0.82245   0.48752   0.00000  Uiso   1.00
C417   C     0.57493   0.82580   0.43432   0.00000  Uiso   1.00
C418   C     0.54241   0.84399   0.41280   0.00000  Uiso   1.00
C419   C     0.50291   0.83509   0.06977   0.00000  Uiso   1.00
C420   C     0.58558   0.81825   0.06581   0.00000  Uiso   1.00
Cu421  Cu    0.45311   0.83333   0.25000   0.00000  Uiso   1.00
Cu422  Cu    0.54689   0.83334   0.25000   0.00000  Uiso   1.00
H423   H     0.61375   0.81352   0.08412   0.00000  Uiso   1.00
H424   H     0.35730   0.85101   0.00661   0.00000  Uiso   1.00
H425   H     0.57713   0.96270   0.23266   0.00000  Uiso   1.00
H426   H     0.57588   0.70350   0.23611   0.00000  Uiso   1.00
H427   H     0.42159   0.96159   0.27843   0.00000  Uiso   1.00
H428   H     0.61273   0.88900   0.29393   0.00000  Uiso   1.00
H429   H     0.36373   0.88701   0.29869   0.00000  Uiso   1.00
H430   H     0.63341   0.80569   0.49170   0.00000  Uiso   1.00
H431   H     0.46736   0.84425   0.09277   0.00000  Uiso   1.00
H432   H     0.38417   0.85095   0.41270   0.00000  Uiso   1.00
H433   H     0.41301   0.83786   0.05573   0.00000  Uiso   1.00
I434   I     0.38385   0.71377   0.30098   0.00000  Uiso   1.00
I435   I     0.41487   0.76360   0.16525   0.00000  Uiso   1.00
I436   I     0.62953   0.76327   0.16598   0.00000  Uiso   1.00
I437   I     0.64152   0.80508   0.38451   0.00000  Uiso   1.00
I438   I     0.55892   0.90598   0.39411   0.00000  Uiso   1.00
N439   N     0.38265   0.83332   0.24998   0.00000  Uiso   1.00
N440   N     0.61735   0.83335   0.24999   0.00000  Uiso   1.00
O441   O     0.46042   0.89345   0.25000   0.00000  Uiso   1.00
O442   O     0.53961   0.89346   0.25000   0.00000  Uiso   1.00
O443   O     0.44108   0.83332   0.32549   0.00000  Uiso   1.00
O444   O     0.52027   0.83333   0.32549   0.00000  Uiso   1.00
O445   O     0.46039   0.77321   0.24999   0.00000  Uiso   1.00
O446   O     0.53958   0.77322   0.24999   0.00000  Uiso   1.00
O447   O     0.47973   0.83334   0.17451   0.00000  Uiso   1.00
O448   O     0.55892   0.83335   0.17451   0.00000  Uiso   1.00
C449   C     0.83321   0.91248   0.25082   0.00000  Uiso   1.00
C450   C     0.79274   0.84078   0.40698   0.00000  Uiso   1.00
C451   C     0.87594   0.97861   0.24280   0.00000  Uiso   1.00
C452   C     0.80765   0.83596   0.34987   0.00000  Uiso   1.00
C453   C     0.87512   0.68780   0.24443   0.00000  Uiso   1.00
C454   C     0.83114   0.70947   0.25612   0.00000  Uiso   1.00
C455   C     0.78728   0.68755   0.27033   0.00000  Uiso   1.00
C456   C     0.78859   0.97822   0.26787   0.00000  Uiso   1.00
C457   C     0.83267   0.95704   0.25331   0.00000  Uiso   1.00
C458   C     0.96886   0.86356   0.27566   0.00000  Uiso   1.00
C459   C     0.68445   0.86307   0.27679   0.00000  Uiso   1.00
C460   C     0.81106   0.83658   0.48994   0.00000  Uiso   1.00
C461   C     0.69949   0.80543   0.21907   0.00000  Uiso   1.00
C462   C     0.98322   0.80525   0.21942   0.00000  Uiso   1.00
C463   C     0.83242   0.75419   0.25265   0.00000  Uiso   1.00
C464   C     0.85882   0.83253   0.15054   0.00000  Uiso   1.00
C465   C     0.93015   0.81389   0.01273   0.00000  Uiso   1.00
C466   C     0.87209   0.82919   0.09451   0.00000  Uiso   1.00
C467   C     0.74383   0.84625   0.43337   0.00000  Uiso   1.00
C468   C     0.72838   0.84637   0.48674   0.00000  Uiso   1.00
C469   C     0.76114   0.83995   0.01483   0.00000  Uiso   1.00
C470   C     0.82656   0.83925   0.43593   0.00000  Uiso   1.00
C471   C     0.84679   0.83133   0.01631   0.00000  Uiso   1.00
C472   C     0.89526   0.82245   0.48752   0.00000  Uiso   1.00
C473   C     0.90826   0.82580   0.43432   0.00000  Uiso   1.00
C474   C     0.87575   0.84399   0.41280   0.00000  Uiso   1.00
C475   C     0.83624   0.83509   0.06977   0.00000  Uiso   1.00
C476   C     0.91892   0.81825   0.06581   0.00000  Uiso   1.00
Cu477  Cu    0.78645   0.83333   0.25000   0.00000  Uiso   1.00
Cu478  Cu    0.88022   0.83334   0.25000   0.00000  Uiso   1.00
H479   H     0.94709   0.81352   0.08412   0.00000  Uiso   1.00
H480   H     0.69063   0.85101   0.00661   0.00000  Uiso   1.00
H481   H     0.91046   0.96270   0.23266   0.00000  Uiso   1.00
H482   H     0.90921   0.70350   0.23611   0.00000  Uiso   1.00
H483   H     0.75493   0.96159   0.27843   0.00000  Uiso   1.00
H484   H     0.94606   0.88900   0.29393   0.00000  Uiso   1.00
H485   H     0.69707   0.88701   0.29869   0.00000  Uiso   1.00
H486   H     0.96674   0.80569   0.49170   0.00000  Uiso   1.00
H487   H     0.80069   0.84425   0.09277   0.00000  Uiso   1.00
H488   H     0.71751   0.85095   0.41270   0.00000  Uiso   1.00
H489   H     0.74634   0.83786   0.05573   0.00000  Uiso   1.00
I490   I     0.71719   0.71377   0.30098   0.00000  Uiso   1.00
I491   I     0.74820   0.76360   0.16525   0.00000  Uiso   1.00
I492   I     0.96286   0.76327   0.16598   0.00000  Uiso   1.00
I493   I     0.97485   0.80508   0.38451   0.00000  Uiso   1.00
I494   I     0.89225   0.90598   0.39411   0.00000  Uiso   1.00
N495   N     0.71598   0.83332   0.24998   0.00000  Uiso   1.00
N496   N     0.95069   0.83335   0.24999   0.00000  Uiso   1.00
O497   O     0.79375   0.89345   0.25000   0.00000  Uiso   1.00
O498   O     0.87294   0.89346   0.25000   0.00000  Uiso   1.00
O499   O     0.77441   0.83332   0.32549   0.00000  Uiso   1.00
O500   O     0.85360   0.83333   0.32549   0.00000  Uiso   1.00
O501   O     0.79373   0.77321   0.24999   0.00000  Uiso   1.00
O502   O     0.87292   0.77322   0.24999   0.00000  Uiso   1.00
O503   O     0.81306   0.83334   0.17451   0.00000  Uiso   1.00
O504   O     0.89225   0.83335   0.17451   0.00000  Uiso   1.00
C505   C     0.16654   0.24581   0.75082   0.00000  Uiso   1.00
C506   C     0.12608   0.17411   0.90698   0.00000  Uiso   1.00
C507   C     0.20928   0.31195   0.74280   0.00000  Uiso   1.00
C508   C     0.14098   0.16929   0.84987   0.00000  Uiso   1.00
C509   C     0.20846   0.02114   0.74443   0.00000  Uiso   1.00
C510   C     0.16447   0.04281   0.75612   0.00000  Uiso   1.00
C511   C     0.12061   0.02088   0.77033   0.00000  Uiso   1.00
C512   C     0.12192   0.31156   0.76787   0.00000  Uiso   1.00
C513   C     0.16600   0.29038   0.75331   0.00000  Uiso   1.00
C514   C     0.30220   0.19689   0.77566   0.00000  Uiso   1.00
C515   C     0.01778   0.19640   0.77679   0.00000  Uiso   1.00
C516   C     0.14439   0.16991   0.98994   0.00000  Uiso   1.00
C517   C     0.03283   0.13876   0.71907   0.00000  Uiso   1.00
C518   C     0.31656   0.13858   0.71942   0.00000  Uiso   1.00
C519   C     0.16575   0.08753   0.75265   0.00000  Uiso   1.00
C520   C     0.19216   0.16586   0.65054   0.00000  Uiso   1.00
C521   C     0.26348   0.14723   0.51273   0.00000  Uiso   1.00
C522   C     0.20542   0.16252   0.59451   0.00000  Uiso   1.00
C523   C     0.07717   0.17958   0.93337   0.00000  Uiso   1.00
C524   C     0.06172   0.17971   0.98674   0.00000  Uiso   1.00
C525   C     0.09447   0.17329   0.51483   0.00000  Uiso   1.00
C526   C     0.15989   0.17258   0.93593   0.00000  Uiso   1.00
C527   C     0.18012   0.16466   0.51631   0.00000  Uiso   1.00
C528   C     0.22859   0.15578   0.98752   0.00000  Uiso   1.00
C529   C     0.24160   0.15913   0.93432   0.00000  Uiso   1.00
C530   C     0.20908   0.17733   0.91280   0.00000  Uiso   1.00
C531   C     0.16958   0.16843   0.56977   0.00000  Uiso   1.00
C532   C     0.25225   0.15159   0.56581   0.00000  Uiso   1.00
Cu533  Cu    0.11978   0.16666   0.75000   0.00000  Uiso   1.00
Cu534  Cu    0.21355   0.16667   0.75000   0.00000  Uiso   1.00
H535   H     0.28042   0.14686   0.58412   0.00000  Uiso   1.00
H536   H     0.02397   0.18434   0.50661   0.00000  Uiso   1.00
H537   H     0.24379   0.29603   0.73266   0.00000  Uiso   1.00
H538   H     0.24254   0.03683   0.73611   0.00000  Uiso   1.00
H539   H     0.08826   0.29492   0.77843   0.00000  Uiso   1.00
H540   H     0.27939   0.22233   0.79393   0.00000  Uiso   1.00
H541   H     0.03040   0.22034   0.79869   0.00000  Uiso   1.00
H542   H     0.30008   0.13902   0.99170   0.00000  Uiso   1.00
H543   H     0.13403   0.17758   0.59277   0.00000  Uiso   1.00
H544   H     0.05084   0.18429   0.91270   0.00000  Uiso   1.00
H545   H     0.07967   0.17119   0.55573   0.00000  Uiso   1.00
I546   I     0.05052   0.04710   0.80098   0.00000  Uiso   1.00
I547   I     0.08153   0.09693   0.66525   0.00000  Uiso   1.00
I548   I     0.29620   0.09661   0.66598   0.00000  Uiso   1.00
I549   I     0.30818   0.13841   0.88451   0.00000  Uiso   1.00
I550   I     0.22559   0.23931   0.89411   0.00000  Uiso   1.00
N551   N     0.04931   0.16666   0.74998   0.00000  Uiso   1.00
N552   N     0.28402   0.16669   0.74999   0.00000  Uiso   1.00
O553   O     0.12708   0.22678   0.75000   0.00000  Uiso   1.00
O554   O     0.20627   0.22679   0.75000   0.00000  Uiso   1.00
O555   O     0.10775   0.16665   0.82549   0.00000  Uiso   1.00
O556   O     0.18694   0.16666   0.82549   0.00000  Uiso   1.00
O557   O     0.12706   0.10654   0.74999   0.00000  Uiso   1.00
O558   O     0.20625   0.10655   0.74999   0.00000  Uiso   1.00
O559   O     0.14640   0.16667   0.67451   0.00000  Uiso   1.00
O560   O     0.22559   0.16668   0.67451   0.00000  Uiso   1.00
C561   C     0.49988   0.24581   0.75082   0.00000  Uiso   1.00
C562   C     0.45941   0.17411   0.90698   0.00000  Uiso   1.00
C563   C     0.54261   0.31195   0.74280   0.00000  Uiso   1.00
C564   C     0.47431   0.16929   0.84987   0.00000  Uiso   1.00
C565   C     0.54179   0.02114   0.74443   0.00000  Uiso   1.00
C566   C     0.49781   0.04281   0.75612   0.00000  Uiso   1.00
C567   C     0.45395   0.02088   0.77033   0.00000  Uiso   1.00
C568   C     0.45526   0.31156   0.76787   0.00000  Uiso   1.00
C569   C     0.49933   0.29038   0.75331   0.00000  Uiso   1.00
C570   C     0.63553   0.19689   0.77566   0.00000  Uiso   1.00
C571   C     0.35111   0.19640   0.77679   0.00000  Uiso   1.00
C572   C     0.47772   0.16991   0.98994   0.00000  Uiso   1.00
C573   C     0.36616   0.13876   0.71907   0.00000  Uiso   1.00
C574   C     0.64989   0.13858   0.71942   0.00000  Uiso   1.00
C575   C     0.49908   0.08753   0.75265   0.00000  Uiso   1.00
C576   C     0.52549   0.16586   0.65054   0.00000  Uiso   1.00
C577   C     0.59681   0.14723   0.51273   0.00000  Uiso   1.00
C578   C     0.53875   0.16252   0.59451   0.00000  Uiso   1.00
C579   C     0.41050   0.17958   0.93337   0.00000  Uiso   1.00
C580   C     0.39505   0.17971   0.98674   0.00000  Uiso   1.00
C581   C     0.42781   0.17329   0.51483   0.00000  Uiso   1.00
C582   C     0.49323   0.17258   0.93593   0.00000  Uiso   1.00
C583   C     0.51346   0.16466   0.51631   0.00000  Uiso   1.00
C584   C     0.56193   0.15578   0.98752   0.00000  Uiso   1.00
C585   C     0.57493   0.15913   0.93432   0.00000  Uiso   1.00
C586   C     0.54241   0.17733   0.91280   0.00000  Uiso   1.00
C587   C     0.50291   0.16843   0.56977   0.00000  Uiso   1.00
C588   C     0.58558   0.15159   0.56581   0.00000  Uiso   1.00
Cu589  Cu    0.45311   0.16666   0.75000   0.00000  Uiso   1.00
Cu590  Cu    0.54689   0.16667   0.75000   0.00000  Uiso   1.00
H591   H     0.61375   0.14686   0.58412   0.00000  Uiso   1.00
H592   H     0.35730   0.18434   0.50661   0.00000  Uiso   1.00
H593   H     0.57713   0.29603   0.73266   0.00000  Uiso   1.00
H594   H     0.57588   0.03683   0.73611   0.00000  Uiso   1.00
H595   H     0.42159   0.29492   0.77843   0.00000  Uiso   1.00
H596   H     0.61273   0.22233   0.79393   0.00000  Uiso   1.00
H597   H     0.36373   0.22034   0.79869   0.00000  Uiso   1.00
H598   H     0.63341   0.13902   0.99170   0.00000  Uiso   1.00
H599   H     0.46736   0.17758   0.59277   0.00000  Uiso   1.00
H600   H     0.38417   0.18429   0.91270   0.00000  Uiso   1.00
H601   H     0.41301   0.17119   0.55573   0.00000  Uiso   1.00
I602   I     0.38385   0.04710   0.80098   0.00000  Uiso   1.00
I603   I     0.41487   0.09693   0.66525   0.00000  Uiso   1.00
I604   I     0.62953   0.09661   0.66598   0.00000  Uiso   1.00
I605   I     0.64152   0.13841   0.88451   0.00000  Uiso   1.00
I606   I     0.55892   0.23931   0.89411   0.00000  Uiso   1.00
N607   N     0.38265   0.16666   0.74998   0.00000  Uiso   1.00
N608   N     0.61735   0.16669   0.74999   0.00000  Uiso   1.00
O609   O     0.46042   0.22678   0.75000   0.00000  Uiso   1.00
O610   O     0.53961   0.22679   0.75000   0.00000  Uiso   1.00
O611   O     0.44108   0.16665   0.82549   0.00000  Uiso   1.00
O612   O     0.52027   0.16666   0.82549   0.00000  Uiso   1.00
O613   O     0.46039   0.10654   0.74999   0.00000  Uiso   1.00
O614   O     0.53958   0.10655   0.74999   0.00000  Uiso   1.00
O615   O     0.47973   0.16667   0.67451   0.00000  Uiso   1.00
O616   O     0.55892   0.16668   0.67451   0.00000  Uiso   1.00
C617   C     0.83321   0.24581   0.75082   0.00000  Uiso   1.00
C618   C     0.79274   0.17411   0.90698   0.00000  Uiso   1.00
C619   C     0.87594   0.31195   0.74280   0.00000  Uiso   1.00
C620   C     0.80765   0.16929   0.84987   0.00000  Uiso   1.00
C621   C     0.87512   0.02114   0.74443   0.00000  Uiso   1.00
C622   C     0.83114   0.04281   0.75612   0.00000  Uiso   1.00
C623   C     0.78728   0.02088   0.77033   0.00000  Uiso   1.00
C624   C     0.78859   0.31156   0.76787   0.00000  Uiso   1.00
C625   C     0.83267   0.29038   0.75331   0.00000  Uiso   1.00
C626   C     0.96886   0.19689   0.77566   0.00000  Uiso   1.00
C627   C     0.68445   0.19640   0.77679   0.00000  Uiso   1.00
C628   C     0.81106   0.16991   0.98994   0.00000  Uiso   1.00
C629   C     0.69949   0.13876   0.71907   0.00000  Uiso   1.00
C630   C     0.98322   0.13858   0.71942   0.00000  Uiso   1.00
C631   C     0.83242   0.08753   0.75265   0.00000  Uiso   1.00
C632   C     0.85882   0.16586   0.65054   0.00000  Uiso   1.00
C633   C     0.93015   0.14723   0.51273   0.00000  Uiso   1.00
C634   C     0.87209   0.16252   0.59451   0.00000  Uiso   1.00
C635   C     0.74383   0.17958   0.93337   0.00000  Uiso   1.00
C636   C     0.72838   0.17971   0.98674   0.00000  Uiso   1.00
C637   C     0.76114   0.17329   0.51483   0.00000  Uiso   1.00
C638   C     0.82656   0.17258   0.93593   0.00000  Uiso   1.00
C639   C     0.84679   0.16466   0.51631   0.00000  Uiso   1.00
C640   C     0.89526   0.15578   0.98752   0.00000  Uiso   1.00
C641   C     0.90826   0.15913   0.93432   0.00000  Uiso   1.00
C642   C     0.87575   0.17733   0.91280   0.00000  Uiso   1.00
C643   C     0.83624   0.16843   0.56977   0.00000  Uiso   1.00
C644   C     0.91892   0.15159   0.56581   0.00000  Uiso   1.00
Cu645  Cu    0.78645   0.16666   0.75000   0.00000  Uiso   1.00
Cu646  Cu    0.88022   0.16667   0.75000   0.00000  Uiso   1.00
H647   H     0.94709   0.14686   0.58412   0.00000  Uiso   1.00
H648   H     0.69063   0.18434   0.50661   0.00000  Uiso   1.00
H649   H     0.91046   0.29603   0.73266   0.00000  Uiso   1.00
H650   H     0.90921   0.03683   0.73611   0.00000  Uiso   1.00
H651   H     0.75493   0.29492   0.77843   0.00000  Uiso   1.00
H652   H     0.94606   0.22233   0.79393   0.00000  Uiso   1.00
H653   H     0.69707   0.22034   0.79869   0.00000  Uiso   1.00
H654   H     0.96674   0.13902   0.99170   0.00000  Uiso   1.00
H655   H     0.80069   0.17758   0.59277   0.00000  Uiso   1.00
H656   H     0.71751   0.18429   0.91270   0.00000  Uiso   1.00
H657   H     0.74634   0.17119   0.55573   0.00000  Uiso   1.00
I658   I     0.71719   0.04710   0.80098   0.00000  Uiso   1.00
I659   I     0.74820   0.09693   0.66525   0.00000  Uiso   1.00
I660   I     0.96286   0.09661   0.66598   0.00000  Uiso   1.00
I661   I     0.97485   0.13841   0.88451   0.00000  Uiso   1.00
I662   I     0.89225   0.23931   0.89411   0.00000  Uiso   1.00
N663   N     0.71598   0.16666   0.74998   0.00000  Uiso   1.00
N664   N     0.95069   0.16669   0.74999   0.00000  Uiso   1.00
O665   O     0.79375   0.22678   0.75000   0.00000  Uiso   1.00
O666   O     0.87294   0.22679   0.75000   0.00000  Uiso   1.00
O667   O     0.77441   0.16665   0.82549   0.00000  Uiso   1.00
O668   O     0.85360   0.16666   0.82549   0.00000  Uiso   1.00
O669   O     0.79373   0.10654   0.74999   0.00000  Uiso   1.00
O670   O     0.87292   0.10655   0.74999   0.00000  Uiso   1.00
O671   O     0.81306   0.16667   0.67451   0.00000  Uiso   1.00
O672   O     0.89225   0.16668   0.67451   0.00000  Uiso   1.00
C673   C     0.16654   0.57914   0.75082   0.00000  Uiso   1.00
C674   C     0.12608   0.50744   0.90698   0.00000  Uiso   1.00
C675   C     0.20928   0.64528   0.74280   0.00000  Uiso   1.00
C676   C     0.14098   0.50263   0.84987   0.00000  Uiso   1.00
C677   C     0.20846   0.35447   0.74443   0.00000  Uiso   1.00
C678   C     0.16447   0.37614   0.75612   0.00000  Uiso   1.00
C679   C     0.12061   0.35421   0.77033   0.00000  Uiso   1.00
C680   C     0.12192   0.64489   0.76787   0.00000  Uiso   1.00
C681   C     0.16600   0.62371   0.75331   0.00000  Uiso   1.00
C682   C     0.30220   0.53023   0.77566   0.00000  Uiso   1.00
C683   C     0.01778   0.52974   0.77679   0.00000  Uiso   1.00
C684   C     0.14439   0.50325   0.98994   0.00000  Uiso   1.00
C685   C     0.03283   0.47210   0.71907   0.00000  Uiso   1.00
C686   C     0.31656   0.47191   0.71942   0.00000  Uiso   1.00
C687   C     0.16575   0.42086   0.75265   0.00000  Uiso   1.00
C688   C     0.19216   0.49920   0.65054   0.00000  Uiso   1.00
C689   C     0.26348   0.48056   0.51273   0.00000  Uiso   1.00
C690   C     0.20542   0.49586   0.59451   0.00000  Uiso   1.00
C691   C     0.07717   0.51291   0.93337   0.00000  Uiso   1.00
C692   C     0.06172   0.51304   0.98674   0.00000  Uiso   1.00
C693   C     0.09447   0.50662   0.51483   0.00000  Uiso   1.00
C694   C     0.15989   0.50592   0.93593   0.00000  Uiso   1.00
C695   C     0.18012   0.49800   0.51631   0.00000  Uiso   1.00
C696   C     0.22859   0.48912   0.98752   0.00000  Uiso   1.00
C697   C     0.24160   0.49246   0.93432   0.00000  Uiso   1.00
C698   C     0.20908   0.51066   0.91280   0.00000  Uiso   1.00
C699   C     0.16958   0.50176   0.56977   0.00000  Uiso   1.00
C700   C     0.25225   0.48492   0.56581   0.00000  Uiso   1.00
Cu701  Cu    0.11978   0.49999   0.75000   0.00000  Uiso   1.00
Cu702  Cu    0.21355   0.50001   0.75000   0.00000  Uiso   1.00
H703   H     0.28042   0.48019   0.58412   0.00000  Uiso   1.00
H704   H     0.02397   0.51767   0.50661   0.00000  Uiso   1.00
H705   H     0.24379   0.62937   0.73266   0.00000  Uiso   1.00
H706   H     0.24254   0.37017   0.73611   0.00000  Uiso   1.00
H707   H     0.08826   0.62826   0.77843   0.00000  Uiso   1.00
H708   H     0.27939   0.55567   0.79393   0.00000  Uiso   1.00
H709   H     0.03040   0.55367   0.79869   0.00000  Uiso   1.00
H710   H     0.30008   0.47235   0.99170   0.00000  Uiso   1.00
H711   H     0.13403   0.51092   0.59277   0.00000  Uiso   1.00
H712   H     0.05084   0.51762   0.91270   0.00000  Uiso   1.00
H713   H     0.07967   0.50453   0.55573   0.00000  Uiso   1.00
I714   I     0.05052   0.38043   0.80098   0.00000  Uiso   1.00
I715   I     0.08153   0.43026   0.66525   0.00000  Uiso   1.00
I716   I     0.29620   0.42994   0.66598   0.00000  Uiso   1.00
I717   I     0.30818   0.47175   0.88451   0.00000  Uiso   1.00
I718   I     0.22559   0.57264   0.89411   0.00000  Uiso   1.00
N719   N     0.04931   0.49999   0.74998   0.00000  Uiso   1.00
N720   N     0.28402   0.50002   0.74999   0.00000  Uiso   1.00
O721   O     0.12708   0.56011   0.75000   0.00000  Uiso   1.00
O722   O     0.20627   0.56012   0.75000   0.00000  Uiso   1.00
O723   O     0.10775   0.49998   0.82549   0.00000  Uiso   1.00
O724   O     0.18694   0.49999   0.82549   0.00000  Uiso   1.00
O725   O     0.12706   0.43988   0.74999   0.00000  Uiso   1.00
O726   O     0.20625   0.43989   0.74999   0.00000  Uiso   1.00
O727   O     0.14640   0.50001   0.67451   0.00000  Uiso   1.00
O728   O     0.22559   0.50002   0.67451   0.00000  Uiso   1.00
C729   C     0.49988   0.57914   0.75082   0.00000  Uiso   1.00
C730   C     0.45941   0.50744   0.90698   0.00000  Uiso   1.00
C731   C     0.54261   0.64528   0.74280   0.00000  Uiso   1.00
C732   C     0.47431   0.50263   0.84987   0.00000  Uiso   1.00
C733   C     0.54179   0.35447   0.74443   0.00000  Uiso   1.00
C734   C     0.49781   0.37614   0.75612   0.00000  Uiso   1.00
C735   C     0.45395   0.35421   0.77033   0.00000  Uiso   1.00
C736   C     0.45526   0.64489   0.76787   0.00000  Uiso   1.00
C737   C     0.49933   0.62371   0.75331   0.00000  Uiso   1.00
C738   C     0.63553   0.53023   0.77566   0.00000  Uiso   1.00
C739   C     0.35111   0.52974   0.77679   0.00000  Uiso   1.00
C740   C     0.47772   0.50325   0.98994   0.00000  Uiso   1.00
C741   C     0.36616   0.47210   0.71907   0.00000  Uiso   1.00
C742   C     0.64989   0.47191   0.71942   0.00000  Uiso   1.00
C743   C     0.49908   0.42086   0.75265   0.00000  Uiso   1.00
C744   C     0.52549   0.49920   0.65054   0.00000  Uiso   1.00
C745   C     0.59681   0.48056   0.51273   0.00000  Uiso   1.00
C746   C     0.53875   0.49586   0.59451   0.00000  Uiso   1.00
C747   C     0.41050   0.51291   0.93337   0.00000  Uiso   1.00
C748   C     0.39505   0.51304   0.98674   0.00000  Uiso   1.00
C749   C     0.42781   0.50662   0.51483   0.00000  Uiso   1.00
C750   C     0.49323   0.50592   0.93593   0.00000  Uiso   1.00
C751   C     0.51346   0.49800   0.51631   0.00000  Uiso   1.00
C752   C     0.56193   0.48912   0.98752   0.00000  Uiso   1.00
C753   C     0.57493   0.49246   0.93432   0.00000  Uiso   1.00
C754   C     0.54241   0.51066   0.91280   0.00000  Uiso   1.00
C755   C     0.50291   0.50176   0.56977   0.00000  Uiso   1.00
C756   C     0.58558   0.48492   0.56581   0.00000  Uiso   1.00
Cu757  Cu    0.45311   0.49999   0.75000   0.00000  Uiso   1.00
Cu758  Cu    0.54689   0.50001   0.75000   0.00000  Uiso   1.00
H759   H     0.61375   0.48019   0.58412   0.00000  Uiso   1.00
H760   H     0.35730   0.51767   0.50661   0.00000  Uiso   1.00
H761   H     0.57713   0.62937   0.73266   0.00000  Uiso   1.00
H762   H     0.57588   0.37017   0.73611   0.00000  Uiso   1.00
H763   H     0.42159   0.62826   0.77843   0.00000  Uiso   1.00
H764   H     0.61273   0.55567   0.79393   0.00000  Uiso   1.00
H765   H     0.36373   0.55367   0.79869   0.00000  Uiso   1.00
H766   H     0.63341   0.47235   0.99170   0.00000  Uiso   1.00
H767   H     0.46736   0.51092   0.59277   0.00000  Uiso   1.00
H768   H     0.38417   0.51762   0.91270   0.00000  Uiso   1.00
H769   H     0.41301   0.50453   0.55573   0.00000  Uiso   1.00
I770   I     0.38385   0.38043   0.80098   0.00000  Uiso   1.00
I771   I     0.41487   0.43026   0.66525   0.00000  Uiso   1.00
I772   I     0.62953   0.42994   0.66598   0.00000  Uiso   1.00
I773   I     0.64152   0.47175   0.88451   0.00000  Uiso   1.00
I774   I     0.55892   0.57264   0.89411   0.00000  Uiso   1.00
N775   N     0.38265   0.49999   0.74998   0.00000  Uiso   1.00
N776   N     0.61735   0.50002   0.74999   0.00000  Uiso   1.00
O777   O     0.46042   0.56011   0.75000   0.00000  Uiso   1.00
O778   O     0.53961   0.56012   0.75000   0.00000  Uiso   1.00
O779   O     0.44108   0.49998   0.82549   0.00000  Uiso   1.00
O780   O     0.52027   0.49999   0.82549   0.00000  Uiso   1.00
O781   O     0.46039   0.43988   0.74999   0.00000  Uiso   1.00
O782   O     0.53958   0.43989   0.74999   0.00000  Uiso   1.00
O783   O     0.47973   0.50001   0.67451   0.00000  Uiso   1.00
O784   O     0.55892   0.50002   0.67451   0.00000  Uiso   1.00
C785   C     0.83321   0.57914   0.75082   0.00000  Uiso   1.00
C786   C     0.79274   0.50744   0.90698   0.00000  Uiso   1.00
C787   C     0.87594   0.64528   0.74280   0.00000  Uiso   1.00
C788   C     0.80765   0.50263   0.84987   0.00000  Uiso   1.00
C789   C     0.87512   0.35447   0.74443   0.00000  Uiso   1.00
C790   C     0.83114   0.37614   0.75612   0.00000  Uiso   1.00
C791   C     0.78728   0.35421   0.77033   0.00000  Uiso   1.00
C792   C     0.78859   0.64489   0.76787   0.00000  Uiso   1.00
C793   C     0.83267   0.62371   0.75331   0.00000  Uiso   1.00
C794   C     0.96886   0.53023   0.77566   0.00000  Uiso   1.00
C795   C     0.68445   0.52974   0.77679   0.00000  Uiso   1.00
C796   C     0.81106   0.50325   0.98994   0.00000  Uiso   1.00
C797   C     0.69949   0.47210   0.71907   0.00000  Uiso   1.00
C798   C     0.98322   0.47191   0.71942   0.00000  Uiso   1.00
C799   C     0.83242   0.42086   0.75265   0.00000  Uiso   1.00
C800   C     0.85882   0.49920   0.65054   0.00000  Uiso   1.00
C801   C     0.93015   0.48056   0.51273   0.00000  Uiso   1.00
C802   C     0.87209   0.49586   0.59451   0.00000  Uiso   1.00
C803   C     0.74383   0.51291   0.93337   0.00000  Uiso   1.00
C804   C     0.72838   0.51304   0.98674   0.00000  Uiso   1.00
C805   C     0.76114   0.50662   0.51483   0.00000  Uiso   1.00
C806   C     0.82656   0.50592   0.93593   0.00000  Uiso   1.00
C807   C     0.84679   0.49800   0.51631   0.00000  Uiso   1.00
C808   C     0.89526   0.48912   0.98752   0.00000  Uiso   1.00
C809   C     0.90826   0.49246   0.93432   0.00000  Uiso   1.00
C810   C     0.87575   0.51066   0.91280   0.00000  Uiso   1.00
C811   C     0.83624   0.50176   0.56977   0.00000  Uiso   1.00
C812   C     0.91892   0.48492   0.56581   0.00000  Uiso   1.00
Cu813  Cu    0.78645   0.49999   0.75000   0.00000  Uiso   1.00
Cu814  Cu    0.88022   0.50001   0.75000   0.00000  Uiso   1.00
H815   H     0.94709   0.48019   0.58412   0.00000  Uiso   1.00
H816   H     0.69063   0.51767   0.50661   0.00000  Uiso   1.00
H817   H     0.91046   0.62937   0.73266   0.00000  Uiso   1.00
H818   H     0.90921   0.37017   0.73611   0.00000  Uiso   1.00
H819   H     0.75493   0.62826   0.77843   0.00000  Uiso   1.00
H820   H     0.94606   0.55567   0.79393   0.00000  Uiso   1.00
H821   H     0.69707   0.55367   0.79869   0.00000  Uiso   1.00
H822   H     0.96674   0.47235   0.99170   0.00000  Uiso   1.00
H823   H     0.80069   0.51092   0.59277   0.00000  Uiso   1.00
H824   H     0.71751   0.51762   0.91270   0.00000  Uiso   1.00
H825   H     0.74634   0.50453   0.55573   0.00000  Uiso   1.00
I826   I     0.71719   0.38043   0.80098   0.00000  Uiso   1.00
I827   I     0.74820   0.43026   0.66525   0.00000  Uiso   1.00
I828   I     0.96286   0.42994   0.66598   0.00000  Uiso   1.00
I829   I     0.97485   0.47175   0.88451   0.00000  Uiso   1.00
I830   I     0.89225   0.57264   0.89411   0.00000  Uiso   1.00
N831   N     0.71598   0.49999   0.74998   0.00000  Uiso   1.00
N832   N     0.95069   0.50002   0.74999   0.00000  Uiso   1.00
O833   O     0.79375   0.56011   0.75000   0.00000  Uiso   1.00
O834   O     0.87294   0.56012   0.75000   0.00000  Uiso   1.00
O835   O     0.77441   0.49998   0.82549   0.00000  Uiso   1.00
O836   O     0.85360   0.49999   0.82549   0.00000  Uiso   1.00
O837   O     0.79373   0.43988   0.74999   0.00000  Uiso   1.00
O838   O     0.87292   0.43989   0.74999   0.00000  Uiso   1.00
O839   O     0.81306   0.50001   0.67451   0.00000  Uiso   1.00
O840   O     0.89225   0.50002   0.67451   0.00000  Uiso   1.00
C841   C     0.16654   0.91248   0.75082   0.00000  Uiso   1.00
C842   C     0.12608   0.84078   0.90698   0.00000  Uiso   1.00
C843   C     0.20928   0.97861   0.74280   0.00000  Uiso   1.00
C844   C     0.14098   0.83596   0.84987   0.00000  Uiso   1.00
C845   C     0.20846   0.68780   0.74443   0.00000  Uiso   1.00
C846   C     0.16447   0.70947   0.75612   0.00000  Uiso   1.00
C847   C     0.12061   0.68755   0.77033   0.00000  Uiso   1.00
C848   C     0.12192   0.97822   0.76787   0.00000  Uiso   1.00
C849   C     0.16600   0.95704   0.75331   0.00000  Uiso   1.00
C850   C     0.30220   0.86356   0.77566   0.00000  Uiso   1.00
C851   C     0.01778   0.86307   0.77679   0.00000  Uiso   1.00
C852   C     0.14439   0.83658   0.98994   0.00000  Uiso   1.00
C853   C     0.03283   0.80543   0.71907   0.00000  Uiso   1.00
C854   C     0.31656   0.80525   0.71942   0.00000  Uiso   1.00
C855   C     0.16575   0.75419   0.75265   0.00000  Uiso   1.00
C856   C     0.19216   0.83253   0.65054   0.00000  Uiso   1.00
C857   C     0.26348   0.81389   0.51273   0.00000  Uiso   1.00
C858   C     0.20542   0.82919   0.59451   0.00000  Uiso   1.00
C859   C     0.07717   0.84625   0.93337   0.00000  Uiso   1.00
C860   C     0.06172   0.84637   0.98674   0.00000  Uiso   1.00
C861   C     0.09447   0.83995   0.51483   0.00000  Uiso   1.00
C862   C     0.15989   0.83925   0.93593   0.00000  Uiso   1.00
C863   C     0.18012   0.83133   0.51631   0.00000  Uiso   1.00
C864   C     0.22859   0.82245   0.98752   0.00000  Uiso   1.00
C865   C     0.24160   0.82580   0.93432   0.00000  Uiso   1.00
C866   C     0.20908   0.84399   0.91280   0.00000  Uiso   1.00
C867   C     0.16958   0.83509   0.56977   0.00000  Uiso   1.00
C868   C     0.25225   0.81825   0.56581   0.00000  Uiso   1.00
Cu869  Cu    0.11978   0.83333   0.75000   0.00000  Uiso   1.00
Cu870  Cu    0.21355   0.83334   0.75000   0.00000  Uiso   1.00
H871   H     0.28042   0.81352   0.58412   0.00000  Uiso   1.00
H872   H     0.02397   0.85101   0.50661   0.00000  Uiso   1.00
H873   H     0.24379   0.96270   0.73266   0.00000  Uiso   1.00
H874   H     0.24254   0.70350   0.73611   0.00000  Uiso   1.00
H875   H     0.08826   0.96159   0.77843   0.00000  Uiso   1.00
H876   H     0.27939   0.88900   0.79393   0.00000  Uiso   1.00
H877   H     0.03040   0.88701   0.79869   0.00000  Uiso   1.00
H878   H     0.30008   0.80569   0.99170   0.00000  Uiso   1.00
H879   H     0.13403   0.84425   0.59277   0.00000  Uiso   1.00
H880   H     0.05084   0.85095   0.91270   0.00000  Uiso   1.00
H881   H     0.07967   0.83786   0.55573   0.00000  Uiso   1.00
I882   I     0.05052   0.71377   0.80098   0.00000  Uiso   1.00
I883   I     0.08153   0.76360   0.66525   0.00000  Uiso   1.00
I884   I     0.29620   0.76327   0.66598   0.00000  Uiso   1.00
I885   I     0.30818   0.80508   0.88451   0.00000  Uiso   1.00
I886   I     0.22559   0.90598   0.89411   0.00000  Uiso   1.00
N887   N     0.04931   0.83332   0.74998   0.00000  Uiso   1.00
N888   N     0.28402   0.83335   0.74999   0.00000  Uiso   1.00
O889   O     0.12708   0.89345   0.75000   0.00000  Uiso   1.00
O890   O     0.20627   0.89346   0.75000   0.00000  Uiso   1.00
O891   O     0.10775   0.83332   0.82549   0.00000  Uiso   1.00
O892   O     0.18694   0.83333   0.82549   0.00000  Uiso   1.00
O893   O     0.12706   0.77321   0.74999   0.00000  Uiso   1.00
O894   O     0.20625   0.77322   0.74999   0.00000  Uiso   1.00
O895   O     0.14640   0.83334   0.67451   0.00000  Uiso   1.00
O896   O     0.22559   0.83335   0.67451   0.00000  Uiso   1.00
C897   C     0.49988   0.91248   0.75082   0.00000  Uiso   1.00
C898   C     0.45941   0.84078   0.90698   0.00000  Uiso   1.00
C899   C     0.54261   0.97861   0.74280   0.00000  Uiso   1.00
C900   C     0.47431   0.83596   0.84987   0.00000  Uiso   1.00
C901   C     0.54179   0.68780   0.74443   0.00000  Uiso   1.00
C902   C     0.49781   0.70947   0.75612   0.00000  Uiso   1.00
C903   C     0.45395   0.68755   0.77033   0.00000  Uiso   1.00
C904   C     0.45526   0.97822   0.76787   0.00000  Uiso   1.00
C905   C     0.49933   0.95704   0.75331   0.00000  Uiso   1.00
C906   C     0.63553   0.86356   0.77566   0.00000  Uiso   1.00
C907   C     0.35111   0.86307   0.77679   0.00000  Uiso   1.00
C908   C     0.47772   0.83658   0.98994   0.00000  Uiso   1.00
C909   C     0.36616   0.80543   0.71907   0.00000  Uiso   1.00
C910   C     0.64989   0.80525   0.71942   0.00000  Uiso   1.00
C911   C     0.49908   0.75419   0.75265   0.00000  Uiso   1.00
C912   C     0.52549   0.83253   0.65054   0.00000  Uiso   1.00
C913   C     0.59681   0.81389   0.51273   0.00000  Uiso   1.00
C914   C     0.53875   0.82919   0.59451   0.00000  Uiso   1.00
C915   C     0.41050   0.84625   0.93337   0.00000  Uiso   1.00
C916   C     0.39505   0.84637   0.98674   0.00000  Uiso   1.00
C917   C     0.42781   0.83995   0.51483   0.00000  Uiso   1.00
C918   C     0.49323   0.83925   0.93593   0.00000  Uiso   1.00
C919   C     0.51346   0.83133   0.51631   0.00000  Uiso   1.00
C920   C     0.56193   0.82245   0.98752   0.00000  Uiso   1.00
C921   C     0.57493   0.82580   0.93432   0.00000  Uiso   1.00
C922   C     0.54241   0.84399   0.91280   0.00000  Uiso   1.00
C923   C     0.50291   0.83509   0.56977   0.00000  Uiso   1.00
C924   C     0.58558   0.81825   0.56581   0.00000  Uiso   1.00
Cu925  Cu    0.45311   0.83333   0.75000   0.00000  Uiso   1.00
Cu926  Cu    0.54689   0.83334   0.75000   0.00000  Uiso   1.00
H927   H     0.61375   0.81352   0.58412   0.00000  Uiso   1.00
H928   H     0.35730   0.85101   0.50661   0.00000  Uiso   1.00
H929   H     0.57713   0.96270   0.73266   0.00000  Uiso   1.00
H930   H     0.57588   0.70350   0.73611   0.00000  Uiso   1.00
H931   H     0.42159   0.96159   0.77843   0.00000  Uiso   1.00
H932   H     0.61273   0.88900   0.79393   0.00000  Uiso   1.00
H933   H     0.36373   0.88701   0.79869   0.00000  Uiso   1.00
H934   H     0.63341   0.80569   0.99170   0.00000  Uiso   1.00
H935   H     0.46736   0.84425   0.59277   0.00000  Uiso   1.00
H936   H     0.38417   0.85095   0.91270   0.00000  Uiso   1.00
H937   H     0.41301   0.83786   0.55573   0.00000  Uiso   1.00
I938   I     0.38385   0.71377   0.80098   0.00000  Uiso   1.00
I939   I     0.41487   0.76360   0.66525   0.00000  Uiso   1.00
I940   I     0.62953   0.76327   0.66598   0.00000  Uiso   1.00
I941   I     0.64152   0.80508   0.88451   0.00000  Uiso   1.00
I942   I     0.55892   0.90598   0.89411   0.00000  Uiso   1.00
N943   N     0.38265   0.83332   0.74998   0.00000  Uiso   1.00
N944   N     0.61735   0.83335   0.74999   0.00000  Uiso   1.00
O945   O     0.46042   0.89345   0.75000   0.00000  Uiso   1.00
O946   O     0.53961   0.89346   0.75000   0.00000  Uiso   1.00
O947   O     0.44108   0.83332   0.82549   0.00000  Uiso   1.00
O948   O     0.52027   0.83333   0.82549   0.00000  Uiso   1.00
O949   O     0.46039   0.77321   0.74999   0.00000  Uiso   1.00
O950   O     0.53958   0.77322   0.74999   0.00000  Uiso   1.00
O951   O     0.47973   0.83334   0.67451   0.00000  Uiso   1.00
O952   O     0.55892   0.83335   0.67451   0.00000  Uiso   1.00
C953   C     0.83321   0.91248   0.75082   0.00000  Uiso   1.00
C954   C     0.79274   0.84078   0.90698   0.00000  Uiso   1.00
C955   C     0.87594   0.97861   0.74280   0.00000  Uiso   1.00
C956   C     0.80765   0.83596   0.84987   0.00000  Uiso   1.00
C957   C     0.87512   0.68780   0.74443   0.00000  Uiso   1.00
C958   C     0.83114   0.70947   0.75612   0.00000  Uiso   1.00
C959   C     0.78728   0.68755   0.77033   0.00000  Uiso   1.00
C960   C     0.78859   0.97822   0.76787   0.00000  Uiso   1.00
C961   C     0.83267   0.95704   0.75331   0.00000  Uiso   1.00
C962   C     0.96886   0.86356   0.77566   0.00000  Uiso   1.00
C963   C     0.68445   0.86307   0.77679   0.00000  Uiso   1.00
C964   C     0.81106   0.83658   0.98994   0.00000  Uiso   1.00
C965   C     0.69949   0.80543   0.71907   0.00000  Uiso   1.00
C966   C     0.98322   0.80525   0.71942   0.00000  Uiso   1.00
C967   C     0.83242   0.75419   0.75265   0.00000  Uiso   1.00
C968   C     0.85882   0.83253   0.65054   0.00000  Uiso   1.00
C969   C     0.93015   0.81389   0.51273   0.00000  Uiso   1.00
C970   C     0.87209   0.82919   0.59451   0.00000  Uiso   1.00
C971   C     0.74383   0.84625   0.93337   0.00000  Uiso   1.00
C972   C     0.72838   0.84637   0.98674   0.00000  Uiso   1.00
C973   C     0.76114   0.83995   0.51483   0.00000  Uiso   1.00
C974   C     0.82656   0.83925   0.93593   0.00000  Uiso   1.00
C975   C     0.84679   0.83133   0.51631   0.00000  Uiso   1.00
C976   C     0.89526   0.82245   0.98752   0.00000  Uiso   1.00
C977   C     0.90826   0.82580   0.93432   0.00000  Uiso   1.00
C978   C     0.87575   0.84399   0.91280   0.00000  Uiso   1.00
C979   C     0.83624   0.83509   0.56977   0.00000  Uiso   1.00
C980   C     0.91892   0.81825   0.56581   0.00000  Uiso   1.00
Cu981  Cu    0.78645   0.83333   0.75000   0.00000  Uiso   1.00
Cu982  Cu    0.88022   0.83334   0.75000   0.00000  Uiso   1.00
H983   H     0.94709   0.81352   0.58412   0.00000  Uiso   1.00
H984   H     0.69063   0.85101   0.50661   0.00000  Uiso   1.00
H985   H     0.91046   0.96270   0.73266   0.00000  Uiso   1.00
H986   H     0.90921   0.70350   0.73611   0.00000  Uiso   1.00
H987   H     0.75493   0.96159   0.77843   0.00000  Uiso   1.00
H988   H     0.94606   0.88900   0.79393   0.00000  Uiso   1.00
H989   H     0.69707   0.88701   0.79869   0.00000  Uiso   1.00
H990   H     0.96674   0.80569   0.99170   0.00000  Uiso   1.00
H991   H     0.80069   0.84425   0.59277   0.00000  Uiso   1.00
H992   H     0.71751   0.85095   0.91270   0.00000  Uiso   1.00
H993   H     0.74634   0.83786   0.55573   0.00000  Uiso   1.00
I994   I     0.71719   0.71377   0.80098   0.00000  Uiso   1.00
I995   I     0.74820   0.76360   0.66525   0.00000  Uiso   1.00
I996   I     0.96286   0.76327   0.66598   0.00000  Uiso   1.00
I997   I     0.97485   0.80508   0.88451   0.00000  Uiso   1.00
I998   I     0.89225   0.90598   0.89411   0.00000  Uiso   1.00
N999   N     0.71598   0.83332   0.74998   0.00000  Uiso   1.00
N1000  N     0.95069   0.83335   0.74999   0.00000  Uiso   1.00
O1001  O     0.79375   0.89345   0.75000   0.00000  Uiso   1.00
O1002  O     0.87294   0.89346   0.75000   0.00000  Uiso   1.00
O1003  O     0.77441   0.83332   0.82549   0.00000  Uiso   1.00
O1004  O     0.85360   0.83333   0.82549   0.00000  Uiso   1.00
O1005  O     0.79373   0.77321   0.74999   0.00000  Uiso   1.00
O1006  O     0.87292   0.77322   0.74999   0.00000  Uiso   1.00
O1007  O     0.81306   0.83334   0.67451   0.00000  Uiso   1.00
O1008  O     0.89225   0.83335   0.67451   0.00000  Uiso   1.00
loop_
_geom_bond_atom_site_label_1
_geom_bond_atom_site_label_2
_geom_bond_distance
_geom_bond_site_symmetry_2
_ccdc_geom_bond_type
C1     O50     1.299   .     A
C1     C9      1.448   .     S
C1     O49     1.300   .     A
C2     C22     1.416   .     A
C2     C4      1.490   .     S
C2     C19     1.401   .     A
C3     C9      1.396   .     A
C3     H33     1.083   .     S
C3     C173    1.382   .     S
C4     O52     1.308   .     A
C4     O51     1.309   .     A
C5     H34     1.078   .     S
C5     C6      1.404   .     A
C5     C339    1.382   1_545 S
C6     C7      1.416   .     A
C6     C15     1.461   .     S
C7     I42     2.127   .     S
C7     C344    1.386   1_545 S
C8     C9      1.397   .     A
C8     H35     1.084   .     S
C8     C175    1.386   .     S
C10    N48     1.366   .     A
C10    H36     1.072   .     S
C10    C67     1.421   .     S
C11    H37     1.082   .     S
C11    N47     1.367   .     A
C11    C122    1.421   1_455 S
C12    C22     1.415   .     A
C12    C525    1.413   .     S
C12    C527    1.425   .     S
C13    I43     2.157   .     S
C13    N47     1.381   .     A
C13    C126    1.429   1_455 S
C14    I44     2.147   .     S
C14    N48     1.382   .     A
C14    C69     1.429   .     S
C15    O53     1.299   .     A
C15    O54     1.306   .     A
C16    O56     1.305   .     A
C16    O55     1.299   .     A
C16    C18     1.461   .     S
C17    C28     1.387   .     A
C17    C528    1.401   1_554 S
C17    H542    1.079   1_554 S
C18    C28     1.397   .     A
C18    C27     1.400   .     A
C19    C20     1.392   .     A
C19    H40     1.078   .     S
C20    C525    1.392   .     S
C20    H536    1.080   .     S
C21    H41     1.078   .     S
C21    C516    1.413   1_554 S
C21    C524    1.392   1_554 S
C22    C26     1.394   .     A
C23    C27     1.397   .     A
C23    C516    1.425   1_554 S
C23    C528    1.423   1_554 S
C24    C25     1.397   .     A
C24    C527    1.423   .     S
C24    C521    1.401   .     S
C25    C26     1.383   .     A
C25    I45     2.111   .     S
C26    I46     2.121   .     S
C27    H39     1.077   .     S
C28    H31     1.079   .     S
Cu29   O49     1.966   .     S
Cu29   Cu30    2.707   .     S
Cu29   O53     1.967   .     S
Cu29   N47     2.034   .     S
Cu29   O51     1.981   .     S
Cu29   O55     1.978   .     S
Cu30   O50     1.967   .     S
Cu30   O54     1.966   .     S
Cu30   N48     2.034   .     S
Cu30   O52     1.978   .     S
Cu30   O56     1.981   .     S
H32    C524    1.080   1_554 S
H38    C521    1.079   .     S
C57    O106    1.299   .     A
C57    C65     1.448   .     S
C57    O105    1.300   .     A
C58    C78     1.416   .     A
C58    C60     1.490   .     S
C58    C75     1.401   .     A
C59    C65     1.396   .     A
C59    H89     1.083   .     S
C59    C229    1.382   .     S
C60    O108    1.308   .     A
C60    O107    1.309   .     A
C61    H90     1.078   .     S
C61    C62     1.404   .     A
C61    C395    1.382   1_545 S
C62    C63     1.416   .     A
C62    C71     1.461   .     S
C63    I98     2.127   .     S
C63    C400    1.386   1_545 S
C64    C65     1.397   .     A
C64    H91     1.084   .     S
C64    C231    1.386   .     S
C66    N104    1.366   .     A
C66    H92     1.072   .     S
C66    C123    1.421   .     S
C67    H93     1.082   .     S
C67    N103    1.367   .     A
C68    C78     1.415   .     A
C68    C581    1.413   .     S
C68    C583    1.425   .     S
C69    I99     2.157   .     S
C69    N103    1.381   .     A
C70    I100    2.147   .     S
C70    N104    1.382   .     A
C70    C125    1.429   .     S
C71    O109    1.299   .     A
C71    O110    1.306   .     A
C72    O112    1.305   .     A
C72    O111    1.299   .     A
C72    C74     1.461   .     S
C73    C84     1.387   .     A
C73    C584    1.401   1_554 S
C73    H598    1.079   1_554 S
C74    C84     1.397   .     A
C74    C83     1.400   .     A
C75    C76     1.392   .     A
C75    H96     1.078   .     S
C76    C581    1.392   .     S
C76    H592    1.080   .     S
C77    H97     1.078   .     S
C77    C572    1.413   1_554 S
C77    C580    1.392   1_554 S
C78    C82     1.394   .     A
C79    C83     1.397   .     A
C79    C572    1.425   1_554 S
C79    C584    1.423   1_554 S
C80    C81     1.397   .     A
C80    C583    1.423   .     S
C80    C577    1.401   .     S
C81    C82     1.383   .     A
C81    I101    2.111   .     S
C82    I102    2.121   .     S
C83    H95     1.077   .     S
C84    H87     1.079   .     S
Cu85   O105    1.966   .     S
Cu85   Cu86    2.707   .     S
Cu85   O109    1.967   .     S
Cu85   N103    2.034   .     S
Cu85   O107    1.981   .     S
Cu85   O111    1.978   .     S
Cu86   O106    1.967   .     S
Cu86   O110    1.966   .     S
Cu86   N104    2.034   .     S
Cu86   O108    1.978   .     S
Cu86   O112    1.981   .     S
H88    C580    1.080   1_554 S
H94    C577    1.079   .     S
C113   O162    1.299   .     A
C113   C121    1.448   .     S
C113   O161    1.300   .     A
C114   C134    1.416   .     A
C114   C116    1.490   .     S
C114   C131    1.401   .     A
C115   C121    1.396   .     A
C115   H145    1.083   .     S
C115   C285    1.382   .     S
C116   O164    1.308   .     A
C116   O163    1.309   .     A
C117   H146    1.078   .     S
C117   C118    1.404   .     A
C117   C451    1.382   1_545 S
C118   C119    1.416   .     A
C118   C127    1.461   .     S
C119   I154    2.127   .     S
C119   C456    1.386   1_545 S
C120   C121    1.397   .     A
C120   H147    1.084   .     S
C120   C287    1.386   .     S
C122   N160    1.366   .     A
C122   H148    1.072   .     S
C122   C11     1.421   1_655 S
C123   H149    1.082   .     S
C123   N159    1.367   .     A
C124   C134    1.415   .     A
C124   C637    1.413   .     S
C124   C639    1.425   .     S
C125   I155    2.157   .     S
C125   N159    1.381   .     A
C126   I156    2.147   .     S
C126   N160    1.382   .     A
C126   C13     1.429   1_655 S
C127   O165    1.299   .     A
C127   O166    1.306   .     A
C128   O168    1.305   .     A
C128   O167    1.299   .     A
C128   C130    1.461   .     S
C129   C140    1.387   .     A
C129   C640    1.401   1_554 S
C129   H654    1.079   1_554 S
C130   C140    1.397   .     A
C130   C139    1.400   .     A
C131   C132    1.392   .     A
C131   H152    1.078   .     S
C132   C637    1.392   .     S
C132   H648    1.080   .     S
C133   H153    1.078   .     S
C133   C628    1.413   1_554 S
C133   C636    1.392   1_554 S
C134   C138    1.394   .     A
C135   C139    1.397   .     A
C135   C628    1.425   1_554 S
C135   C640    1.423   1_554 S
C136   C137    1.397   .     A
C136   C639    1.423   .     S
C136   C633    1.401   .     S
C137   C138    1.383   .     A
C137   I157    2.111   .     S
C138   I158    2.121   .     S
C139   H151    1.077   .     S
C140   H143    1.079   .     S
Cu141  O161    1.966   .     S
Cu141  Cu142   2.707   .     S
Cu141  O165    1.967   .     S
Cu141  N159    2.034   .     S
Cu141  O163    1.981   .     S
Cu141  O167    1.978   .     S
Cu142  O162    1.967   .     S
Cu142  O166    1.966   .     S
Cu142  N160    2.034   .     S
Cu142  O164    1.978   .     S
Cu142  O168    1.981   .     S
H144   C636    1.080   1_554 S
H150   C633    1.079   .     S
C169   O218    1.299   .     A
C169   C177    1.448   .     S
C169   O217    1.300   .     A
C170   C190    1.416   .     A
C170   C172    1.490   .     S
C170   C187    1.401   .     A
C171   C177    1.396   .     A
C171   H201    1.083   .     S
C171   C341    1.382   .     S
C172   O220    1.308   .     A
C172   O219    1.309   .     A
C173   H202    1.078   .     S
C173   C174    1.404   .     A
C174   C175    1.416   .     A
C174   C183    1.461   .     S
C175   I210    2.127   .     S
C176   C177    1.397   .     A
C176   H203    1.084   .     S
C176   C343    1.386   .     S
C178   N216    1.366   .     A
C178   H204    1.072   .     S
C178   C235    1.421   .     S
C179   H205    1.082   .     S
C179   N215    1.367   .     A
C179   C290    1.421   1_455 S
C180   C190    1.415   .     A
C180   C693    1.413   .     S
C180   C695    1.425   .     S
C181   I211    2.157   .     S
C181   N215    1.381   .     A
C181   C294    1.429   1_455 S
C182   I212    2.147   .     S
C182   N216    1.382   .     A
C182   C237    1.429   .     S
C183   O221    1.299   .     A
C183   O222    1.306   .     A
C184   O224    1.305   .     A
C184   O223    1.299   .     A
C184   C186    1.461   .     S
C185   C196    1.387   .     A
C185   C696    1.401   1_554 S
C185   H710    1.079   1_554 S
C186   C196    1.397   .     A
C186   C195    1.400   .     A
C187   C188    1.392   .     A
C187   H208    1.078   .     S
C188   C693    1.392   .     S
C188   H704    1.080   .     S
C189   H209    1.078   .     S
C189   C684    1.413   1_554 S
C189   C692    1.392   1_554 S
C190   C194    1.394   .     A
C191   C195    1.397   .     A
C191   C684    1.425   1_554 S
C191   C696    1.423   1_554 S
C192   C193    1.397   .     A
C192   C695    1.423   .     S
C192   C689    1.401   .     S
C193   C194    1.383   .     A
C193   I213    2.111   .     S
C194   I214    2.121   .     S
C195   H207    1.077   .     S
C196   H199    1.079   .     S
Cu197  O217    1.966   .     S
Cu197  Cu198   2.707   .     S
Cu197  O221    1.967   .     S
Cu197  N215    2.034   .     S
Cu197  O219    1.981   .     S
Cu197  O223    1.978   .     S
Cu198  O218    1.967   .     S
Cu198  O222    1.966   .     S
Cu198  N216    2.034   .     S
Cu198  O220    1.978   .     S
Cu198  O224    1.981   .     S
H200   C692    1.080   1_554 S
H206   C689    1.079   .     S
C225   O274    1.299   .     A
C225   C233    1.448   .     S
C225   O273    1.300   .     A
C226   C246    1.416   .     A
C226   C228    1.490   .     S
C226   C243    1.401   .     A
C227   C233    1.396   .     A
C227   H257    1.083   .     S
C227   C397    1.382   .     S
C228   O276    1.308   .     A
C228   O275    1.309   .     A
C229   H258    1.078   .     S
C229   C230    1.404   .     A
C230   C231    1.416   .     A
C230   C239    1.461   .     S
C231   I266    2.127   .     S
C232   C233    1.397   .     A
C232   H259    1.084   .     S
C232   C399    1.386   .     S
C234   N272    1.366   .     A
C234   H260    1.072   .     S
C234   C291    1.421   .     S
C235   H261    1.082   .     S
C235   N271    1.367   .     A
C236   C246    1.415   .     A
C236   C749    1.413   .     S
C236   C751    1.425   .     S
C237   I267    2.157   .     S
C237   N271    1.381   .     A
C238   I268    2.147   .     S
C238   N272    1.382   .     A
C238   C293    1.429   .     S
C239   O277    1.299   .     A
C239   O278    1.306   .     A
C240   O280    1.305   .     A
C240   O279    1.299   .     A
C240   C242    1.461   .     S
C241   C252    1.387   .     A
C241   C752    1.401   1_554 S
C241   H766    1.079   1_554 S
C242   C252    1.397   .     A
C242   C251    1.400   .     A
C243   C244    1.392   .     A
C243   H264    1.078   .     S
C244   C749    1.392   .     S
C244   H760    1.080   .     S
C245   H265    1.078   .     S
C245   C740    1.413   1_554 S
C245   C748    1.392   1_554 S
C246   C250    1.394   .     A
C247   C251    1.397   .     A
C247   C740    1.425   1_554 S
C247   C752    1.423   1_554 S
C248   C249    1.397   .     A
C248   C751    1.423   .     S
C248   C745    1.401   .     S
C249   C250    1.383   .     A
C249   I269    2.111   .     S
C250   I270    2.121   .     S
C251   H263    1.077   .     S
C252   H255    1.079   .     S
Cu253  O273    1.966   .     S
Cu253  Cu254   2.707   .     S
Cu253  O277    1.967   .     S
Cu253  N271    2.034   .     S
Cu253  O275    1.981   .     S
Cu253  O279    1.978   .     S
Cu254  O274    1.967   .     S
Cu254  O278    1.966   .     S
Cu254  N272    2.034   .     S
Cu254  O276    1.978   .     S
Cu254  O280    1.981   .     S
H256   C748    1.080   1_554 S
H262   C745    1.079   .     S
C281   O330    1.299   .     A
C281   C289    1.448   .     S
C281   O329    1.300   .     A
C282   C302    1.416   .     A
C282   C284    1.490   .     S
C282   C299    1.401   .     A
C283   C289    1.396   .     A
C283   H313    1.083   .     S
C283   C453    1.382   .     S
C284   O332    1.308   .     A
C284   O331    1.309   .     A
C285   H314    1.078   .     S
C285   C286    1.404   .     A
C286   C287    1.416   .     A
C286   C295    1.461   .     S
C287   I322    2.127   .     S
C288   C289    1.397   .     A
C288   H315    1.084   .     S
C288   C455    1.386   .     S
C290   N328    1.366   .     A
C290   H316    1.072   .     S
C290   C179    1.421   1_655 S
C291   H317    1.082   .     S
C291   N327    1.367   .     A
C292   C302    1.415   .     A
C292   C805    1.413   .     S
C292   C807    1.425   .     S
C293   I323    2.157   .     S
C293   N327    1.381   .     A
C294   I324    2.147   .     S
C294   N328    1.382   .     A
C294   C181    1.429   1_655 S
C295   O333    1.299   .     A
C295   O334    1.306   .     A
C296   O336    1.305   .     A
C296   O335    1.299   .     A
C296   C298    1.461   .     S
C297   C308    1.387   .     A
C297   C808    1.401   1_554 S
C297   H822    1.079   1_554 S
C298   C308    1.397   .     A
C298   C307    1.400   .     A
C299   C300    1.392   .     A
C299   H320    1.078   .     S
C300   C805    1.392   .     S
C300   H816    1.080   .     S
C301   H321    1.078   .     S
C301   C796    1.413   1_554 S
C301   C804    1.392   1_554 S
C302   C306    1.394   .     A
C303   C307    1.397   .     A
C303   C796    1.425   1_554 S
C303   C808    1.423   1_554 S
C304   C305    1.397   .     A
C304   C807    1.423   .     S
C304   C801    1.401   .     S
C305   C306    1.383   .     A
C305   I325    2.111   .     S
C306   I326    2.121   .     S
C307   H319    1.077   .     S
C308   H311    1.079   .     S
Cu309  O329    1.966   .     S
Cu309  Cu310   2.707   .     S
Cu309  O333    1.967   .     S
Cu309  N327    2.034   .     S
Cu309  O331    1.981   .     S
Cu309  O335    1.978   .     S
Cu310  O330    1.967   .     S
Cu310  O334    1.966   .     S
Cu310  N328    2.034   .     S
Cu310  O332    1.978   .     S
Cu310  O336    1.981   .     S
H312   C804    1.080   1_554 S
H318   C801    1.079   .     S
C337   O386    1.299   .     A
C337   C345    1.448   .     S
C337   O385    1.300   .     A
C338   C358    1.416   .     A
C338   C340    1.490   .     S
C338   C355    1.401   .     A
C339   C345    1.396   .     A
C339   H369    1.083   .     S
C339   C5      1.382   1_565 S
C340   O388    1.308   .     A
C340   O387    1.309   .     A
C341   H370    1.078   .     S
C341   C342    1.404   .     A
C342   C343    1.416   .     A
C342   C351    1.461   .     S
C343   I378    2.127   .     S
C344   C345    1.397   .     A
C344   H371    1.084   .     S
C344   C7      1.386   1_565 S
C346   N384    1.366   .     A
C346   H372    1.072   .     S
C346   C403    1.421   .     S
C347   H373    1.082   .     S
C347   N383    1.367   .     A
C347   C458    1.421   1_455 S
C348   C358    1.415   .     A
C348   C861    1.413   .     S
C348   C863    1.425   .     S
C349   I379    2.157   .     S
C349   N383    1.381   .     A
C349   C462    1.429   1_455 S
C350   I380    2.147   .     S
C350   N384    1.382   .     A
C350   C405    1.429   .     S
C351   O389    1.299   .     A
C351   O390    1.306   .     A
C352   O392    1.305   .     A
C352   O391    1.299   .     A
C352   C354    1.461   .     S
C353   C364    1.387   .     A
C353   C864    1.401   1_554 S
C353   H878    1.079   1_554 S
C354   C364    1.397   .     A
C354   C363    1.400   .     A
C355   C356    1.392   .     A
C355   H376    1.078   .     S
C356   C861    1.392   .     S
C356   H872    1.080   .     S
C357   H377    1.078   .     S
C357   C852    1.413   1_554 S
C357   C860    1.392   1_554 S
C358   C362    1.394   .     A
C359   C363    1.397   .     A
C359   C852    1.425   1_554 S
C359   C864    1.423   1_554 S
C360   C361    1.397   .     A
C360   C863    1.423   .     S
C360   C857    1.401   .     S
C361   C362    1.383   .     A
C361   I381    2.111   .     S
C362   I382    2.121   .     S
C363   H375    1.077   .     S
C364   H367    1.079   .     S
Cu365  O385    1.966   .     S
Cu365  Cu366   2.707   .     S
Cu365  O389    1.967   .     S
Cu365  N383    2.034   .     S
Cu365  O387    1.981   .     S
Cu365  O391    1.978   .     S
Cu366  O386    1.967   .     S
Cu366  O390    1.966   .     S
Cu366  N384    2.034   .     S
Cu366  O388    1.978   .     S
Cu366  O392    1.981   .     S
H368   C860    1.080   1_554 S
H374   C857    1.079   .     S
C393   O442    1.299   .     A
C393   C401    1.448   .     S
C393   O441    1.300   .     A
C394   C414    1.416   .     A
C394   C396    1.490   .     S
C394   C411    1.401   .     A
C395   C401    1.396   .     A
C395   H425    1.083   .     S
C395   C61     1.382   1_565 S
C396   O444    1.308   .     A
C396   O443    1.309   .     A
C397   H426    1.078   .     S
C397   C398    1.404   .     A
C398   C399    1.416   .     A
C398   C407    1.461   .     S
C399   I434    2.127   .     S
C400   C401    1.397   .     A
C400   H427    1.084   .     S
C400   C63     1.386   1_565 S
C402   N440    1.366   .     A
C402   H428    1.072   .     S
C402   C459    1.421   .     S
C403   H429    1.082   .     S
C403   N439    1.367   .     A
C404   C414    1.415   .     A
C404   C917    1.413   .     S
C404   C919    1.425   .     S
C405   I435    2.157   .     S
C405   N439    1.381   .     A
C406   I436    2.147   .     S
C406   N440    1.382   .     A
C406   C461    1.429   .     S
C407   O445    1.299   .     A
C407   O446    1.306   .     A
C408   O448    1.305   .     A
C408   O447    1.299   .     A
C408   C410    1.461   .     S
C409   C420    1.387   .     A
C409   C920    1.401   1_554 S
C409   H934    1.079   1_554 S
C410   C420    1.397   .     A
C410   C419    1.400   .     A
C411   C412    1.392   .     A
C411   H432    1.078   .     S
C412   C917    1.392   .     S
C412   H928    1.080   .     S
C413   H433    1.078   .     S
C413   C908    1.413   1_554 S
C413   C916    1.392   1_554 S
C414   C418    1.394   .     A
C415   C419    1.397   .     A
C415   C908    1.425   1_554 S
C415   C920    1.423   1_554 S
C416   C417    1.397   .     A
C416   C919    1.423   .     S
C416   C913    1.401   .     S
C417   C418    1.383   .     A
C417   I437    2.111   .     S
C418   I438    2.121   .     S
C419   H431    1.077   .     S
C420   H423    1.079   .     S
Cu421  O441    1.966   .     S
Cu421  Cu422   2.707   .     S
Cu421  O445    1.967   .     S
Cu421  N439    2.034   .     S
Cu421  O443    1.981   .     S
Cu421  O447    1.978   .     S
Cu422  O442    1.967   .     S
Cu422  O446    1.966   .     S
Cu422  N440    2.034   .     S
Cu422  O444    1.978   .     S
Cu422  O448    1.981   .     S
H424   C916    1.080   1_554 S
H430   C913    1.079   .     S
C449   O498    1.299   .     A
C449   C457    1.448   .     S
C449   O497    1.300   .     A
C450   C470    1.416   .     A
C450   C452    1.490   .     S
C450   C467    1.401   .     A
C451   C457    1.396   .     A
C451   H481    1.083   .     S
C451   C117    1.382   1_565 S
C452   O500    1.308   .     A
C452   O499    1.309   .     A
C453   H482    1.078   .     S
C453   C454    1.404   .     A
C454   C455    1.416   .     A
C454   C463    1.461   .     S
C455   I490    2.127   .     S
C456   C457    1.397   .     A
C456   H483    1.084   .     S
C456   C119    1.386   1_565 S
C458   N496    1.366   .     A
C458   H484    1.072   .     S
C458   C347    1.421   1_655 S
C459   H485    1.082   .     S
C459   N495    1.367   .     A
C460   C470    1.415   .     A
C460   C973    1.413   .     S
C460   C975    1.425   .     S
C461   I491    2.157   .     S
C461   N495    1.381   .     A
C462   I492    2.147   .     S
C462   N496    1.382   .     A
C462   C349    1.429   1_655 S
C463   O501    1.299   .     A
C463   O502    1.306   .     A
C464   O504    1.305   .     A
C464   O503    1.299   .     A
C464   C466    1.461   .     S
C465   C476    1.387   .     A
C465   C976    1.401   1_554 S
C465   H990    1.079   1_554 S
C466   C476    1.397   .     A
C466   C475    1.400   .     A
C467   C468    1.392   .     A
C467   H488    1.078   .     S
C468   C973    1.392   .     S
C468   H984    1.080   .     S
C469   H489    1.078   .     S
C469   C964    1.413   1_554 S
C469   C972    1.392   1_554 S
C470   C474    1.394   .     A
C471   C475    1.397   .     A
C471   C964    1.425   1_554 S
C471   C976    1.423   1_554 S
C472   C473    1.397   .     A
C472   C975    1.423   .     S
C472   C969    1.401   .     S
C473   C474    1.383   .     A
C473   I493    2.111   .     S
C474   I494    2.121   .     S
C475   H487    1.077   .     S
C476   H479    1.079   .     S
Cu477  O497    1.966   .     S
Cu477  Cu478   2.707   .     S
Cu477  O501    1.967   .     S
Cu477  N495    2.034   .     S
Cu477  O499    1.981   .     S
Cu477  O503    1.978   .     S
Cu478  O498    1.967   .     S
Cu478  O502    1.966   .     S
Cu478  N496    2.034   .     S
Cu478  O500    1.978   .     S
Cu478  O504    1.981   .     S
H480   C972    1.080   1_554 S
H486   C969    1.079   .     S
C505   O554    1.299   .     A
C505   C513    1.448   .     S
C505   O553    1.300   .     A
C506   C526    1.416   .     A
C506   C508    1.490   .     S
C506   C523    1.401   .     A
C507   C513    1.396   .     A
C507   H537    1.083   .     S
C507   C677    1.382   .     S
C508   O556    1.308   .     A
C508   O555    1.309   .     A
C509   H538    1.078   .     S
C509   C510    1.404   .     A
C509   C843    1.382   1_545 S
C510   C511    1.416   .     A
C510   C519    1.461   .     S
C511   I546    2.127   .     S
C511   C848    1.386   1_545 S
C512   C513    1.397   .     A
C512   H539    1.084   .     S
C512   C679    1.386   .     S
C514   N552    1.366   .     A
C514   H540    1.072   .     S
C514   C571    1.421   .     S
C515   H541    1.082   .     S
C515   N551    1.367   .     A
C515   C626    1.421   1_455 S
C516   C526    1.415   .     A
C516   C21     1.413   1_556 S
C516   C23     1.425   1_556 S
C517   I547    2.157   .     S
C517   N551    1.381   .     A
C517   C630    1.429   1_455 S
C518   I548    2.147   .     S
C518   N552    1.382   .     A
C518   C573    1.429   .     S
C519   O557    1.299   .     A
C519   O558    1.306   .     A
C520   O560    1.305   .     A
C520   O559    1.299   .     A
C520   C522    1.461   .     S
C521   C532    1.387   .     A
C522   C532    1.397   .     A
C522   C531    1.400   .     A
C523   C524    1.392   .     A
C523   H544    1.078   .     S
C524   C21     1.392   1_556 S
C524   H32     1.080   1_556 S
C525   H545    1.078   .     S
C526   C530    1.394   .     A
C527   C531    1.397   .     A
C528   C529    1.397   .     A
C528   C23     1.423   1_556 S
C528   C17     1.401   1_556 S
C529   C530    1.383   .     A
C529   I549    2.111   .     S
C530   I550    2.121   .     S
C531   H543    1.077   .     S
C532   H535    1.079   .     S
Cu533  O553    1.966   .     S
Cu533  Cu534   2.707   .     S
Cu533  O557    1.967   .     S
Cu533  N551    2.034   .     S
Cu533  O555    1.981   .     S
Cu533  O559    1.978   .     S
Cu534  O554    1.967   .     S
Cu534  O558    1.966   .     S
Cu534  N552    2.034   .     S
Cu534  O556    1.978   .     S
Cu534  O560    1.981   .     S
H542   C17     1.079   1_556 S
C561   O610    1.299   .     A
C561   C569    1.448   .     S
C561   O609    1.300   .     A
C562   C582    1.416   .     A
C562   C564    1.490   .     S
C562   C579    1.401   .     A
C563   C569    1.396   .     A
C563   H593    1.083   .     S
C563   C733    1.382   .     S
C564   O612    1.308   .     A
C564   O611    1.309   .     A
C565   H594    1.078   .     S
C565   C566    1.404   .     A
C565   C899    1.382   1_545 S
C566   C567    1.416   .     A
C566   C575    1.461   .     S
C567   I602    2.127   .     S
C567   C904    1.386   1_545 S
C568   C569    1.397   .     A
C568   H595    1.084   .     S
C568   C735    1.386   .     S
C570   N608    1.366   .     A
C570   H596    1.072   .     S
C570   C627    1.421   .     S
C571   H597    1.082   .     S
C571   N607    1.367   .     A
C572   C582    1.415   .     A
C572   C77     1.413   1_556 S
C572   C79     1.425   1_556 S
C573   I603    2.157   .     S
C573   N607    1.381   .     A
C574   I604    2.147   .     S
C574   N608    1.382   .     A
C574   C629    1.429   .     S
C575   O613    1.299   .     A
C575   O614    1.306   .     A
C576   O616    1.305   .     A
C576   O615    1.299   .     A
C576   C578    1.461   .     S
C577   C588    1.387   .     A
C578   C588    1.397   .     A
C578   C587    1.400   .     A
C579   C580    1.392   .     A
C579   H600    1.078   .     S
C580   C77     1.392   1_556 S
C580   H88     1.080   1_556 S
C581   H601    1.078   .     S
C582   C586    1.394   .     A
C583   C587    1.397   .     A
C584   C585    1.397   .     A
C584   C79     1.423   1_556 S
C584   C73     1.401   1_556 S
C585   C586    1.383   .     A
C585   I605    2.111   .     S
C586   I606    2.121   .     S
C587   H599    1.077   .     S
C588   H591    1.079   .     S
Cu589  O609    1.966   .     S
Cu589  Cu590   2.707   .     S
Cu589  O613    1.967   .     S
Cu589  N607    2.034   .     S
Cu589  O611    1.981   .     S
Cu589  O615    1.978   .     S
Cu590  O610    1.967   .     S
Cu590  O614    1.966   .     S
Cu590  N608    2.034   .     S
Cu590  O612    1.978   .     S
Cu590  O616    1.981   .     S
H598   C73     1.079   1_556 S
C617   O666    1.299   .     A
C617   C625    1.448   .     S
C617   O665    1.300   .     A
C618   C638    1.416   .     A
C618   C620    1.490   .     S
C618   C635    1.401   .     A
C619   C625    1.396   .     A
C619   H649    1.083   .     S
C619   C789    1.382   .     S
C620   O668    1.308   .     A
C620   O667    1.309   .     A
C621   H650    1.078   .     S
C621   C622    1.404   .     A
C621   C955    1.382   1_545 S
C622   C623    1.416   .     A
C622   C631    1.461   .     S
C623   I658    2.127   .     S
C623   C960    1.386   1_545 S
C624   C625    1.397   .     A
C624   H651    1.084   .     S
C624   C791    1.386   .     S
C626   N664    1.366   .     A
C626   H652    1.072   .     S
C626   C515    1.421   1_655 S
C627   H653    1.082   .     S
C627   N663    1.367   .     A
C628   C638    1.415   .     A
C628   C133    1.413   1_556 S
C628   C135    1.425   1_556 S
C629   I659    2.157   .     S
C629   N663    1.381   .     A
C630   I660    2.147   .     S
C630   N664    1.382   .     A
C630   C517    1.429   1_655 S
C631   O669    1.299   .     A
C631   O670    1.306   .     A
C632   O672    1.305   .     A
C632   O671    1.299   .     A
C632   C634    1.461   .     S
C633   C644    1.387   .     A
C634   C644    1.397   .     A
C634   C643    1.400   .     A
C635   C636    1.392   .     A
C635   H656    1.078   .     S
C636   C133    1.392   1_556 S
C636   H144    1.080   1_556 S
C637   H657    1.078   .     S
C638   C642    1.394   .     A
C639   C643    1.397   .     A
C640   C641    1.397   .     A
C640   C135    1.423   1_556 S
C640   C129    1.401   1_556 S
C641   C642    1.383   .     A
C641   I661    2.111   .     S
C642   I662    2.121   .     S
C643   H655    1.077   .     S
C644   H647    1.079   .     S
Cu645  O665    1.966   .     S
Cu645  Cu646   2.707   .     S
Cu645  O669    1.967   .     S
Cu645  N663    2.034   .     S
Cu645  O667    1.981   .     S
Cu645  O671    1.978   .     S
Cu646  O666    1.967   .     S
Cu646  O670    1.966   .     S
Cu646  N664    2.034   .     S
Cu646  O668    1.978   .     S
Cu646  O672    1.981   .     S
H654   C129    1.079   1_556 S
C673   O722    1.299   .     A
C673   C681    1.448   .     S
C673   O721    1.300   .     A
C674   C694    1.416   .     A
C674   C676    1.490   .     S
C674   C691    1.401   .     A
C675   C681    1.396   .     A
C675   H705    1.083   .     S
C675   C845    1.382   .     S
C676   O724    1.308   .     A
C676   O723    1.309   .     A
C677   H706    1.078   .     S
C677   C678    1.404   .     A
C678   C679    1.416   .     A
C678   C687    1.461   .     S
C679   I714    2.127   .     S
C680   C681    1.397   .     A
C680   H707    1.084   .     S
C680   C847    1.386   .     S
C682   N720    1.366   .     A
C682   H708    1.072   .     S
C682   C739    1.421   .     S
C683   H709    1.082   .     S
C683   N719    1.367   .     A
C683   C794    1.421   1_455 S
C684   C694    1.415   .     A
C684   C189    1.413   1_556 S
C684   C191    1.425   1_556 S
C685   I715    2.157   .     S
C685   N719    1.381   .     A
C685   C798    1.429   1_455 S
C686   I716    2.147   .     S
C686   N720    1.382   .     A
C686   C741    1.429   .     S
C687   O725    1.299   .     A
C687   O726    1.306   .     A
C688   O728    1.305   .     A
C688   O727    1.299   .     A
C688   C690    1.461   .     S
C689   C700    1.387   .     A
C690   C700    1.397   .     A
C690   C699    1.400   .     A
C691   C692    1.392   .     A
C691   H712    1.078   .     S
C692   C189    1.392   1_556 S
C692   H200    1.080   1_556 S
C693   H713    1.078   .     S
C694   C698    1.394   .     A
C695   C699    1.397   .     A
C696   C697    1.397   .     A
C696   C191    1.423   1_556 S
C696   C185    1.401   1_556 S
C697   C698    1.383   .     A
C697   I717    2.111   .     S
C698   I718    2.121   .     S
C699   H711    1.077   .     S
C700   H703    1.079   .     S
Cu701  O721    1.966   .     S
Cu701  Cu702   2.707   .     S
Cu701  O725    1.967   .     S
Cu701  N719    2.034   .     S
Cu701  O723    1.981   .     S
Cu701  O727    1.978   .     S
Cu702  O722    1.967   .     S
Cu702  O726    1.966   .     S
Cu702  N720    2.034   .     S
Cu702  O724    1.978   .     S
Cu702  O728    1.981   .     S
H710   C185    1.079   1_556 S
C729   O778    1.299   .     A
C729   C737    1.448   .     S
C729   O777    1.300   .     A
C730   C750    1.416   .     A
C730   C732    1.490   .     S
C730   C747    1.401   .     A
C731   C737    1.396   .     A
C731   H761    1.083   .     S
C731   C901    1.382   .     S
C732   O780    1.308   .     A
C732   O779    1.309   .     A
C733   H762    1.078   .     S
C733   C734    1.404   .     A
C734   C735    1.416   .     A
C734   C743    1.461   .     S
C735   I770    2.127   .     S
C736   C737    1.397   .     A
C736   H763    1.084   .     S
C736   C903    1.386   .     S
C738   N776    1.366   .     A
C738   H764    1.072   .     S
C738   C795    1.421   .     S
C739   H765    1.082   .     S
C739   N775    1.367   .     A
C740   C750    1.415   .     A
C740   C245    1.413   1_556 S
C740   C247    1.425   1_556 S
C741   I771    2.157   .     S
C741   N775    1.381   .     A
C742   I772    2.147   .     S
C742   N776    1.382   .     A
C742   C797    1.429   .     S
C743   O781    1.299   .     A
C743   O782    1.306   .     A
C744   O784    1.305   .     A
C744   O783    1.299   .     A
C744   C746    1.461   .     S
C745   C756    1.387   .     A
C746   C756    1.397   .     A
C746   C755    1.400   .     A
C747   C748    1.392   .     A
C747   H768    1.078   .     S
C748   C245    1.392   1_556 S
C748   H256    1.080   1_556 S
C749   H769    1.078   .     S
C750   C754    1.394   .     A
C751   C755    1.397   .     A
C752   C753    1.397   .     A
C752   C247    1.423   1_556 S
C752   C241    1.401   1_556 S
C753   C754    1.383   .     A
C753   I773    2.111   .     S
C754   I774    2.121   .     S
C755   H767    1.077   .     S
C756   H759    1.079   .     S
Cu757  O777    1.966   .     S
Cu757  Cu758   2.707   .     S
Cu757  O781    1.967   .     S
Cu757  N775    2.034   .     S
Cu757  O779    1.981   .     S
Cu757  O783    1.978   .     S
Cu758  O778    1.967   .     S
Cu758  O782    1.966   .     S
Cu758  N776    2.034   .     S
Cu758  O780    1.978   .     S
Cu758  O784    1.981   .     S
H766   C241    1.079   1_556 S
C785   O834    1.299   .     A
C785   C793    1.448   .     S
C785   O833    1.300   .     A
C786   C806    1.416   .     A
C786   C788    1.490   .     S
C786   C803    1.401   .     A
C787   C793    1.396   .     A
C787   H817    1.083   .     S
C787   C957    1.382   .     S
C788   O836    1.308   .     A
C788   O835    1.309   .     A
C789   H818    1.078   .     S
C789   C790    1.404   .     A
C790   C791    1.416   .     A
C790   C799    1.461   .     S
C791   I826    2.127   .     S
C792   C793    1.397   .     A
C792   H819    1.084   .     S
C792   C959    1.386   .     S
C794   N832    1.366   .     A
C794   H820    1.072   .     S
C794   C683    1.421   1_655 S
C795   H821    1.082   .     S
C795   N831    1.367   .     A
C796   C806    1.415   .     A
C796   C301    1.413   1_556 S
C796   C303    1.425   1_556 S
C797   I827    2.157   .     S
C797   N831    1.381   .     A
C798   I828    2.147   .     S
C798   N832    1.382   .     A
C798   C685    1.429   1_655 S
C799   O837    1.299   .     A
C799   O838    1.306   .     A
C800   O840    1.305   .     A
C800   O839    1.299   .     A
C800   C802    1.461   .     S
C801   C812    1.387   .     A
C802   C812    1.397   .     A
C802   C811    1.400   .     A
C803   C804    1.392   .     A
C803   H824    1.078   .     S
C804   C301    1.392   1_556 S
C804   H312    1.080   1_556 S
C805   H825    1.078   .     S
C806   C810    1.394   .     A
C807   C811    1.397   .     A
C808   C809    1.397   .     A
C808   C303    1.423   1_556 S
C808   C297    1.401   1_556 S
C809   C810    1.383   .     A
C809   I829    2.111   .     S
C810   I830    2.121   .     S
C811   H823    1.077   .     S
C812   H815    1.079   .     S
Cu813  O833    1.966   .     S
Cu813  Cu814   2.707   .     S
Cu813  O837    1.967   .     S
Cu813  N831    2.034   .     S
Cu813  O835    1.981   .     S
Cu813  O839    1.978   .     S
Cu814  O834    1.967   .     S
Cu814  O838    1.966   .     S
Cu814  N832    2.034   .     S
Cu814  O836    1.978   .     S
Cu814  O840    1.981   .     S
H822   C297    1.079   1_556 S
C841   O890    1.299   .     A
C841   C849    1.448   .     S
C841   O889    1.300   .     A
C842   C862    1.416   .     A
C842   C844    1.490   .     S
C842   C859    1.401   .     A
C843   C849    1.396   .     A
C843   H873    1.083   .     S
C843   C509    1.382   1_565 S
C844   O892    1.308   .     A
C844   O891    1.309   .     A
C845   H874    1.078   .     S
C845   C846    1.404   .     A
C846   C847    1.416   .     A
C846   C855    1.461   .     S
C847   I882    2.127   .     S
C848   C849    1.397   .     A
C848   H875    1.084   .     S
C848   C511    1.386   1_565 S
C850   N888    1.366   .     A
C850   H876    1.072   .     S
C850   C907    1.421   .     S
C851   H877    1.082   .     S
C851   N887    1.367   .     A
C851   C962    1.421   1_455 S
C852   C862    1.415   .     A
C852   C357    1.413   1_556 S
C852   C359    1.425   1_556 S
C853   I883    2.157   .     S
C853   N887    1.381   .     A
C853   C966    1.429   1_455 S
C854   I884    2.147   .     S
C854   N888    1.382   .     A
C854   C909    1.429   .     S
C855   O893    1.299   .     A
C855   O894    1.306   .     A
C856   O896    1.305   .     A
C856   O895    1.299   .     A
C856   C858    1.461   .     S
C857   C868    1.387   .     A
C858   C868    1.397   .     A
C858   C867    1.400   .     A
C859   C860    1.392   .     A
C859   H880    1.078   .     S
C860   C357    1.392   1_556 S
C860   H368    1.080   1_556 S
C861   H881    1.078   .     S
C862   C866    1.394   .     A
C863   C867    1.397   .     A
C864   C865    1.397   .     A
C864   C359    1.423   1_556 S
C864   C353    1.401   1_556 S
C865   C866    1.383   .     A
C865   I885    2.111   .     S
C866   I886    2.121   .     S
C867   H879    1.077   .     S
C868   H871    1.079   .     S
Cu869  O889    1.966   .     S
Cu869  Cu870   2.707   .     S
Cu869  O893    1.967   .     S
Cu869  N887    2.034   .     S
Cu869  O891    1.981   .     S
Cu869  O895    1.978   .     S
Cu870  O890    1.967   .     S
Cu870  O894    1.966   .     S
Cu870  N888    2.034   .     S
Cu870  O892    1.978   .     S
Cu870  O896    1.981   .     S
H878   C353    1.079   1_556 S
C897   O946    1.299   .     A
C897   C905    1.448   .     S
C897   O945    1.300   .     A
C898   C918    1.416   .     A
C898   C900    1.490   .     S
C898   C915    1.401   .     A
C899   C905    1.396   .     A
C899   H929    1.083   .     S
C899   C565    1.382   1_565 S
C900   O948    1.308   .     A
C900   O947    1.309   .     A
C901   H930    1.078   .     S
C901   C902    1.404   .     A
C902   C903    1.416   .     A
C902   C911    1.461   .     S
C903   I938    2.127   .     S
C904   C905    1.397   .     A
C904   H931    1.084   .     S
C904   C567    1.386   1_565 S
C906   N944    1.366   .     A
C906   H932    1.072   .     S
C906   C963    1.421   .     S
C907   H933    1.082   .     S
C907   N943    1.367   .     A
C908   C918    1.415   .     A
C908   C413    1.413   1_556 S
C908   C415    1.425   1_556 S
C909   I939    2.157   .     S
C909   N943    1.381   .     A
C910   I940    2.147   .     S
C910   N944    1.382   .     A
C910   C965    1.429   .     S
C911   O949    1.299   .     A
C911   O950    1.306   .     A
C912   O952    1.305   .     A
C912   O951    1.299   .     A
C912   C914    1.461   .     S
C913   C924    1.387   .     A
C914   C924    1.397   .     A
C914   C923    1.400   .     A
C915   C916    1.392   .     A
C915   H936    1.078   .     S
C916   C413    1.392   1_556 S
C916   H424    1.080   1_556 S
C917   H937    1.078   .     S
C918   C922    1.394   .     A
C919   C923    1.397   .     A
C920   C921    1.397   .     A
C920   C415    1.423   1_556 S
C920   C409    1.401   1_556 S
C921   C922    1.383   .     A
C921   I941    2.111   .     S
C922   I942    2.121   .     S
C923   H935    1.077   .     S
C924   H927    1.079   .     S
Cu925  O945    1.966   .     S
Cu925  Cu926   2.707   .     S
Cu925  O949    1.967   .     S
Cu925  N943    2.034   .     S
Cu925  O947    1.981   .     S
Cu925  O951    1.978   .     S
Cu926  O946    1.967   .     S
Cu926  O950    1.966   .     S
Cu926  N944    2.034   .     S
Cu926  O948    1.978   .     S
Cu926  O952    1.981   .     S
H934   C409    1.079   1_556 S
C953   O1002   1.299   .     A
C953   C961    1.448   .     S
C953   O1001   1.300   .     A
C954   C974    1.416   .     A
C954   C956    1.490   .     S
C954   C971    1.401   .     A
C955   C961    1.396   .     A
C955   H985    1.083   .     S
C955   C621    1.382   1_565 S
C956   O1004   1.308   .     A
C956   O1003   1.309   .     A
C957   H986    1.078   .     S
C957   C958    1.404   .     A
C958   C959    1.416   .     A
C958   C967    1.461   .     S
C959   I994    2.127   .     S
C960   C961    1.397   .     A
C960   H987    1.084   .     S
C960   C623    1.386   1_565 S
C962   N1000   1.366   .     A
C962   H988    1.072   .     S
C962   C851    1.421   1_655 S
C963   H989    1.082   .     S
C963   N999    1.367   .     A
C964   C974    1.415   .     A
C964   C469    1.413   1_556 S
C964   C471    1.425   1_556 S
C965   I995    2.157   .     S
C965   N999    1.381   .     A
C966   I996    2.147   .     S
C966   N1000   1.382   .     A
C966   C853    1.429   1_655 S
C967   O1005   1.299   .     A
C967   O1006   1.306   .     A
C968   O1008   1.305   .     A
C968   O1007   1.299   .     A
C968   C970    1.461   .     S
C969   C980    1.387   .     A
C970   C980    1.397   .     A
C970   C979    1.400   .     A
C971   C972    1.392   .     A
C971   H992    1.078   .     S
C972   C469    1.392   1_556 S
C972   H480    1.080   1_556 S
C973   H993    1.078   .     S
C974   C978    1.394   .     A
C975   C979    1.397   .     A
C976   C977    1.397   .     A
C976   C471    1.423   1_556 S
C976   C465    1.401   1_556 S
C977   C978    1.383   .     A
C977   I997    2.111   .     S
C978   I998    2.121   .     S
C979   H991    1.077   .     S
C980   H983    1.079   .     S
Cu981  O1001   1.966   .     S
Cu981  Cu982   2.707   .     S
Cu981  O1005   1.967   .     S
Cu981  N999    2.034   .     S
Cu981  O1003   1.981   .     S
Cu981  O1007   1.978   .     S
Cu982  O1002   1.967   .     S
Cu982  O1006   1.966   .     S
Cu982  N1000   2.034   .     S
Cu982  O1004   1.978   .     S
Cu982  O1008   1.981   .     S
H990   C465    1.079   1_556 S
