data_str_m2_o1_o1_pcu_sym.69
_audit_creation_date              2020-01-03
_audit_creation_method            'Materials Studio'
_symmetry_space_group_name_H-M    'P1'
_symmetry_Int_Tables_number       1
_symmetry_cell_setting            triclinic
loop_
_symmetry_equiv_pos_as_xyz
  x,y,z
_cell_length_a                    31.1238
_cell_length_b                    30.1148
_cell_length_c                    28.8535
_cell_angle_alpha                 90.8094
_cell_angle_beta                  90.0003
_cell_angle_gamma                 90.0000
loop_
_atom_site_label
_atom_site_type_symbol
_atom_site_fract_x
_atom_site_fract_y
_atom_site_fract_z
_atom_site_U_iso_or_equiv
_atom_site_adp_type
_atom_site_occupancy
C1     C     0.05940   0.19058   0.16653   0.00000  Uiso   1.00
C2     C     0.49998   0.28921   0.31007   0.00000  Uiso   1.00
C3     C     0.49999   0.28891   0.02603   0.00000  Uiso   1.00
C4     C     0.00001   0.21109   0.30731   0.00000  Uiso   1.00
C5     C     0.25001   0.46079   0.02326   0.00000  Uiso   1.00
C6     C     0.25001   0.03921   0.31007   0.00000  Uiso   1.00
C7     C     0.25000   0.03891   0.02603   0.00000  Uiso   1.00
C8     C     0.24999   0.46109   0.30731   0.00000  Uiso   1.00
C9     C     0.38828   0.14321   0.12468   0.00000  Uiso   1.00
C10    C     0.11168   0.35683   0.20866   0.00000  Uiso   1.00
C11    C     0.10646   0.36114   0.12483   0.00000  Uiso   1.00
C12    C     0.44060   0.30942   0.16680   0.00000  Uiso   1.00
C13    C     0.39358   0.13881   0.20849   0.00000  Uiso   1.00
C14    C     0.10644   0.13883   0.20850   0.00000  Uiso   1.00
C15    C     0.39359   0.36120   0.12484   0.00000  Uiso   1.00
C16    C     0.38824   0.35675   0.20864   0.00000  Uiso   1.00
C17    C     0.11174   0.14323   0.12469   0.00000  Uiso   1.00
C18    C     0.13831   0.39318   0.12468   0.00000  Uiso   1.00
C19    C     0.36174   0.10677   0.20865   0.00000  Uiso   1.00
C20    C     0.35644   0.11117   0.12484   0.00000  Uiso   1.00
C21    C     0.14352   0.38887   0.20850   0.00000  Uiso   1.00
C22    C     0.35640   0.38879   0.20849   0.00000  Uiso   1.00
C23    C     0.44061   0.19058   0.16653   0.00000  Uiso   1.00
C24    C     0.14358   0.11118   0.12484   0.00000  Uiso   1.00
C25    C     0.13828   0.10679   0.20865   0.00000  Uiso   1.00
C26    C     0.36175   0.39324   0.12469   0.00000  Uiso   1.00
C27    C     0.09293   0.34289   0.16683   0.00000  Uiso   1.00
C28    C     0.40707   0.15711   0.16650   0.00000  Uiso   1.00
C29    C     0.40706   0.34288   0.16683   0.00000  Uiso   1.00
C30    C     0.09294   0.15712   0.16650   0.00000  Uiso   1.00
C31    C     0.34294   0.09288   0.16683   0.00000  Uiso   1.00
C32    C     0.15706   0.40712   0.16650   0.00000  Uiso   1.00
C33    C     0.15707   0.09289   0.16683   0.00000  Uiso   1.00
C34    C     0.05939   0.30942   0.16680   0.00000  Uiso   1.00
C35    C     0.34293   0.40711   0.16650   0.00000  Uiso   1.00
C36    C     0.30939   0.44058   0.16653   0.00000  Uiso   1.00
C37    C     0.19061   0.05942   0.16680   0.00000  Uiso   1.00
C38    C     0.19060   0.44058   0.16653   0.00000  Uiso   1.00
C39    C     0.30940   0.05942   0.16680   0.00000  Uiso   1.00
C40    C     0.00002   0.21079   0.02326   0.00000  Uiso   1.00
Cu41   Cu    0.00000   0.25000   0.21355   0.00000  Uiso   1.00
Cu42   Cu    0.00000   0.25000   0.11978   0.00000  Uiso   1.00
Cu43   Cu    0.25000   0.00000   0.21355   0.00000  Uiso   1.00
Cu44   Cu    0.25000   0.00000   0.11978   0.00000  Uiso   1.00
H45    H     0.39794   0.15713   0.09190   0.00000  Uiso   1.00
H46    H     0.35209   0.09284   0.24143   0.00000  Uiso   1.00
H47    H     0.34243   0.10088   0.09208   0.00000  Uiso   1.00
H48    H     0.15750   0.39920   0.24127   0.00000  Uiso   1.00
H49    H     0.34237   0.39906   0.24125   0.00000  Uiso   1.00
H50    H     0.15758   0.10089   0.09208   0.00000  Uiso   1.00
H51    H     0.14793   0.09286   0.24143   0.00000  Uiso   1.00
H52    H     0.35212   0.40719   0.09191   0.00000  Uiso   1.00
H53    H     0.02801   0.16276   0.06300   0.00000  Uiso   1.00
H54    H     0.47220   0.16273   0.06310   0.00000  Uiso   1.00
H55    H     0.02778   0.33727   0.27022   0.00000  Uiso   1.00
H56    H     0.10200   0.34294   0.24144   0.00000  Uiso   1.00
H57    H     0.47198   0.33723   0.27035   0.00000  Uiso   1.00
H58    H     0.47281   0.34801   0.04241   0.00000  Uiso   1.00
H59    H     0.02716   0.34802   0.04241   0.00000  Uiso   1.00
H60    H     0.47285   0.15197   0.29093   0.00000  Uiso   1.00
H61    H     0.02721   0.15199   0.29092   0.00000  Uiso   1.00
H62    H     0.27796   0.41276   0.06302   0.00000  Uiso   1.00
H63    H     0.22216   0.41274   0.06308   0.00000  Uiso   1.00
H64    H     0.27798   0.08723   0.27033   0.00000  Uiso   1.00
H65    H     0.22218   0.08726   0.27024   0.00000  Uiso   1.00
H66    H     0.22283   0.09802   0.04240   0.00000  Uiso   1.00
H67    H     0.09249   0.35082   0.09207   0.00000  Uiso   1.00
H68    H     0.27718   0.09801   0.04242   0.00000  Uiso   1.00
H69    H     0.22280   0.40199   0.29092   0.00000  Uiso   1.00
H70    H     0.27716   0.40198   0.29092   0.00000  Uiso   1.00
H71    H     0.40759   0.14910   0.24125   0.00000  Uiso   1.00
H72    H     0.09244   0.14912   0.24126   0.00000  Uiso   1.00
H73    H     0.40762   0.35093   0.09208   0.00000  Uiso   1.00
H74    H     0.39786   0.34279   0.24142   0.00000  Uiso   1.00
H75    H     0.10209   0.15716   0.09191   0.00000  Uiso   1.00
H76    H     0.14798   0.40708   0.09189   0.00000  Uiso   1.00
N77    N     0.00000   0.25000   0.28402   0.00000  Uiso   1.00
N78    N     0.25005   0.08201   0.28915   0.00000  Uiso   1.00
N79    N     0.25000   0.07986   0.05182   0.00000  Uiso   1.00
N80    N     0.24999   0.42014   0.28151   0.00000  Uiso   1.00
N81    N     0.00000   0.25000   0.04931   0.00000  Uiso   1.00
N82    N     0.25000   0.00000   0.28402   0.00000  Uiso   1.00
N83    N     0.25000   0.00000   0.04931   0.00000  Uiso   1.00
N84    N     0.00007   0.16799   0.04419   0.00000  Uiso   1.00
N85    N     0.49992   0.33201   0.28915   0.00000  Uiso   1.00
N86    N     0.49999   0.32986   0.05182   0.00000  Uiso   1.00
N87    N     0.00002   0.17014   0.28151   0.00000  Uiso   1.00
N88    N     0.25004   0.41799   0.04419   0.00000  Uiso   1.00
O89    O     0.04509   0.20491   0.20625   0.00000  Uiso   1.00
O90    O     0.20492   0.04509   0.12709   0.00000  Uiso   1.00
O91    O     0.20492   0.04509   0.20625   0.00000  Uiso   1.00
O92    O     0.29509   0.45491   0.12709   0.00000  Uiso   1.00
O93    O     0.20492   0.45491   0.12709   0.00000  Uiso   1.00
O94    O     0.29509   0.04509   0.20625   0.00000  Uiso   1.00
O95    O     0.29509   0.04509   0.12709   0.00000  Uiso   1.00
O96    O     0.20492   0.45491   0.20625   0.00000  Uiso   1.00
O97    O     0.45492   0.29509   0.12709   0.00000  Uiso   1.00
O98    O     0.45492   0.29509   0.20625   0.00000  Uiso   1.00
O99    O     0.04509   0.20491   0.12709   0.00000  Uiso   1.00
O100   O     0.45492   0.20491   0.12709   0.00000  Uiso   1.00
O101   O     0.04509   0.29509   0.20625   0.00000  Uiso   1.00
O102   O     0.04509   0.29509   0.12709   0.00000  Uiso   1.00
O103   O     0.45492   0.20491   0.20625   0.00000  Uiso   1.00
O104   O     0.29509   0.45491   0.20625   0.00000  Uiso   1.00
C105   C     0.55940   0.19058   0.16653   0.00000  Uiso   1.00
C106   C     0.99998   0.28921   0.31007   0.00000  Uiso   1.00
C107   C     0.99999   0.28891   0.02603   0.00000  Uiso   1.00
C108   C     0.50001   0.21109   0.30731   0.00000  Uiso   1.00
C109   C     0.75001   0.46079   0.02326   0.00000  Uiso   1.00
C110   C     0.75001   0.03921   0.31007   0.00000  Uiso   1.00
C111   C     0.75000   0.03891   0.02603   0.00000  Uiso   1.00
C112   C     0.74999   0.46109   0.30731   0.00000  Uiso   1.00
C113   C     0.88828   0.14321   0.12468   0.00000  Uiso   1.00
C114   C     0.61168   0.35683   0.20866   0.00000  Uiso   1.00
C115   C     0.60646   0.36114   0.12483   0.00000  Uiso   1.00
C116   C     0.94060   0.30942   0.16680   0.00000  Uiso   1.00
C117   C     0.89358   0.13881   0.20849   0.00000  Uiso   1.00
C118   C     0.60644   0.13883   0.20850   0.00000  Uiso   1.00
C119   C     0.89359   0.36120   0.12484   0.00000  Uiso   1.00
C120   C     0.88824   0.35675   0.20864   0.00000  Uiso   1.00
C121   C     0.61174   0.14323   0.12469   0.00000  Uiso   1.00
C122   C     0.63831   0.39318   0.12468   0.00000  Uiso   1.00
C123   C     0.86174   0.10677   0.20865   0.00000  Uiso   1.00
C124   C     0.85644   0.11117   0.12484   0.00000  Uiso   1.00
C125   C     0.64352   0.38887   0.20850   0.00000  Uiso   1.00
C126   C     0.85640   0.38879   0.20849   0.00000  Uiso   1.00
C127   C     0.94061   0.19058   0.16653   0.00000  Uiso   1.00
C128   C     0.64358   0.11118   0.12484   0.00000  Uiso   1.00
C129   C     0.63828   0.10679   0.20865   0.00000  Uiso   1.00
C130   C     0.86175   0.39324   0.12469   0.00000  Uiso   1.00
C131   C     0.59293   0.34289   0.16683   0.00000  Uiso   1.00
C132   C     0.90707   0.15711   0.16650   0.00000  Uiso   1.00
C133   C     0.90706   0.34288   0.16683   0.00000  Uiso   1.00
C134   C     0.59294   0.15712   0.16650   0.00000  Uiso   1.00
C135   C     0.84294   0.09288   0.16683   0.00000  Uiso   1.00
C136   C     0.65706   0.40712   0.16650   0.00000  Uiso   1.00
C137   C     0.65707   0.09289   0.16683   0.00000  Uiso   1.00
C138   C     0.55939   0.30942   0.16680   0.00000  Uiso   1.00
C139   C     0.84293   0.40711   0.16650   0.00000  Uiso   1.00
C140   C     0.80939   0.44058   0.16653   0.00000  Uiso   1.00
C141   C     0.69061   0.05942   0.16680   0.00000  Uiso   1.00
C142   C     0.69060   0.44058   0.16653   0.00000  Uiso   1.00
C143   C     0.80940   0.05942   0.16680   0.00000  Uiso   1.00
C144   C     0.50002   0.21079   0.02326   0.00000  Uiso   1.00
Cu145  Cu    0.50000   0.25000   0.21355   0.00000  Uiso   1.00
Cu146  Cu    0.50000   0.25000   0.11978   0.00000  Uiso   1.00
Cu147  Cu    0.75000   0.00000   0.21355   0.00000  Uiso   1.00
Cu148  Cu    0.75000   0.00000   0.11978   0.00000  Uiso   1.00
H149   H     0.89794   0.15713   0.09190   0.00000  Uiso   1.00
H150   H     0.85209   0.09284   0.24143   0.00000  Uiso   1.00
H151   H     0.84243   0.10088   0.09208   0.00000  Uiso   1.00
H152   H     0.65750   0.39920   0.24127   0.00000  Uiso   1.00
H153   H     0.84237   0.39906   0.24125   0.00000  Uiso   1.00
H154   H     0.65758   0.10089   0.09208   0.00000  Uiso   1.00
H155   H     0.64793   0.09286   0.24143   0.00000  Uiso   1.00
H156   H     0.85212   0.40719   0.09191   0.00000  Uiso   1.00
H157   H     0.52801   0.16276   0.06300   0.00000  Uiso   1.00
H158   H     0.97220   0.16273   0.06310   0.00000  Uiso   1.00
H159   H     0.52778   0.33727   0.27022   0.00000  Uiso   1.00
H160   H     0.60200   0.34294   0.24144   0.00000  Uiso   1.00
H161   H     0.97198   0.33723   0.27035   0.00000  Uiso   1.00
H162   H     0.97281   0.34801   0.04241   0.00000  Uiso   1.00
H163   H     0.52716   0.34802   0.04241   0.00000  Uiso   1.00
H164   H     0.97285   0.15197   0.29093   0.00000  Uiso   1.00
H165   H     0.52721   0.15199   0.29092   0.00000  Uiso   1.00
H166   H     0.77796   0.41276   0.06302   0.00000  Uiso   1.00
H167   H     0.72216   0.41274   0.06308   0.00000  Uiso   1.00
H168   H     0.77798   0.08723   0.27033   0.00000  Uiso   1.00
H169   H     0.72218   0.08726   0.27024   0.00000  Uiso   1.00
H170   H     0.72283   0.09802   0.04240   0.00000  Uiso   1.00
H171   H     0.59249   0.35082   0.09207   0.00000  Uiso   1.00
H172   H     0.77718   0.09801   0.04242   0.00000  Uiso   1.00
H173   H     0.72280   0.40199   0.29092   0.00000  Uiso   1.00
H174   H     0.77716   0.40198   0.29092   0.00000  Uiso   1.00
H175   H     0.90759   0.14910   0.24125   0.00000  Uiso   1.00
H176   H     0.59244   0.14912   0.24126   0.00000  Uiso   1.00
H177   H     0.90762   0.35093   0.09208   0.00000  Uiso   1.00
H178   H     0.89786   0.34279   0.24142   0.00000  Uiso   1.00
H179   H     0.60209   0.15716   0.09191   0.00000  Uiso   1.00
H180   H     0.64798   0.40708   0.09189   0.00000  Uiso   1.00
N181   N     0.50000   0.25000   0.28402   0.00000  Uiso   1.00
N182   N     0.75005   0.08201   0.28915   0.00000  Uiso   1.00
N183   N     0.75000   0.07986   0.05182   0.00000  Uiso   1.00
N184   N     0.74999   0.42014   0.28151   0.00000  Uiso   1.00
N185   N     0.50000   0.25000   0.04931   0.00000  Uiso   1.00
N186   N     0.75000   0.00000   0.28402   0.00000  Uiso   1.00
N187   N     0.75000   0.00000   0.04931   0.00000  Uiso   1.00
N188   N     0.50007   0.16799   0.04419   0.00000  Uiso   1.00
N189   N     0.99992   0.33201   0.28915   0.00000  Uiso   1.00
N190   N     0.99999   0.32986   0.05182   0.00000  Uiso   1.00
N191   N     0.50002   0.17014   0.28151   0.00000  Uiso   1.00
N192   N     0.75004   0.41799   0.04419   0.00000  Uiso   1.00
O193   O     0.54509   0.20491   0.20625   0.00000  Uiso   1.00
O194   O     0.70492   0.04509   0.12709   0.00000  Uiso   1.00
O195   O     0.70492   0.04509   0.20625   0.00000  Uiso   1.00
O196   O     0.79509   0.45491   0.12709   0.00000  Uiso   1.00
O197   O     0.70492   0.45491   0.12709   0.00000  Uiso   1.00
O198   O     0.79509   0.04509   0.20625   0.00000  Uiso   1.00
O199   O     0.79509   0.04509   0.12709   0.00000  Uiso   1.00
O200   O     0.70492   0.45491   0.20625   0.00000  Uiso   1.00
O201   O     0.95492   0.29509   0.12709   0.00000  Uiso   1.00
O202   O     0.95492   0.29509   0.20625   0.00000  Uiso   1.00
O203   O     0.54509   0.20491   0.12709   0.00000  Uiso   1.00
O204   O     0.95492   0.20491   0.12709   0.00000  Uiso   1.00
O205   O     0.54509   0.29509   0.20625   0.00000  Uiso   1.00
O206   O     0.54509   0.29509   0.12709   0.00000  Uiso   1.00
O207   O     0.95492   0.20491   0.20625   0.00000  Uiso   1.00
O208   O     0.79509   0.45491   0.20625   0.00000  Uiso   1.00
C209   C     0.05940   0.69058   0.16653   0.00000  Uiso   1.00
C210   C     0.49998   0.78921   0.31007   0.00000  Uiso   1.00
C211   C     0.49999   0.78891   0.02603   0.00000  Uiso   1.00
C212   C     0.00001   0.71109   0.30731   0.00000  Uiso   1.00
C213   C     0.25001   0.96079   0.02326   0.00000  Uiso   1.00
C214   C     0.25001   0.53921   0.31007   0.00000  Uiso   1.00
C215   C     0.25000   0.53891   0.02603   0.00000  Uiso   1.00
C216   C     0.24999   0.96109   0.30731   0.00000  Uiso   1.00
C217   C     0.38828   0.64321   0.12468   0.00000  Uiso   1.00
C218   C     0.11168   0.85683   0.20866   0.00000  Uiso   1.00
C219   C     0.10646   0.86114   0.12483   0.00000  Uiso   1.00
C220   C     0.44060   0.80942   0.16680   0.00000  Uiso   1.00
C221   C     0.39358   0.63881   0.20849   0.00000  Uiso   1.00
C222   C     0.10644   0.63883   0.20850   0.00000  Uiso   1.00
C223   C     0.39359   0.86120   0.12484   0.00000  Uiso   1.00
C224   C     0.38824   0.85675   0.20864   0.00000  Uiso   1.00
C225   C     0.11174   0.64323   0.12469   0.00000  Uiso   1.00
C226   C     0.13831   0.89318   0.12468   0.00000  Uiso   1.00
C227   C     0.36174   0.60677   0.20865   0.00000  Uiso   1.00
C228   C     0.35644   0.61117   0.12484   0.00000  Uiso   1.00
C229   C     0.14352   0.88887   0.20850   0.00000  Uiso   1.00
C230   C     0.35640   0.88879   0.20849   0.00000  Uiso   1.00
C231   C     0.44061   0.69058   0.16653   0.00000  Uiso   1.00
C232   C     0.14358   0.61118   0.12484   0.00000  Uiso   1.00
C233   C     0.13828   0.60679   0.20865   0.00000  Uiso   1.00
C234   C     0.36175   0.89324   0.12469   0.00000  Uiso   1.00
C235   C     0.09293   0.84289   0.16683   0.00000  Uiso   1.00
C236   C     0.40707   0.65711   0.16650   0.00000  Uiso   1.00
C237   C     0.40706   0.84288   0.16683   0.00000  Uiso   1.00
C238   C     0.09294   0.65712   0.16650   0.00000  Uiso   1.00
C239   C     0.34294   0.59288   0.16683   0.00000  Uiso   1.00
C240   C     0.15706   0.90712   0.16650   0.00000  Uiso   1.00
C241   C     0.15707   0.59289   0.16683   0.00000  Uiso   1.00
C242   C     0.05939   0.80942   0.16680   0.00000  Uiso   1.00
C243   C     0.34293   0.90711   0.16650   0.00000  Uiso   1.00
C244   C     0.30939   0.94058   0.16653   0.00000  Uiso   1.00
C245   C     0.19061   0.55942   0.16680   0.00000  Uiso   1.00
C246   C     0.19060   0.94058   0.16653   0.00000  Uiso   1.00
C247   C     0.30940   0.55942   0.16680   0.00000  Uiso   1.00
C248   C     0.00002   0.71079   0.02326   0.00000  Uiso   1.00
Cu249  Cu    0.00000   0.75000   0.21355   0.00000  Uiso   1.00
Cu250  Cu    0.00000   0.75000   0.11978   0.00000  Uiso   1.00
Cu251  Cu    0.25000   0.50000   0.21355   0.00000  Uiso   1.00
Cu252  Cu    0.25000   0.50000   0.11978   0.00000  Uiso   1.00
H253   H     0.39794   0.65713   0.09190   0.00000  Uiso   1.00
H254   H     0.35209   0.59284   0.24143   0.00000  Uiso   1.00
H255   H     0.34243   0.60088   0.09208   0.00000  Uiso   1.00
H256   H     0.15750   0.89920   0.24127   0.00000  Uiso   1.00
H257   H     0.34237   0.89906   0.24125   0.00000  Uiso   1.00
H258   H     0.15758   0.60089   0.09208   0.00000  Uiso   1.00
H259   H     0.14793   0.59286   0.24143   0.00000  Uiso   1.00
H260   H     0.35212   0.90719   0.09191   0.00000  Uiso   1.00
H261   H     0.02801   0.66276   0.06300   0.00000  Uiso   1.00
H262   H     0.47220   0.66273   0.06310   0.00000  Uiso   1.00
H263   H     0.02778   0.83727   0.27022   0.00000  Uiso   1.00
H264   H     0.10200   0.84294   0.24144   0.00000  Uiso   1.00
H265   H     0.47198   0.83723   0.27035   0.00000  Uiso   1.00
H266   H     0.47281   0.84801   0.04241   0.00000  Uiso   1.00
H267   H     0.02716   0.84802   0.04241   0.00000  Uiso   1.00
H268   H     0.47285   0.65197   0.29093   0.00000  Uiso   1.00
H269   H     0.02721   0.65199   0.29092   0.00000  Uiso   1.00
H270   H     0.27796   0.91276   0.06302   0.00000  Uiso   1.00
H271   H     0.22216   0.91274   0.06308   0.00000  Uiso   1.00
H272   H     0.27798   0.58723   0.27033   0.00000  Uiso   1.00
H273   H     0.22218   0.58726   0.27024   0.00000  Uiso   1.00
H274   H     0.22283   0.59802   0.04240   0.00000  Uiso   1.00
H275   H     0.09249   0.85082   0.09207   0.00000  Uiso   1.00
H276   H     0.27718   0.59801   0.04242   0.00000  Uiso   1.00
H277   H     0.22280   0.90199   0.29092   0.00000  Uiso   1.00
H278   H     0.27716   0.90198   0.29092   0.00000  Uiso   1.00
H279   H     0.40759   0.64910   0.24125   0.00000  Uiso   1.00
H280   H     0.09244   0.64912   0.24126   0.00000  Uiso   1.00
H281   H     0.40762   0.85093   0.09208   0.00000  Uiso   1.00
H282   H     0.39786   0.84279   0.24142   0.00000  Uiso   1.00
H283   H     0.10209   0.65716   0.09191   0.00000  Uiso   1.00
H284   H     0.14798   0.90708   0.09189   0.00000  Uiso   1.00
N285   N     0.00000   0.75000   0.28402   0.00000  Uiso   1.00
N286   N     0.25005   0.58201   0.28915   0.00000  Uiso   1.00
N287   N     0.25000   0.57986   0.05182   0.00000  Uiso   1.00
N288   N     0.24999   0.92014   0.28151   0.00000  Uiso   1.00
N289   N     0.00000   0.75000   0.04931   0.00000  Uiso   1.00
N290   N     0.25000   0.50000   0.28402   0.00000  Uiso   1.00
N291   N     0.25000   0.50000   0.04931   0.00000  Uiso   1.00
N292   N     0.00007   0.66799   0.04419   0.00000  Uiso   1.00
N293   N     0.49992   0.83201   0.28915   0.00000  Uiso   1.00
N294   N     0.49999   0.82986   0.05182   0.00000  Uiso   1.00
N295   N     0.00002   0.67014   0.28151   0.00000  Uiso   1.00
N296   N     0.25004   0.91799   0.04419   0.00000  Uiso   1.00
O297   O     0.04509   0.70491   0.20625   0.00000  Uiso   1.00
O298   O     0.20492   0.54509   0.12709   0.00000  Uiso   1.00
O299   O     0.20492   0.54509   0.20625   0.00000  Uiso   1.00
O300   O     0.29509   0.95491   0.12709   0.00000  Uiso   1.00
O301   O     0.20492   0.95491   0.12709   0.00000  Uiso   1.00
O302   O     0.29509   0.54509   0.20625   0.00000  Uiso   1.00
O303   O     0.29509   0.54509   0.12709   0.00000  Uiso   1.00
O304   O     0.20492   0.95491   0.20625   0.00000  Uiso   1.00
O305   O     0.45492   0.79509   0.12709   0.00000  Uiso   1.00
O306   O     0.45492   0.79509   0.20625   0.00000  Uiso   1.00
O307   O     0.04509   0.70491   0.12709   0.00000  Uiso   1.00
O308   O     0.45492   0.70491   0.12709   0.00000  Uiso   1.00
O309   O     0.04509   0.79509   0.20625   0.00000  Uiso   1.00
O310   O     0.04509   0.79509   0.12709   0.00000  Uiso   1.00
O311   O     0.45492   0.70491   0.20625   0.00000  Uiso   1.00
O312   O     0.29509   0.95491   0.20625   0.00000  Uiso   1.00
C313   C     0.55940   0.69058   0.16653   0.00000  Uiso   1.00
C314   C     0.99998   0.78921   0.31007   0.00000  Uiso   1.00
C315   C     0.99999   0.78891   0.02603   0.00000  Uiso   1.00
C316   C     0.50001   0.71109   0.30731   0.00000  Uiso   1.00
C317   C     0.75001   0.96079   0.02326   0.00000  Uiso   1.00
C318   C     0.75001   0.53921   0.31007   0.00000  Uiso   1.00
C319   C     0.75000   0.53891   0.02603   0.00000  Uiso   1.00
C320   C     0.74999   0.96109   0.30731   0.00000  Uiso   1.00
C321   C     0.88828   0.64321   0.12468   0.00000  Uiso   1.00
C322   C     0.61168   0.85683   0.20866   0.00000  Uiso   1.00
C323   C     0.60646   0.86114   0.12483   0.00000  Uiso   1.00
C324   C     0.94060   0.80942   0.16680   0.00000  Uiso   1.00
C325   C     0.89358   0.63881   0.20849   0.00000  Uiso   1.00
C326   C     0.60644   0.63883   0.20850   0.00000  Uiso   1.00
C327   C     0.89359   0.86120   0.12484   0.00000  Uiso   1.00
C328   C     0.88824   0.85675   0.20864   0.00000  Uiso   1.00
C329   C     0.61174   0.64323   0.12469   0.00000  Uiso   1.00
C330   C     0.63831   0.89318   0.12468   0.00000  Uiso   1.00
C331   C     0.86174   0.60677   0.20865   0.00000  Uiso   1.00
C332   C     0.85644   0.61117   0.12484   0.00000  Uiso   1.00
C333   C     0.64352   0.88887   0.20850   0.00000  Uiso   1.00
C334   C     0.85640   0.88879   0.20849   0.00000  Uiso   1.00
C335   C     0.94061   0.69058   0.16653   0.00000  Uiso   1.00
C336   C     0.64358   0.61118   0.12484   0.00000  Uiso   1.00
C337   C     0.63828   0.60679   0.20865   0.00000  Uiso   1.00
C338   C     0.86175   0.89324   0.12469   0.00000  Uiso   1.00
C339   C     0.59293   0.84289   0.16683   0.00000  Uiso   1.00
C340   C     0.90707   0.65711   0.16650   0.00000  Uiso   1.00
C341   C     0.90706   0.84288   0.16683   0.00000  Uiso   1.00
C342   C     0.59294   0.65712   0.16650   0.00000  Uiso   1.00
C343   C     0.84294   0.59288   0.16683   0.00000  Uiso   1.00
C344   C     0.65706   0.90712   0.16650   0.00000  Uiso   1.00
C345   C     0.65707   0.59289   0.16683   0.00000  Uiso   1.00
C346   C     0.55939   0.80942   0.16680   0.00000  Uiso   1.00
C347   C     0.84293   0.90711   0.16650   0.00000  Uiso   1.00
C348   C     0.80939   0.94058   0.16653   0.00000  Uiso   1.00
C349   C     0.69061   0.55942   0.16680   0.00000  Uiso   1.00
C350   C     0.69060   0.94058   0.16653   0.00000  Uiso   1.00
C351   C     0.80940   0.55942   0.16680   0.00000  Uiso   1.00
C352   C     0.50002   0.71079   0.02326   0.00000  Uiso   1.00
Cu353  Cu    0.50000   0.75000   0.21355   0.00000  Uiso   1.00
Cu354  Cu    0.50000   0.75000   0.11978   0.00000  Uiso   1.00
Cu355  Cu    0.75000   0.50000   0.21355   0.00000  Uiso   1.00
Cu356  Cu    0.75000   0.50000   0.11978   0.00000  Uiso   1.00
H357   H     0.89794   0.65713   0.09190   0.00000  Uiso   1.00
H358   H     0.85209   0.59284   0.24143   0.00000  Uiso   1.00
H359   H     0.84243   0.60088   0.09208   0.00000  Uiso   1.00
H360   H     0.65750   0.89920   0.24127   0.00000  Uiso   1.00
H361   H     0.84237   0.89906   0.24125   0.00000  Uiso   1.00
H362   H     0.65758   0.60089   0.09208   0.00000  Uiso   1.00
H363   H     0.64793   0.59286   0.24143   0.00000  Uiso   1.00
H364   H     0.85212   0.90719   0.09191   0.00000  Uiso   1.00
H365   H     0.52801   0.66276   0.06300   0.00000  Uiso   1.00
H366   H     0.97220   0.66273   0.06310   0.00000  Uiso   1.00
H367   H     0.52778   0.83727   0.27022   0.00000  Uiso   1.00
H368   H     0.60200   0.84294   0.24144   0.00000  Uiso   1.00
H369   H     0.97198   0.83723   0.27035   0.00000  Uiso   1.00
H370   H     0.97281   0.84801   0.04241   0.00000  Uiso   1.00
H371   H     0.52716   0.84802   0.04241   0.00000  Uiso   1.00
H372   H     0.97285   0.65197   0.29093   0.00000  Uiso   1.00
H373   H     0.52721   0.65199   0.29092   0.00000  Uiso   1.00
H374   H     0.77796   0.91276   0.06302   0.00000  Uiso   1.00
H375   H     0.72216   0.91274   0.06308   0.00000  Uiso   1.00
H376   H     0.77798   0.58723   0.27033   0.00000  Uiso   1.00
H377   H     0.72218   0.58726   0.27024   0.00000  Uiso   1.00
H378   H     0.72283   0.59802   0.04240   0.00000  Uiso   1.00
H379   H     0.59249   0.85082   0.09207   0.00000  Uiso   1.00
H380   H     0.77718   0.59801   0.04242   0.00000  Uiso   1.00
H381   H     0.72280   0.90199   0.29092   0.00000  Uiso   1.00
H382   H     0.77716   0.90198   0.29092   0.00000  Uiso   1.00
H383   H     0.90759   0.64910   0.24125   0.00000  Uiso   1.00
H384   H     0.59244   0.64912   0.24126   0.00000  Uiso   1.00
H385   H     0.90762   0.85093   0.09208   0.00000  Uiso   1.00
H386   H     0.89786   0.84279   0.24142   0.00000  Uiso   1.00
H387   H     0.60209   0.65716   0.09191   0.00000  Uiso   1.00
H388   H     0.64798   0.90708   0.09189   0.00000  Uiso   1.00
N389   N     0.50000   0.75000   0.28402   0.00000  Uiso   1.00
N390   N     0.75005   0.58201   0.28915   0.00000  Uiso   1.00
N391   N     0.75000   0.57986   0.05182   0.00000  Uiso   1.00
N392   N     0.74999   0.92014   0.28151   0.00000  Uiso   1.00
N393   N     0.50000   0.75000   0.04931   0.00000  Uiso   1.00
N394   N     0.75000   0.50000   0.28402   0.00000  Uiso   1.00
N395   N     0.75000   0.50000   0.04931   0.00000  Uiso   1.00
N396   N     0.50007   0.66799   0.04419   0.00000  Uiso   1.00
N397   N     0.99992   0.83201   0.28915   0.00000  Uiso   1.00
N398   N     0.99999   0.82986   0.05182   0.00000  Uiso   1.00
N399   N     0.50002   0.67014   0.28151   0.00000  Uiso   1.00
N400   N     0.75004   0.91799   0.04419   0.00000  Uiso   1.00
O401   O     0.54509   0.70491   0.20625   0.00000  Uiso   1.00
O402   O     0.70492   0.54509   0.12709   0.00000  Uiso   1.00
O403   O     0.70492   0.54509   0.20625   0.00000  Uiso   1.00
O404   O     0.79509   0.95491   0.12709   0.00000  Uiso   1.00
O405   O     0.70492   0.95491   0.12709   0.00000  Uiso   1.00
O406   O     0.79509   0.54509   0.20625   0.00000  Uiso   1.00
O407   O     0.79509   0.54509   0.12709   0.00000  Uiso   1.00
O408   O     0.70492   0.95491   0.20625   0.00000  Uiso   1.00
O409   O     0.95492   0.79509   0.12709   0.00000  Uiso   1.00
O410   O     0.95492   0.79509   0.20625   0.00000  Uiso   1.00
O411   O     0.54509   0.70491   0.12709   0.00000  Uiso   1.00
O412   O     0.95492   0.70491   0.12709   0.00000  Uiso   1.00
O413   O     0.54509   0.79509   0.20625   0.00000  Uiso   1.00
O414   O     0.54509   0.79509   0.12709   0.00000  Uiso   1.00
O415   O     0.95492   0.70491   0.20625   0.00000  Uiso   1.00
O416   O     0.79509   0.95491   0.20625   0.00000  Uiso   1.00
C417   C     0.05940   0.19058   0.49987   0.00000  Uiso   1.00
C418   C     0.49998   0.28921   0.64341   0.00000  Uiso   1.00
C419   C     0.49999   0.28891   0.35936   0.00000  Uiso   1.00
C420   C     0.00001   0.21109   0.64064   0.00000  Uiso   1.00
C421   C     0.25001   0.46079   0.35659   0.00000  Uiso   1.00
C422   C     0.25001   0.03921   0.64341   0.00000  Uiso   1.00
C423   C     0.25000   0.03891   0.35936   0.00000  Uiso   1.00
C424   C     0.24999   0.46109   0.64064   0.00000  Uiso   1.00
C425   C     0.38828   0.14321   0.45802   0.00000  Uiso   1.00
C426   C     0.11168   0.35683   0.54199   0.00000  Uiso   1.00
C427   C     0.10646   0.36114   0.45817   0.00000  Uiso   1.00
C428   C     0.44060   0.30942   0.50013   0.00000  Uiso   1.00
C429   C     0.39358   0.13881   0.54183   0.00000  Uiso   1.00
C430   C     0.10644   0.13883   0.54183   0.00000  Uiso   1.00
C431   C     0.39359   0.36120   0.45817   0.00000  Uiso   1.00
C432   C     0.38824   0.35675   0.54198   0.00000  Uiso   1.00
C433   C     0.11174   0.14323   0.45802   0.00000  Uiso   1.00
C434   C     0.13831   0.39318   0.45801   0.00000  Uiso   1.00
C435   C     0.36174   0.10677   0.54198   0.00000  Uiso   1.00
C436   C     0.35644   0.11117   0.45817   0.00000  Uiso   1.00
C437   C     0.14352   0.38887   0.54184   0.00000  Uiso   1.00
C438   C     0.35640   0.38879   0.54182   0.00000  Uiso   1.00
C439   C     0.44061   0.19058   0.49987   0.00000  Uiso   1.00
C440   C     0.14358   0.11118   0.45817   0.00000  Uiso   1.00
C441   C     0.13828   0.10679   0.54198   0.00000  Uiso   1.00
C442   C     0.36175   0.39324   0.45802   0.00000  Uiso   1.00
C443   C     0.09293   0.34289   0.50016   0.00000  Uiso   1.00
C444   C     0.40707   0.15711   0.49983   0.00000  Uiso   1.00
C445   C     0.40706   0.34288   0.50016   0.00000  Uiso   1.00
C446   C     0.09294   0.15712   0.49984   0.00000  Uiso   1.00
C447   C     0.34294   0.09288   0.50016   0.00000  Uiso   1.00
C448   C     0.15706   0.40712   0.49984   0.00000  Uiso   1.00
C449   C     0.15707   0.09289   0.50016   0.00000  Uiso   1.00
C450   C     0.05939   0.30942   0.50013   0.00000  Uiso   1.00
C451   C     0.34293   0.40711   0.49984   0.00000  Uiso   1.00
C452   C     0.30939   0.44058   0.49987   0.00000  Uiso   1.00
C453   C     0.19061   0.05942   0.50013   0.00000  Uiso   1.00
C454   C     0.19060   0.44058   0.49987   0.00000  Uiso   1.00
C455   C     0.30940   0.05942   0.50013   0.00000  Uiso   1.00
C456   C     0.00002   0.21079   0.35659   0.00000  Uiso   1.00
Cu457  Cu    0.00000   0.25000   0.54689   0.00000  Uiso   1.00
Cu458  Cu    0.00000   0.25000   0.45311   0.00000  Uiso   1.00
Cu459  Cu    0.25000   0.00000   0.54689   0.00000  Uiso   1.00
Cu460  Cu    0.25000   0.00000   0.45311   0.00000  Uiso   1.00
H461   H     0.39794   0.15713   0.42524   0.00000  Uiso   1.00
H462   H     0.35209   0.09284   0.57476   0.00000  Uiso   1.00
H463   H     0.34243   0.10088   0.42541   0.00000  Uiso   1.00
H464   H     0.15750   0.39920   0.57460   0.00000  Uiso   1.00
H465   H     0.34237   0.39906   0.57458   0.00000  Uiso   1.00
H466   H     0.15758   0.10089   0.42541   0.00000  Uiso   1.00
H467   H     0.14793   0.09286   0.57476   0.00000  Uiso   1.00
H468   H     0.35212   0.40719   0.42524   0.00000  Uiso   1.00
H469   H     0.02801   0.16276   0.39633   0.00000  Uiso   1.00
H470   H     0.47220   0.16273   0.39643   0.00000  Uiso   1.00
H471   H     0.02778   0.33727   0.60356   0.00000  Uiso   1.00
H472   H     0.10200   0.34294   0.57478   0.00000  Uiso   1.00
H473   H     0.47198   0.33723   0.60368   0.00000  Uiso   1.00
H474   H     0.47281   0.34801   0.37575   0.00000  Uiso   1.00
H475   H     0.02716   0.34802   0.37574   0.00000  Uiso   1.00
H476   H     0.47285   0.15197   0.62426   0.00000  Uiso   1.00
H477   H     0.02721   0.15199   0.62425   0.00000  Uiso   1.00
H478   H     0.27796   0.41276   0.39635   0.00000  Uiso   1.00
H479   H     0.22216   0.41274   0.39641   0.00000  Uiso   1.00
H480   H     0.27798   0.08723   0.60366   0.00000  Uiso   1.00
H481   H     0.22218   0.08726   0.60357   0.00000  Uiso   1.00
H482   H     0.22283   0.09802   0.37574   0.00000  Uiso   1.00
H483   H     0.09249   0.35082   0.42540   0.00000  Uiso   1.00
H484   H     0.27718   0.09801   0.37575   0.00000  Uiso   1.00
H485   H     0.22280   0.40199   0.62426   0.00000  Uiso   1.00
H486   H     0.27716   0.40198   0.62425   0.00000  Uiso   1.00
H487   H     0.40759   0.14910   0.57459   0.00000  Uiso   1.00
H488   H     0.09244   0.14912   0.57459   0.00000  Uiso   1.00
H489   H     0.40762   0.35093   0.42542   0.00000  Uiso   1.00
H490   H     0.39786   0.34279   0.57475   0.00000  Uiso   1.00
H491   H     0.10209   0.15716   0.42524   0.00000  Uiso   1.00
H492   H     0.14798   0.40708   0.42523   0.00000  Uiso   1.00
N493   N     0.00000   0.25000   0.61736   0.00000  Uiso   1.00
N494   N     0.25005   0.08201   0.62248   0.00000  Uiso   1.00
N495   N     0.25000   0.07986   0.38516   0.00000  Uiso   1.00
N496   N     0.24999   0.42014   0.61484   0.00000  Uiso   1.00
N497   N     0.00000   0.25000   0.38264   0.00000  Uiso   1.00
N498   N     0.25000   0.00000   0.61736   0.00000  Uiso   1.00
N499   N     0.25000   0.00000   0.38264   0.00000  Uiso   1.00
N500   N     0.00007   0.16799   0.37752   0.00000  Uiso   1.00
N501   N     0.49992   0.33201   0.62248   0.00000  Uiso   1.00
N502   N     0.49999   0.32986   0.38516   0.00000  Uiso   1.00
N503   N     0.00002   0.17014   0.61484   0.00000  Uiso   1.00
N504   N     0.25004   0.41799   0.37752   0.00000  Uiso   1.00
O505   O     0.04509   0.20491   0.53958   0.00000  Uiso   1.00
O506   O     0.20492   0.04509   0.46042   0.00000  Uiso   1.00
O507   O     0.20492   0.04509   0.53958   0.00000  Uiso   1.00
O508   O     0.29509   0.45491   0.46042   0.00000  Uiso   1.00
O509   O     0.20492   0.45491   0.46042   0.00000  Uiso   1.00
O510   O     0.29509   0.04509   0.53958   0.00000  Uiso   1.00
O511   O     0.29509   0.04509   0.46042   0.00000  Uiso   1.00
O512   O     0.20492   0.45491   0.53958   0.00000  Uiso   1.00
O513   O     0.45492   0.29509   0.46042   0.00000  Uiso   1.00
O514   O     0.45492   0.29509   0.53958   0.00000  Uiso   1.00
O515   O     0.04509   0.20491   0.46042   0.00000  Uiso   1.00
O516   O     0.45492   0.20491   0.46042   0.00000  Uiso   1.00
O517   O     0.04509   0.29509   0.53958   0.00000  Uiso   1.00
O518   O     0.04509   0.29509   0.46042   0.00000  Uiso   1.00
O519   O     0.45492   0.20491   0.53958   0.00000  Uiso   1.00
O520   O     0.29509   0.45491   0.53958   0.00000  Uiso   1.00
C521   C     0.55940   0.19058   0.49987   0.00000  Uiso   1.00
C522   C     0.99998   0.28921   0.64341   0.00000  Uiso   1.00
C523   C     0.99999   0.28891   0.35936   0.00000  Uiso   1.00
C524   C     0.50001   0.21109   0.64064   0.00000  Uiso   1.00
C525   C     0.75001   0.46079   0.35659   0.00000  Uiso   1.00
C526   C     0.75001   0.03921   0.64341   0.00000  Uiso   1.00
C527   C     0.75000   0.03891   0.35936   0.00000  Uiso   1.00
C528   C     0.74999   0.46109   0.64064   0.00000  Uiso   1.00
C529   C     0.88828   0.14321   0.45802   0.00000  Uiso   1.00
C530   C     0.61168   0.35683   0.54199   0.00000  Uiso   1.00
C531   C     0.60646   0.36114   0.45817   0.00000  Uiso   1.00
C532   C     0.94060   0.30942   0.50013   0.00000  Uiso   1.00
C533   C     0.89358   0.13881   0.54183   0.00000  Uiso   1.00
C534   C     0.60644   0.13883   0.54183   0.00000  Uiso   1.00
C535   C     0.89359   0.36120   0.45817   0.00000  Uiso   1.00
C536   C     0.88824   0.35675   0.54198   0.00000  Uiso   1.00
C537   C     0.61174   0.14323   0.45802   0.00000  Uiso   1.00
C538   C     0.63831   0.39318   0.45801   0.00000  Uiso   1.00
C539   C     0.86174   0.10677   0.54198   0.00000  Uiso   1.00
C540   C     0.85644   0.11117   0.45817   0.00000  Uiso   1.00
C541   C     0.64352   0.38887   0.54184   0.00000  Uiso   1.00
C542   C     0.85640   0.38879   0.54182   0.00000  Uiso   1.00
C543   C     0.94061   0.19058   0.49987   0.00000  Uiso   1.00
C544   C     0.64358   0.11118   0.45817   0.00000  Uiso   1.00
C545   C     0.63828   0.10679   0.54198   0.00000  Uiso   1.00
C546   C     0.86175   0.39324   0.45802   0.00000  Uiso   1.00
C547   C     0.59293   0.34289   0.50016   0.00000  Uiso   1.00
C548   C     0.90707   0.15711   0.49983   0.00000  Uiso   1.00
C549   C     0.90706   0.34288   0.50016   0.00000  Uiso   1.00
C550   C     0.59294   0.15712   0.49984   0.00000  Uiso   1.00
C551   C     0.84294   0.09288   0.50016   0.00000  Uiso   1.00
C552   C     0.65706   0.40712   0.49984   0.00000  Uiso   1.00
C553   C     0.65707   0.09289   0.50016   0.00000  Uiso   1.00
C554   C     0.55939   0.30942   0.50013   0.00000  Uiso   1.00
C555   C     0.84293   0.40711   0.49984   0.00000  Uiso   1.00
C556   C     0.80939   0.44058   0.49987   0.00000  Uiso   1.00
C557   C     0.69061   0.05942   0.50013   0.00000  Uiso   1.00
C558   C     0.69060   0.44058   0.49987   0.00000  Uiso   1.00
C559   C     0.80940   0.05942   0.50013   0.00000  Uiso   1.00
C560   C     0.50002   0.21079   0.35659   0.00000  Uiso   1.00
Cu561  Cu    0.50000   0.25000   0.54689   0.00000  Uiso   1.00
Cu562  Cu    0.50000   0.25000   0.45311   0.00000  Uiso   1.00
Cu563  Cu    0.75000   0.00000   0.54689   0.00000  Uiso   1.00
Cu564  Cu    0.75000   0.00000   0.45311   0.00000  Uiso   1.00
H565   H     0.89794   0.15713   0.42524   0.00000  Uiso   1.00
H566   H     0.85209   0.09284   0.57476   0.00000  Uiso   1.00
H567   H     0.84243   0.10088   0.42541   0.00000  Uiso   1.00
H568   H     0.65750   0.39920   0.57460   0.00000  Uiso   1.00
H569   H     0.84237   0.39906   0.57458   0.00000  Uiso   1.00
H570   H     0.65758   0.10089   0.42541   0.00000  Uiso   1.00
H571   H     0.64793   0.09286   0.57476   0.00000  Uiso   1.00
H572   H     0.85212   0.40719   0.42524   0.00000  Uiso   1.00
H573   H     0.52801   0.16276   0.39633   0.00000  Uiso   1.00
H574   H     0.97220   0.16273   0.39643   0.00000  Uiso   1.00
H575   H     0.52778   0.33727   0.60356   0.00000  Uiso   1.00
H576   H     0.60200   0.34294   0.57478   0.00000  Uiso   1.00
H577   H     0.97198   0.33723   0.60368   0.00000  Uiso   1.00
H578   H     0.97281   0.34801   0.37575   0.00000  Uiso   1.00
H579   H     0.52716   0.34802   0.37574   0.00000  Uiso   1.00
H580   H     0.97285   0.15197   0.62426   0.00000  Uiso   1.00
H581   H     0.52721   0.15199   0.62425   0.00000  Uiso   1.00
H582   H     0.77796   0.41276   0.39635   0.00000  Uiso   1.00
H583   H     0.72216   0.41274   0.39641   0.00000  Uiso   1.00
H584   H     0.77798   0.08723   0.60366   0.00000  Uiso   1.00
H585   H     0.72218   0.08726   0.60357   0.00000  Uiso   1.00
H586   H     0.72283   0.09802   0.37574   0.00000  Uiso   1.00
H587   H     0.59249   0.35082   0.42540   0.00000  Uiso   1.00
H588   H     0.77718   0.09801   0.37575   0.00000  Uiso   1.00
H589   H     0.72280   0.40199   0.62426   0.00000  Uiso   1.00
H590   H     0.77716   0.40198   0.62425   0.00000  Uiso   1.00
H591   H     0.90759   0.14910   0.57459   0.00000  Uiso   1.00
H592   H     0.59244   0.14912   0.57459   0.00000  Uiso   1.00
H593   H     0.90762   0.35093   0.42542   0.00000  Uiso   1.00
H594   H     0.89786   0.34279   0.57475   0.00000  Uiso   1.00
H595   H     0.60209   0.15716   0.42524   0.00000  Uiso   1.00
H596   H     0.64798   0.40708   0.42523   0.00000  Uiso   1.00
N597   N     0.50000   0.25000   0.61736   0.00000  Uiso   1.00
N598   N     0.75005   0.08201   0.62248   0.00000  Uiso   1.00
N599   N     0.75000   0.07986   0.38516   0.00000  Uiso   1.00
N600   N     0.74999   0.42014   0.61484   0.00000  Uiso   1.00
N601   N     0.50000   0.25000   0.38264   0.00000  Uiso   1.00
N602   N     0.75000   0.00000   0.61736   0.00000  Uiso   1.00
N603   N     0.75000   0.00000   0.38264   0.00000  Uiso   1.00
N604   N     0.50007   0.16799   0.37752   0.00000  Uiso   1.00
N605   N     0.99992   0.33201   0.62248   0.00000  Uiso   1.00
N606   N     0.99999   0.32986   0.38516   0.00000  Uiso   1.00
N607   N     0.50002   0.17014   0.61484   0.00000  Uiso   1.00
N608   N     0.75004   0.41799   0.37752   0.00000  Uiso   1.00
O609   O     0.54509   0.20491   0.53958   0.00000  Uiso   1.00
O610   O     0.70492   0.04509   0.46042   0.00000  Uiso   1.00
O611   O     0.70492   0.04509   0.53958   0.00000  Uiso   1.00
O612   O     0.79509   0.45491   0.46042   0.00000  Uiso   1.00
O613   O     0.70492   0.45491   0.46042   0.00000  Uiso   1.00
O614   O     0.79509   0.04509   0.53958   0.00000  Uiso   1.00
O615   O     0.79509   0.04509   0.46042   0.00000  Uiso   1.00
O616   O     0.70492   0.45491   0.53958   0.00000  Uiso   1.00
O617   O     0.95492   0.29509   0.46042   0.00000  Uiso   1.00
O618   O     0.95492   0.29509   0.53958   0.00000  Uiso   1.00
O619   O     0.54509   0.20491   0.46042   0.00000  Uiso   1.00
O620   O     0.95492   0.20491   0.46042   0.00000  Uiso   1.00
O621   O     0.54509   0.29509   0.53958   0.00000  Uiso   1.00
O622   O     0.54509   0.29509   0.46042   0.00000  Uiso   1.00
O623   O     0.95492   0.20491   0.53958   0.00000  Uiso   1.00
O624   O     0.79509   0.45491   0.53958   0.00000  Uiso   1.00
C625   C     0.05940   0.69058   0.49987   0.00000  Uiso   1.00
C626   C     0.49998   0.78921   0.64341   0.00000  Uiso   1.00
C627   C     0.49999   0.78891   0.35936   0.00000  Uiso   1.00
C628   C     0.00001   0.71109   0.64064   0.00000  Uiso   1.00
C629   C     0.25001   0.96079   0.35659   0.00000  Uiso   1.00
C630   C     0.25001   0.53921   0.64341   0.00000  Uiso   1.00
C631   C     0.25000   0.53891   0.35936   0.00000  Uiso   1.00
C632   C     0.24999   0.96109   0.64064   0.00000  Uiso   1.00
C633   C     0.38828   0.64321   0.45802   0.00000  Uiso   1.00
C634   C     0.11168   0.85683   0.54199   0.00000  Uiso   1.00
C635   C     0.10646   0.86114   0.45817   0.00000  Uiso   1.00
C636   C     0.44060   0.80942   0.50013   0.00000  Uiso   1.00
C637   C     0.39358   0.63881   0.54183   0.00000  Uiso   1.00
C638   C     0.10644   0.63883   0.54183   0.00000  Uiso   1.00
C639   C     0.39359   0.86120   0.45817   0.00000  Uiso   1.00
C640   C     0.38824   0.85675   0.54198   0.00000  Uiso   1.00
C641   C     0.11174   0.64323   0.45802   0.00000  Uiso   1.00
C642   C     0.13831   0.89318   0.45801   0.00000  Uiso   1.00
C643   C     0.36174   0.60677   0.54198   0.00000  Uiso   1.00
C644   C     0.35644   0.61117   0.45817   0.00000  Uiso   1.00
C645   C     0.14352   0.88887   0.54184   0.00000  Uiso   1.00
C646   C     0.35640   0.88879   0.54182   0.00000  Uiso   1.00
C647   C     0.44061   0.69058   0.49987   0.00000  Uiso   1.00
C648   C     0.14358   0.61118   0.45817   0.00000  Uiso   1.00
C649   C     0.13828   0.60679   0.54198   0.00000  Uiso   1.00
C650   C     0.36175   0.89324   0.45802   0.00000  Uiso   1.00
C651   C     0.09293   0.84289   0.50016   0.00000  Uiso   1.00
C652   C     0.40707   0.65711   0.49983   0.00000  Uiso   1.00
C653   C     0.40706   0.84288   0.50016   0.00000  Uiso   1.00
C654   C     0.09294   0.65712   0.49984   0.00000  Uiso   1.00
C655   C     0.34294   0.59288   0.50016   0.00000  Uiso   1.00
C656   C     0.15706   0.90712   0.49984   0.00000  Uiso   1.00
C657   C     0.15707   0.59289   0.50016   0.00000  Uiso   1.00
C658   C     0.05939   0.80942   0.50013   0.00000  Uiso   1.00
C659   C     0.34293   0.90711   0.49984   0.00000  Uiso   1.00
C660   C     0.30939   0.94058   0.49987   0.00000  Uiso   1.00
C661   C     0.19061   0.55942   0.50013   0.00000  Uiso   1.00
C662   C     0.19060   0.94058   0.49987   0.00000  Uiso   1.00
C663   C     0.30940   0.55942   0.50013   0.00000  Uiso   1.00
C664   C     0.00002   0.71079   0.35659   0.00000  Uiso   1.00
Cu665  Cu    0.00000   0.75000   0.54689   0.00000  Uiso   1.00
Cu666  Cu    0.00000   0.75000   0.45311   0.00000  Uiso   1.00
Cu667  Cu    0.25000   0.50000   0.54689   0.00000  Uiso   1.00
Cu668  Cu    0.25000   0.50000   0.45311   0.00000  Uiso   1.00
H669   H     0.39794   0.65713   0.42524   0.00000  Uiso   1.00
H670   H     0.35209   0.59284   0.57476   0.00000  Uiso   1.00
H671   H     0.34243   0.60088   0.42541   0.00000  Uiso   1.00
H672   H     0.15750   0.89920   0.57460   0.00000  Uiso   1.00
H673   H     0.34237   0.89906   0.57458   0.00000  Uiso   1.00
H674   H     0.15758   0.60089   0.42541   0.00000  Uiso   1.00
H675   H     0.14793   0.59286   0.57476   0.00000  Uiso   1.00
H676   H     0.35212   0.90719   0.42524   0.00000  Uiso   1.00
H677   H     0.02801   0.66276   0.39633   0.00000  Uiso   1.00
H678   H     0.47220   0.66273   0.39643   0.00000  Uiso   1.00
H679   H     0.02778   0.83727   0.60356   0.00000  Uiso   1.00
H680   H     0.10200   0.84294   0.57478   0.00000  Uiso   1.00
H681   H     0.47198   0.83723   0.60368   0.00000  Uiso   1.00
H682   H     0.47281   0.84801   0.37575   0.00000  Uiso   1.00
H683   H     0.02716   0.84802   0.37574   0.00000  Uiso   1.00
H684   H     0.47285   0.65197   0.62426   0.00000  Uiso   1.00
H685   H     0.02721   0.65199   0.62425   0.00000  Uiso   1.00
H686   H     0.27796   0.91276   0.39635   0.00000  Uiso   1.00
H687   H     0.22216   0.91274   0.39641   0.00000  Uiso   1.00
H688   H     0.27798   0.58723   0.60366   0.00000  Uiso   1.00
H689   H     0.22218   0.58726   0.60357   0.00000  Uiso   1.00
H690   H     0.22283   0.59802   0.37574   0.00000  Uiso   1.00
H691   H     0.09249   0.85082   0.42540   0.00000  Uiso   1.00
H692   H     0.27718   0.59801   0.37575   0.00000  Uiso   1.00
H693   H     0.22280   0.90199   0.62426   0.00000  Uiso   1.00
H694   H     0.27716   0.90198   0.62425   0.00000  Uiso   1.00
H695   H     0.40759   0.64910   0.57459   0.00000  Uiso   1.00
H696   H     0.09244   0.64912   0.57459   0.00000  Uiso   1.00
H697   H     0.40762   0.85093   0.42542   0.00000  Uiso   1.00
H698   H     0.39786   0.84279   0.57475   0.00000  Uiso   1.00
H699   H     0.10209   0.65716   0.42524   0.00000  Uiso   1.00
H700   H     0.14798   0.90708   0.42523   0.00000  Uiso   1.00
N701   N     0.00000   0.75000   0.61736   0.00000  Uiso   1.00
N702   N     0.25005   0.58201   0.62248   0.00000  Uiso   1.00
N703   N     0.25000   0.57986   0.38516   0.00000  Uiso   1.00
N704   N     0.24999   0.92014   0.61484   0.00000  Uiso   1.00
N705   N     0.00000   0.75000   0.38264   0.00000  Uiso   1.00
N706   N     0.25000   0.50000   0.61736   0.00000  Uiso   1.00
N707   N     0.25000   0.50000   0.38264   0.00000  Uiso   1.00
N708   N     0.00007   0.66799   0.37752   0.00000  Uiso   1.00
N709   N     0.49992   0.83201   0.62248   0.00000  Uiso   1.00
N710   N     0.49999   0.82986   0.38516   0.00000  Uiso   1.00
N711   N     0.00002   0.67014   0.61484   0.00000  Uiso   1.00
N712   N     0.25004   0.91799   0.37752   0.00000  Uiso   1.00
O713   O     0.04509   0.70491   0.53958   0.00000  Uiso   1.00
O714   O     0.20492   0.54509   0.46042   0.00000  Uiso   1.00
O715   O     0.20492   0.54509   0.53958   0.00000  Uiso   1.00
O716   O     0.29509   0.95491   0.46042   0.00000  Uiso   1.00
O717   O     0.20492   0.95491   0.46042   0.00000  Uiso   1.00
O718   O     0.29509   0.54509   0.53958   0.00000  Uiso   1.00
O719   O     0.29509   0.54509   0.46042   0.00000  Uiso   1.00
O720   O     0.20492   0.95491   0.53958   0.00000  Uiso   1.00
O721   O     0.45492   0.79509   0.46042   0.00000  Uiso   1.00
O722   O     0.45492   0.79509   0.53958   0.00000  Uiso   1.00
O723   O     0.04509   0.70491   0.46042   0.00000  Uiso   1.00
O724   O     0.45492   0.70491   0.46042   0.00000  Uiso   1.00
O725   O     0.04509   0.79509   0.53958   0.00000  Uiso   1.00
O726   O     0.04509   0.79509   0.46042   0.00000  Uiso   1.00
O727   O     0.45492   0.70491   0.53958   0.00000  Uiso   1.00
O728   O     0.29509   0.95491   0.53958   0.00000  Uiso   1.00
C729   C     0.55940   0.69058   0.49987   0.00000  Uiso   1.00
C730   C     0.99998   0.78921   0.64341   0.00000  Uiso   1.00
C731   C     0.99999   0.78891   0.35936   0.00000  Uiso   1.00
C732   C     0.50001   0.71109   0.64064   0.00000  Uiso   1.00
C733   C     0.75001   0.96079   0.35659   0.00000  Uiso   1.00
C734   C     0.75001   0.53921   0.64341   0.00000  Uiso   1.00
C735   C     0.75000   0.53891   0.35936   0.00000  Uiso   1.00
C736   C     0.74999   0.96109   0.64064   0.00000  Uiso   1.00
C737   C     0.88828   0.64321   0.45802   0.00000  Uiso   1.00
C738   C     0.61168   0.85683   0.54199   0.00000  Uiso   1.00
C739   C     0.60646   0.86114   0.45817   0.00000  Uiso   1.00
C740   C     0.94060   0.80942   0.50013   0.00000  Uiso   1.00
C741   C     0.89358   0.63881   0.54183   0.00000  Uiso   1.00
C742   C     0.60644   0.63883   0.54183   0.00000  Uiso   1.00
C743   C     0.89359   0.86120   0.45817   0.00000  Uiso   1.00
C744   C     0.88824   0.85675   0.54198   0.00000  Uiso   1.00
C745   C     0.61174   0.64323   0.45802   0.00000  Uiso   1.00
C746   C     0.63831   0.89318   0.45801   0.00000  Uiso   1.00
C747   C     0.86174   0.60677   0.54198   0.00000  Uiso   1.00
C748   C     0.85644   0.61117   0.45817   0.00000  Uiso   1.00
C749   C     0.64352   0.88887   0.54184   0.00000  Uiso   1.00
C750   C     0.85640   0.88879   0.54182   0.00000  Uiso   1.00
C751   C     0.94061   0.69058   0.49987   0.00000  Uiso   1.00
C752   C     0.64358   0.61118   0.45817   0.00000  Uiso   1.00
C753   C     0.63828   0.60679   0.54198   0.00000  Uiso   1.00
C754   C     0.86175   0.89324   0.45802   0.00000  Uiso   1.00
C755   C     0.59293   0.84289   0.50016   0.00000  Uiso   1.00
C756   C     0.90707   0.65711   0.49983   0.00000  Uiso   1.00
C757   C     0.90706   0.84288   0.50016   0.00000  Uiso   1.00
C758   C     0.59294   0.65712   0.49984   0.00000  Uiso   1.00
C759   C     0.84294   0.59288   0.50016   0.00000  Uiso   1.00
C760   C     0.65706   0.90712   0.49984   0.00000  Uiso   1.00
C761   C     0.65707   0.59289   0.50016   0.00000  Uiso   1.00
C762   C     0.55939   0.80942   0.50013   0.00000  Uiso   1.00
C763   C     0.84293   0.90711   0.49984   0.00000  Uiso   1.00
C764   C     0.80939   0.94058   0.49987   0.00000  Uiso   1.00
C765   C     0.69061   0.55942   0.50013   0.00000  Uiso   1.00
C766   C     0.69060   0.94058   0.49987   0.00000  Uiso   1.00
C767   C     0.80940   0.55942   0.50013   0.00000  Uiso   1.00
C768   C     0.50002   0.71079   0.35659   0.00000  Uiso   1.00
Cu769  Cu    0.50000   0.75000   0.54689   0.00000  Uiso   1.00
Cu770  Cu    0.50000   0.75000   0.45311   0.00000  Uiso   1.00
Cu771  Cu    0.75000   0.50000   0.54689   0.00000  Uiso   1.00
Cu772  Cu    0.75000   0.50000   0.45311   0.00000  Uiso   1.00
H773   H     0.89794   0.65713   0.42524   0.00000  Uiso   1.00
H774   H     0.85209   0.59284   0.57476   0.00000  Uiso   1.00
H775   H     0.84243   0.60088   0.42541   0.00000  Uiso   1.00
H776   H     0.65750   0.89920   0.57460   0.00000  Uiso   1.00
H777   H     0.84237   0.89906   0.57458   0.00000  Uiso   1.00
H778   H     0.65758   0.60089   0.42541   0.00000  Uiso   1.00
H779   H     0.64793   0.59286   0.57476   0.00000  Uiso   1.00
H780   H     0.85212   0.90719   0.42524   0.00000  Uiso   1.00
H781   H     0.52801   0.66276   0.39633   0.00000  Uiso   1.00
H782   H     0.97220   0.66273   0.39643   0.00000  Uiso   1.00
H783   H     0.52778   0.83727   0.60356   0.00000  Uiso   1.00
H784   H     0.60200   0.84294   0.57478   0.00000  Uiso   1.00
H785   H     0.97198   0.83723   0.60368   0.00000  Uiso   1.00
H786   H     0.97281   0.84801   0.37575   0.00000  Uiso   1.00
H787   H     0.52716   0.84802   0.37574   0.00000  Uiso   1.00
H788   H     0.97285   0.65197   0.62426   0.00000  Uiso   1.00
H789   H     0.52721   0.65199   0.62425   0.00000  Uiso   1.00
H790   H     0.77796   0.91276   0.39635   0.00000  Uiso   1.00
H791   H     0.72216   0.91274   0.39641   0.00000  Uiso   1.00
H792   H     0.77798   0.58723   0.60366   0.00000  Uiso   1.00
H793   H     0.72218   0.58726   0.60357   0.00000  Uiso   1.00
H794   H     0.72283   0.59802   0.37574   0.00000  Uiso   1.00
H795   H     0.59249   0.85082   0.42540   0.00000  Uiso   1.00
H796   H     0.77718   0.59801   0.37575   0.00000  Uiso   1.00
H797   H     0.72280   0.90199   0.62426   0.00000  Uiso   1.00
H798   H     0.77716   0.90198   0.62425   0.00000  Uiso   1.00
H799   H     0.90759   0.64910   0.57459   0.00000  Uiso   1.00
H800   H     0.59244   0.64912   0.57459   0.00000  Uiso   1.00
H801   H     0.90762   0.85093   0.42542   0.00000  Uiso   1.00
H802   H     0.89786   0.84279   0.57475   0.00000  Uiso   1.00
H803   H     0.60209   0.65716   0.42524   0.00000  Uiso   1.00
H804   H     0.64798   0.90708   0.42523   0.00000  Uiso   1.00
N805   N     0.50000   0.75000   0.61736   0.00000  Uiso   1.00
N806   N     0.75005   0.58201   0.62248   0.00000  Uiso   1.00
N807   N     0.75000   0.57986   0.38516   0.00000  Uiso   1.00
N808   N     0.74999   0.92014   0.61484   0.00000  Uiso   1.00
N809   N     0.50000   0.75000   0.38264   0.00000  Uiso   1.00
N810   N     0.75000   0.50000   0.61736   0.00000  Uiso   1.00
N811   N     0.75000   0.50000   0.38264   0.00000  Uiso   1.00
N812   N     0.50007   0.66799   0.37752   0.00000  Uiso   1.00
N813   N     0.99992   0.83201   0.62248   0.00000  Uiso   1.00
N814   N     0.99999   0.82986   0.38516   0.00000  Uiso   1.00
N815   N     0.50002   0.67014   0.61484   0.00000  Uiso   1.00
N816   N     0.75004   0.91799   0.37752   0.00000  Uiso   1.00
O817   O     0.54509   0.70491   0.53958   0.00000  Uiso   1.00
O818   O     0.70492   0.54509   0.46042   0.00000  Uiso   1.00
O819   O     0.70492   0.54509   0.53958   0.00000  Uiso   1.00
O820   O     0.79509   0.95491   0.46042   0.00000  Uiso   1.00
O821   O     0.70492   0.95491   0.46042   0.00000  Uiso   1.00
O822   O     0.79509   0.54509   0.53958   0.00000  Uiso   1.00
O823   O     0.79509   0.54509   0.46042   0.00000  Uiso   1.00
O824   O     0.70492   0.95491   0.53958   0.00000  Uiso   1.00
O825   O     0.95492   0.79509   0.46042   0.00000  Uiso   1.00
O826   O     0.95492   0.79509   0.53958   0.00000  Uiso   1.00
O827   O     0.54509   0.70491   0.46042   0.00000  Uiso   1.00
O828   O     0.95492   0.70491   0.46042   0.00000  Uiso   1.00
O829   O     0.54509   0.79509   0.53958   0.00000  Uiso   1.00
O830   O     0.54509   0.79509   0.46042   0.00000  Uiso   1.00
O831   O     0.95492   0.70491   0.53958   0.00000  Uiso   1.00
O832   O     0.79509   0.95491   0.53958   0.00000  Uiso   1.00
C833   C     0.05940   0.19058   0.83320   0.00000  Uiso   1.00
C834   C     0.49998   0.28921   0.97674   0.00000  Uiso   1.00
C835   C     0.49999   0.28891   0.69269   0.00000  Uiso   1.00
C836   C     0.00001   0.21109   0.97398   0.00000  Uiso   1.00
C837   C     0.25001   0.46079   0.68993   0.00000  Uiso   1.00
C838   C     0.25001   0.03921   0.97674   0.00000  Uiso   1.00
C839   C     0.25000   0.03891   0.69269   0.00000  Uiso   1.00
C840   C     0.24999   0.46109   0.97397   0.00000  Uiso   1.00
C841   C     0.38828   0.14321   0.79135   0.00000  Uiso   1.00
C842   C     0.11168   0.35683   0.87532   0.00000  Uiso   1.00
C843   C     0.10646   0.36114   0.79150   0.00000  Uiso   1.00
C844   C     0.44060   0.30942   0.83347   0.00000  Uiso   1.00
C845   C     0.39358   0.13881   0.87516   0.00000  Uiso   1.00
C846   C     0.10644   0.13883   0.87516   0.00000  Uiso   1.00
C847   C     0.39359   0.36120   0.79151   0.00000  Uiso   1.00
C848   C     0.38824   0.35675   0.87531   0.00000  Uiso   1.00
C849   C     0.11174   0.14323   0.79136   0.00000  Uiso   1.00
C850   C     0.13831   0.39318   0.79135   0.00000  Uiso   1.00
C851   C     0.36174   0.10677   0.87531   0.00000  Uiso   1.00
C852   C     0.35644   0.11117   0.79150   0.00000  Uiso   1.00
C853   C     0.14352   0.38887   0.87517   0.00000  Uiso   1.00
C854   C     0.35640   0.38879   0.87516   0.00000  Uiso   1.00
C855   C     0.44061   0.19058   0.83320   0.00000  Uiso   1.00
C856   C     0.14358   0.11118   0.79151   0.00000  Uiso   1.00
C857   C     0.13828   0.10679   0.87531   0.00000  Uiso   1.00
C858   C     0.36175   0.39324   0.79136   0.00000  Uiso   1.00
C859   C     0.09293   0.34289   0.83350   0.00000  Uiso   1.00
C860   C     0.40707   0.15711   0.83317   0.00000  Uiso   1.00
C861   C     0.40706   0.34288   0.83350   0.00000  Uiso   1.00
C862   C     0.09294   0.15712   0.83317   0.00000  Uiso   1.00
C863   C     0.34294   0.09288   0.83350   0.00000  Uiso   1.00
C864   C     0.15706   0.40712   0.83317   0.00000  Uiso   1.00
C865   C     0.15707   0.09289   0.83350   0.00000  Uiso   1.00
C866   C     0.05939   0.30942   0.83347   0.00000  Uiso   1.00
C867   C     0.34293   0.40711   0.83317   0.00000  Uiso   1.00
C868   C     0.30939   0.44058   0.83320   0.00000  Uiso   1.00
C869   C     0.19061   0.05942   0.83347   0.00000  Uiso   1.00
C870   C     0.19060   0.44058   0.83320   0.00000  Uiso   1.00
C871   C     0.30940   0.05942   0.83347   0.00000  Uiso   1.00
C872   C     0.00002   0.21079   0.68993   0.00000  Uiso   1.00
Cu873  Cu    0.00000   0.25000   0.88022   0.00000  Uiso   1.00
Cu874  Cu    0.00000   0.25000   0.78645   0.00000  Uiso   1.00
Cu875  Cu    0.25000   0.00000   0.88022   0.00000  Uiso   1.00
Cu876  Cu    0.25000   0.00000   0.78645   0.00000  Uiso   1.00
H877   H     0.39794   0.15713   0.75857   0.00000  Uiso   1.00
H878   H     0.35209   0.09284   0.90809   0.00000  Uiso   1.00
H879   H     0.34243   0.10088   0.75874   0.00000  Uiso   1.00
H880   H     0.15750   0.39920   0.90794   0.00000  Uiso   1.00
H881   H     0.34237   0.39906   0.90792   0.00000  Uiso   1.00
H882   H     0.15758   0.10089   0.75875   0.00000  Uiso   1.00
H883   H     0.14793   0.09286   0.90810   0.00000  Uiso   1.00
H884   H     0.35212   0.40719   0.75858   0.00000  Uiso   1.00
H885   H     0.02801   0.16276   0.72966   0.00000  Uiso   1.00
H886   H     0.47220   0.16273   0.72976   0.00000  Uiso   1.00
H887   H     0.02778   0.33727   0.93689   0.00000  Uiso   1.00
H888   H     0.10200   0.34294   0.90811   0.00000  Uiso   1.00
H889   H     0.47198   0.33723   0.93702   0.00000  Uiso   1.00
H890   H     0.47281   0.34801   0.70908   0.00000  Uiso   1.00
H891   H     0.02716   0.34802   0.70908   0.00000  Uiso   1.00
H892   H     0.47285   0.15197   0.95760   0.00000  Uiso   1.00
H893   H     0.02721   0.15199   0.95759   0.00000  Uiso   1.00
H894   H     0.27796   0.41276   0.72968   0.00000  Uiso   1.00
H895   H     0.22216   0.41274   0.72974   0.00000  Uiso   1.00
H896   H     0.27798   0.08723   0.93700   0.00000  Uiso   1.00
H897   H     0.22218   0.08726   0.93691   0.00000  Uiso   1.00
H898   H     0.22283   0.09802   0.70907   0.00000  Uiso   1.00
H899   H     0.09249   0.35082   0.75873   0.00000  Uiso   1.00
H900   H     0.27718   0.09801   0.70908   0.00000  Uiso   1.00
H901   H     0.22280   0.40199   0.95759   0.00000  Uiso   1.00
H902   H     0.27716   0.40198   0.95759   0.00000  Uiso   1.00
H903   H     0.40759   0.14910   0.90792   0.00000  Uiso   1.00
H904   H     0.09244   0.14912   0.90792   0.00000  Uiso   1.00
H905   H     0.40762   0.35093   0.75875   0.00000  Uiso   1.00
H906   H     0.39786   0.34279   0.90809   0.00000  Uiso   1.00
H907   H     0.10209   0.15716   0.75857   0.00000  Uiso   1.00
H908   H     0.14798   0.40708   0.75856   0.00000  Uiso   1.00
N909   N     0.00000   0.25000   0.95069   0.00000  Uiso   1.00
N910   N     0.25005   0.08201   0.95581   0.00000  Uiso   1.00
N911   N     0.25000   0.07986   0.71849   0.00000  Uiso   1.00
N912   N     0.24999   0.42014   0.94818   0.00000  Uiso   1.00
N913   N     0.00000   0.25000   0.71598   0.00000  Uiso   1.00
N914   N     0.25000   0.00000   0.95069   0.00000  Uiso   1.00
N915   N     0.25000   0.00000   0.71598   0.00000  Uiso   1.00
N916   N     0.00007   0.16799   0.71085   0.00000  Uiso   1.00
N917   N     0.49992   0.33201   0.95581   0.00000  Uiso   1.00
N918   N     0.49999   0.32986   0.71849   0.00000  Uiso   1.00
N919   N     0.00002   0.17014   0.94818   0.00000  Uiso   1.00
N920   N     0.25004   0.41799   0.71085   0.00000  Uiso   1.00
O921   O     0.04509   0.20491   0.87291   0.00000  Uiso   1.00
O922   O     0.20492   0.04509   0.79375   0.00000  Uiso   1.00
O923   O     0.20492   0.04509   0.87291   0.00000  Uiso   1.00
O924   O     0.29509   0.45491   0.79375   0.00000  Uiso   1.00
O925   O     0.20492   0.45491   0.79375   0.00000  Uiso   1.00
O926   O     0.29509   0.04509   0.87291   0.00000  Uiso   1.00
O927   O     0.29509   0.04509   0.79375   0.00000  Uiso   1.00
O928   O     0.20492   0.45491   0.87291   0.00000  Uiso   1.00
O929   O     0.45492   0.29509   0.79375   0.00000  Uiso   1.00
O930   O     0.45492   0.29509   0.87291   0.00000  Uiso   1.00
O931   O     0.04509   0.20491   0.79375   0.00000  Uiso   1.00
O932   O     0.45492   0.20491   0.79375   0.00000  Uiso   1.00
O933   O     0.04509   0.29509   0.87291   0.00000  Uiso   1.00
O934   O     0.04509   0.29509   0.79375   0.00000  Uiso   1.00
O935   O     0.45492   0.20491   0.87291   0.00000  Uiso   1.00
O936   O     0.29509   0.45491   0.87291   0.00000  Uiso   1.00
C937   C     0.55940   0.19058   0.83320   0.00000  Uiso   1.00
C938   C     0.99998   0.28921   0.97674   0.00000  Uiso   1.00
C939   C     0.99999   0.28891   0.69269   0.00000  Uiso   1.00
C940   C     0.50001   0.21109   0.97398   0.00000  Uiso   1.00
C941   C     0.75001   0.46079   0.68993   0.00000  Uiso   1.00
C942   C     0.75001   0.03921   0.97674   0.00000  Uiso   1.00
C943   C     0.75000   0.03891   0.69269   0.00000  Uiso   1.00
C944   C     0.74999   0.46109   0.97397   0.00000  Uiso   1.00
C945   C     0.88828   0.14321   0.79135   0.00000  Uiso   1.00
C946   C     0.61168   0.35683   0.87532   0.00000  Uiso   1.00
C947   C     0.60646   0.36114   0.79150   0.00000  Uiso   1.00
C948   C     0.94060   0.30942   0.83347   0.00000  Uiso   1.00
C949   C     0.89358   0.13881   0.87516   0.00000  Uiso   1.00
C950   C     0.60644   0.13883   0.87516   0.00000  Uiso   1.00
C951   C     0.89359   0.36120   0.79151   0.00000  Uiso   1.00
C952   C     0.88824   0.35675   0.87531   0.00000  Uiso   1.00
C953   C     0.61174   0.14323   0.79136   0.00000  Uiso   1.00
C954   C     0.63831   0.39318   0.79135   0.00000  Uiso   1.00
C955   C     0.86174   0.10677   0.87531   0.00000  Uiso   1.00
C956   C     0.85644   0.11117   0.79150   0.00000  Uiso   1.00
C957   C     0.64352   0.38887   0.87517   0.00000  Uiso   1.00
C958   C     0.85640   0.38879   0.87516   0.00000  Uiso   1.00
C959   C     0.94061   0.19058   0.83320   0.00000  Uiso   1.00
C960   C     0.64358   0.11118   0.79151   0.00000  Uiso   1.00
C961   C     0.63828   0.10679   0.87531   0.00000  Uiso   1.00
C962   C     0.86175   0.39324   0.79136   0.00000  Uiso   1.00
C963   C     0.59293   0.34289   0.83350   0.00000  Uiso   1.00
C964   C     0.90707   0.15711   0.83317   0.00000  Uiso   1.00
C965   C     0.90706   0.34288   0.83350   0.00000  Uiso   1.00
C966   C     0.59294   0.15712   0.83317   0.00000  Uiso   1.00
C967   C     0.84294   0.09288   0.83350   0.00000  Uiso   1.00
C968   C     0.65706   0.40712   0.83317   0.00000  Uiso   1.00
C969   C     0.65707   0.09289   0.83350   0.00000  Uiso   1.00
C970   C     0.55939   0.30942   0.83347   0.00000  Uiso   1.00
C971   C     0.84293   0.40711   0.83317   0.00000  Uiso   1.00
C972   C     0.80939   0.44058   0.83320   0.00000  Uiso   1.00
C973   C     0.69061   0.05942   0.83347   0.00000  Uiso   1.00
C974   C     0.69060   0.44058   0.83320   0.00000  Uiso   1.00
C975   C     0.80940   0.05942   0.83347   0.00000  Uiso   1.00
C976   C     0.50002   0.21079   0.68993   0.00000  Uiso   1.00
Cu977  Cu    0.50000   0.25000   0.88022   0.00000  Uiso   1.00
Cu978  Cu    0.50000   0.25000   0.78645   0.00000  Uiso   1.00
Cu979  Cu    0.75000   0.00000   0.88022   0.00000  Uiso   1.00
Cu980  Cu    0.75000   0.00000   0.78645   0.00000  Uiso   1.00
H981   H     0.89794   0.15713   0.75857   0.00000  Uiso   1.00
H982   H     0.85209   0.09284   0.90809   0.00000  Uiso   1.00
H983   H     0.84243   0.10088   0.75874   0.00000  Uiso   1.00
H984   H     0.65750   0.39920   0.90794   0.00000  Uiso   1.00
H985   H     0.84237   0.39906   0.90792   0.00000  Uiso   1.00
H986   H     0.65758   0.10089   0.75875   0.00000  Uiso   1.00
H987   H     0.64793   0.09286   0.90810   0.00000  Uiso   1.00
H988   H     0.85212   0.40719   0.75858   0.00000  Uiso   1.00
H989   H     0.52801   0.16276   0.72966   0.00000  Uiso   1.00
H990   H     0.97220   0.16273   0.72976   0.00000  Uiso   1.00
H991   H     0.52778   0.33727   0.93689   0.00000  Uiso   1.00
H992   H     0.60200   0.34294   0.90811   0.00000  Uiso   1.00
H993   H     0.97198   0.33723   0.93702   0.00000  Uiso   1.00
H994   H     0.97281   0.34801   0.70908   0.00000  Uiso   1.00
H995   H     0.52716   0.34802   0.70908   0.00000  Uiso   1.00
H996   H     0.97285   0.15197   0.95760   0.00000  Uiso   1.00
H997   H     0.52721   0.15199   0.95759   0.00000  Uiso   1.00
H998   H     0.77796   0.41276   0.72968   0.00000  Uiso   1.00
H999   H     0.72216   0.41274   0.72974   0.00000  Uiso   1.00
H1000  H     0.77798   0.08723   0.93700   0.00000  Uiso   1.00
H1001  H     0.72218   0.08726   0.93691   0.00000  Uiso   1.00
H1002  H     0.72283   0.09802   0.70907   0.00000  Uiso   1.00
H1003  H     0.59249   0.35082   0.75873   0.00000  Uiso   1.00
H1004  H     0.77718   0.09801   0.70908   0.00000  Uiso   1.00
H1005  H     0.72280   0.40199   0.95759   0.00000  Uiso   1.00
H1006  H     0.77716   0.40198   0.95759   0.00000  Uiso   1.00
H1007  H     0.90759   0.14910   0.90792   0.00000  Uiso   1.00
H1008  H     0.59244   0.14912   0.90792   0.00000  Uiso   1.00
H1009  H     0.90762   0.35093   0.75875   0.00000  Uiso   1.00
H1010  H     0.89786   0.34279   0.90809   0.00000  Uiso   1.00
H1011  H     0.60209   0.15716   0.75857   0.00000  Uiso   1.00
H1012  H     0.64798   0.40708   0.75856   0.00000  Uiso   1.00
N1013  N     0.50000   0.25000   0.95069   0.00000  Uiso   1.00
N1014  N     0.75005   0.08201   0.95581   0.00000  Uiso   1.00
N1015  N     0.75000   0.07986   0.71849   0.00000  Uiso   1.00
N1016  N     0.74999   0.42014   0.94818   0.00000  Uiso   1.00
N1017  N     0.50000   0.25000   0.71598   0.00000  Uiso   1.00
N1018  N     0.75000   0.00000   0.95069   0.00000  Uiso   1.00
N1019  N     0.75000   0.00000   0.71598   0.00000  Uiso   1.00
N1020  N     0.50007   0.16799   0.71085   0.00000  Uiso   1.00
N1021  N     0.99992   0.33201   0.95581   0.00000  Uiso   1.00
N1022  N     0.99999   0.32986   0.71849   0.00000  Uiso   1.00
N1023  N     0.50002   0.17014   0.94818   0.00000  Uiso   1.00
N1024  N     0.75004   0.41799   0.71085   0.00000  Uiso   1.00
O1025  O     0.54509   0.20491   0.87291   0.00000  Uiso   1.00
O1026  O     0.70492   0.04509   0.79375   0.00000  Uiso   1.00
O1027  O     0.70492   0.04509   0.87291   0.00000  Uiso   1.00
O1028  O     0.79509   0.45491   0.79375   0.00000  Uiso   1.00
O1029  O     0.70492   0.45491   0.79375   0.00000  Uiso   1.00
O1030  O     0.79509   0.04509   0.87291   0.00000  Uiso   1.00
O1031  O     0.79509   0.04509   0.79375   0.00000  Uiso   1.00
O1032  O     0.70492   0.45491   0.87291   0.00000  Uiso   1.00
O1033  O     0.95492   0.29509   0.79375   0.00000  Uiso   1.00
O1034  O     0.95492   0.29509   0.87291   0.00000  Uiso   1.00
O1035  O     0.54509   0.20491   0.79375   0.00000  Uiso   1.00
O1036  O     0.95492   0.20491   0.79375   0.00000  Uiso   1.00
O1037  O     0.54509   0.29509   0.87291   0.00000  Uiso   1.00
O1038  O     0.54509   0.29509   0.79375   0.00000  Uiso   1.00
O1039  O     0.95492   0.20491   0.87291   0.00000  Uiso   1.00
O1040  O     0.79509   0.45491   0.87291   0.00000  Uiso   1.00
C1041  C     0.05940   0.69058   0.83320   0.00000  Uiso   1.00
C1042  C     0.49998   0.78921   0.97674   0.00000  Uiso   1.00
C1043  C     0.49999   0.78891   0.69269   0.00000  Uiso   1.00
C1044  C     0.00001   0.71109   0.97398   0.00000  Uiso   1.00
C1045  C     0.25001   0.96079   0.68993   0.00000  Uiso   1.00
C1046  C     0.25001   0.53921   0.97674   0.00000  Uiso   1.00
C1047  C     0.25000   0.53891   0.69269   0.00000  Uiso   1.00
C1048  C     0.24999   0.96109   0.97397   0.00000  Uiso   1.00
C1049  C     0.38828   0.64321   0.79135   0.00000  Uiso   1.00
C1050  C     0.11168   0.85683   0.87532   0.00000  Uiso   1.00
C1051  C     0.10646   0.86114   0.79150   0.00000  Uiso   1.00
C1052  C     0.44060   0.80942   0.83347   0.00000  Uiso   1.00
C1053  C     0.39358   0.63881   0.87516   0.00000  Uiso   1.00
C1054  C     0.10644   0.63883   0.87516   0.00000  Uiso   1.00
C1055  C     0.39359   0.86120   0.79151   0.00000  Uiso   1.00
C1056  C     0.38824   0.85675   0.87531   0.00000  Uiso   1.00
C1057  C     0.11174   0.64323   0.79136   0.00000  Uiso   1.00
C1058  C     0.13831   0.89318   0.79135   0.00000  Uiso   1.00
C1059  C     0.36174   0.60677   0.87531   0.00000  Uiso   1.00
C1060  C     0.35644   0.61117   0.79150   0.00000  Uiso   1.00
C1061  C     0.14352   0.88887   0.87517   0.00000  Uiso   1.00
C1062  C     0.35640   0.88879   0.87516   0.00000  Uiso   1.00
C1063  C     0.44061   0.69058   0.83320   0.00000  Uiso   1.00
C1064  C     0.14358   0.61118   0.79151   0.00000  Uiso   1.00
C1065  C     0.13828   0.60679   0.87531   0.00000  Uiso   1.00
C1066  C     0.36175   0.89324   0.79136   0.00000  Uiso   1.00
C1067  C     0.09293   0.84289   0.83350   0.00000  Uiso   1.00
C1068  C     0.40707   0.65711   0.83317   0.00000  Uiso   1.00
C1069  C     0.40706   0.84288   0.83350   0.00000  Uiso   1.00
C1070  C     0.09294   0.65712   0.83317   0.00000  Uiso   1.00
C1071  C     0.34294   0.59288   0.83350   0.00000  Uiso   1.00
C1072  C     0.15706   0.90712   0.83317   0.00000  Uiso   1.00
C1073  C     0.15707   0.59289   0.83350   0.00000  Uiso   1.00
C1074  C     0.05939   0.80942   0.83347   0.00000  Uiso   1.00
C1075  C     0.34293   0.90711   0.83317   0.00000  Uiso   1.00
C1076  C     0.30939   0.94058   0.83320   0.00000  Uiso   1.00
C1077  C     0.19061   0.55942   0.83347   0.00000  Uiso   1.00
C1078  C     0.19060   0.94058   0.83320   0.00000  Uiso   1.00
C1079  C     0.30940   0.55942   0.83347   0.00000  Uiso   1.00
C1080  C     0.00002   0.71079   0.68993   0.00000  Uiso   1.00
Cu1081 Cu    0.00000   0.75000   0.88022   0.00000  Uiso   1.00
Cu1082 Cu    0.00000   0.75000   0.78645   0.00000  Uiso   1.00
Cu1083 Cu    0.25000   0.50000   0.88022   0.00000  Uiso   1.00
Cu1084 Cu    0.25000   0.50000   0.78645   0.00000  Uiso   1.00
H1085  H     0.39794   0.65713   0.75857   0.00000  Uiso   1.00
H1086  H     0.35209   0.59284   0.90809   0.00000  Uiso   1.00
H1087  H     0.34243   0.60088   0.75874   0.00000  Uiso   1.00
H1088  H     0.15750   0.89920   0.90794   0.00000  Uiso   1.00
H1089  H     0.34237   0.89906   0.90792   0.00000  Uiso   1.00
H1090  H     0.15758   0.60089   0.75875   0.00000  Uiso   1.00
H1091  H     0.14793   0.59286   0.90810   0.00000  Uiso   1.00
H1092  H     0.35212   0.90719   0.75858   0.00000  Uiso   1.00
H1093  H     0.02801   0.66276   0.72966   0.00000  Uiso   1.00
H1094  H     0.47220   0.66273   0.72976   0.00000  Uiso   1.00
H1095  H     0.02778   0.83727   0.93689   0.00000  Uiso   1.00
H1096  H     0.10200   0.84294   0.90811   0.00000  Uiso   1.00
H1097  H     0.47198   0.83723   0.93702   0.00000  Uiso   1.00
H1098  H     0.47281   0.84801   0.70908   0.00000  Uiso   1.00
H1099  H     0.02716   0.84802   0.70908   0.00000  Uiso   1.00
H1100  H     0.47285   0.65197   0.95760   0.00000  Uiso   1.00
H1101  H     0.02721   0.65199   0.95759   0.00000  Uiso   1.00
H1102  H     0.27796   0.91276   0.72968   0.00000  Uiso   1.00
H1103  H     0.22216   0.91274   0.72974   0.00000  Uiso   1.00
H1104  H     0.27798   0.58723   0.93700   0.00000  Uiso   1.00
H1105  H     0.22218   0.58726   0.93691   0.00000  Uiso   1.00
H1106  H     0.22283   0.59802   0.70907   0.00000  Uiso   1.00
H1107  H     0.09249   0.85082   0.75873   0.00000  Uiso   1.00
H1108  H     0.27718   0.59801   0.70908   0.00000  Uiso   1.00
H1109  H     0.22280   0.90199   0.95759   0.00000  Uiso   1.00
H1110  H     0.27716   0.90198   0.95759   0.00000  Uiso   1.00
H1111  H     0.40759   0.64910   0.90792   0.00000  Uiso   1.00
H1112  H     0.09244   0.64912   0.90792   0.00000  Uiso   1.00
H1113  H     0.40762   0.85093   0.75875   0.00000  Uiso   1.00
H1114  H     0.39786   0.84279   0.90809   0.00000  Uiso   1.00
H1115  H     0.10209   0.65716   0.75857   0.00000  Uiso   1.00
H1116  H     0.14798   0.90708   0.75856   0.00000  Uiso   1.00
N1117  N     0.00000   0.75000   0.95069   0.00000  Uiso   1.00
N1118  N     0.25005   0.58201   0.95581   0.00000  Uiso   1.00
N1119  N     0.25000   0.57986   0.71849   0.00000  Uiso   1.00
N1120  N     0.24999   0.92014   0.94818   0.00000  Uiso   1.00
N1121  N     0.00000   0.75000   0.71598   0.00000  Uiso   1.00
N1122  N     0.25000   0.50000   0.95069   0.00000  Uiso   1.00
N1123  N     0.25000   0.50000   0.71598   0.00000  Uiso   1.00
N1124  N     0.00007   0.66799   0.71085   0.00000  Uiso   1.00
N1125  N     0.49992   0.83201   0.95581   0.00000  Uiso   1.00
N1126  N     0.49999   0.82986   0.71849   0.00000  Uiso   1.00
N1127  N     0.00002   0.67014   0.94818   0.00000  Uiso   1.00
N1128  N     0.25004   0.91799   0.71085   0.00000  Uiso   1.00
O1129  O     0.04509   0.70491   0.87291   0.00000  Uiso   1.00
O1130  O     0.20492   0.54509   0.79375   0.00000  Uiso   1.00
O1131  O     0.20492   0.54509   0.87291   0.00000  Uiso   1.00
O1132  O     0.29509   0.95491   0.79375   0.00000  Uiso   1.00
O1133  O     0.20492   0.95491   0.79375   0.00000  Uiso   1.00
O1134  O     0.29509   0.54509   0.87291   0.00000  Uiso   1.00
O1135  O     0.29509   0.54509   0.79375   0.00000  Uiso   1.00
O1136  O     0.20492   0.95491   0.87291   0.00000  Uiso   1.00
O1137  O     0.45492   0.79509   0.79375   0.00000  Uiso   1.00
O1138  O     0.45492   0.79509   0.87291   0.00000  Uiso   1.00
O1139  O     0.04509   0.70491   0.79375   0.00000  Uiso   1.00
O1140  O     0.45492   0.70491   0.79375   0.00000  Uiso   1.00
O1141  O     0.04509   0.79509   0.87291   0.00000  Uiso   1.00
O1142  O     0.04509   0.79509   0.79375   0.00000  Uiso   1.00
O1143  O     0.45492   0.70491   0.87291   0.00000  Uiso   1.00
O1144  O     0.29509   0.95491   0.87291   0.00000  Uiso   1.00
C1145  C     0.55940   0.69058   0.83320   0.00000  Uiso   1.00
C1146  C     0.99998   0.78921   0.97674   0.00000  Uiso   1.00
C1147  C     0.99999   0.78891   0.69269   0.00000  Uiso   1.00
C1148  C     0.50001   0.71109   0.97398   0.00000  Uiso   1.00
C1149  C     0.75001   0.96079   0.68993   0.00000  Uiso   1.00
C1150  C     0.75001   0.53921   0.97674   0.00000  Uiso   1.00
C1151  C     0.75000   0.53891   0.69269   0.00000  Uiso   1.00
C1152  C     0.74999   0.96109   0.97397   0.00000  Uiso   1.00
C1153  C     0.88828   0.64321   0.79135   0.00000  Uiso   1.00
C1154  C     0.61168   0.85683   0.87532   0.00000  Uiso   1.00
C1155  C     0.60646   0.86114   0.79150   0.00000  Uiso   1.00
C1156  C     0.94060   0.80942   0.83347   0.00000  Uiso   1.00
C1157  C     0.89358   0.63881   0.87516   0.00000  Uiso   1.00
C1158  C     0.60644   0.63883   0.87516   0.00000  Uiso   1.00
C1159  C     0.89359   0.86120   0.79151   0.00000  Uiso   1.00
C1160  C     0.88824   0.85675   0.87531   0.00000  Uiso   1.00
C1161  C     0.61174   0.64323   0.79136   0.00000  Uiso   1.00
C1162  C     0.63831   0.89318   0.79135   0.00000  Uiso   1.00
C1163  C     0.86174   0.60677   0.87531   0.00000  Uiso   1.00
C1164  C     0.85644   0.61117   0.79150   0.00000  Uiso   1.00
C1165  C     0.64352   0.88887   0.87517   0.00000  Uiso   1.00
C1166  C     0.85640   0.88879   0.87516   0.00000  Uiso   1.00
C1167  C     0.94061   0.69058   0.83320   0.00000  Uiso   1.00
C1168  C     0.64358   0.61118   0.79151   0.00000  Uiso   1.00
C1169  C     0.63828   0.60679   0.87531   0.00000  Uiso   1.00
C1170  C     0.86175   0.89324   0.79136   0.00000  Uiso   1.00
C1171  C     0.59293   0.84289   0.83350   0.00000  Uiso   1.00
C1172  C     0.90707   0.65711   0.83317   0.00000  Uiso   1.00
C1173  C     0.90706   0.84288   0.83350   0.00000  Uiso   1.00
C1174  C     0.59294   0.65712   0.83317   0.00000  Uiso   1.00
C1175  C     0.84294   0.59288   0.83350   0.00000  Uiso   1.00
C1176  C     0.65706   0.90712   0.83317   0.00000  Uiso   1.00
C1177  C     0.65707   0.59289   0.83350   0.00000  Uiso   1.00
C1178  C     0.55939   0.80942   0.83347   0.00000  Uiso   1.00
C1179  C     0.84293   0.90711   0.83317   0.00000  Uiso   1.00
C1180  C     0.80939   0.94058   0.83320   0.00000  Uiso   1.00
C1181  C     0.69061   0.55942   0.83347   0.00000  Uiso   1.00
C1182  C     0.69060   0.94058   0.83320   0.00000  Uiso   1.00
C1183  C     0.80940   0.55942   0.83347   0.00000  Uiso   1.00
C1184  C     0.50002   0.71079   0.68993   0.00000  Uiso   1.00
Cu1185 Cu    0.50000   0.75000   0.88022   0.00000  Uiso   1.00
Cu1186 Cu    0.50000   0.75000   0.78645   0.00000  Uiso   1.00
Cu1187 Cu    0.75000   0.50000   0.88022   0.00000  Uiso   1.00
Cu1188 Cu    0.75000   0.50000   0.78645   0.00000  Uiso   1.00
H1189  H     0.89794   0.65713   0.75857   0.00000  Uiso   1.00
H1190  H     0.85209   0.59284   0.90809   0.00000  Uiso   1.00
H1191  H     0.84243   0.60088   0.75874   0.00000  Uiso   1.00
H1192  H     0.65750   0.89920   0.90794   0.00000  Uiso   1.00
H1193  H     0.84237   0.89906   0.90792   0.00000  Uiso   1.00
H1194  H     0.65758   0.60089   0.75875   0.00000  Uiso   1.00
H1195  H     0.64793   0.59286   0.90810   0.00000  Uiso   1.00
H1196  H     0.85212   0.90719   0.75858   0.00000  Uiso   1.00
H1197  H     0.52801   0.66276   0.72966   0.00000  Uiso   1.00
H1198  H     0.97220   0.66273   0.72976   0.00000  Uiso   1.00
H1199  H     0.52778   0.83727   0.93689   0.00000  Uiso   1.00
H1200  H     0.60200   0.84294   0.90811   0.00000  Uiso   1.00
H1201  H     0.97198   0.83723   0.93702   0.00000  Uiso   1.00
H1202  H     0.97281   0.84801   0.70908   0.00000  Uiso   1.00
H1203  H     0.52716   0.84802   0.70908   0.00000  Uiso   1.00
H1204  H     0.97285   0.65197   0.95760   0.00000  Uiso   1.00
H1205  H     0.52721   0.65199   0.95759   0.00000  Uiso   1.00
H1206  H     0.77796   0.91276   0.72968   0.00000  Uiso   1.00
H1207  H     0.72216   0.91274   0.72974   0.00000  Uiso   1.00
H1208  H     0.77798   0.58723   0.93700   0.00000  Uiso   1.00
H1209  H     0.72218   0.58726   0.93691   0.00000  Uiso   1.00
H1210  H     0.72283   0.59802   0.70907   0.00000  Uiso   1.00
H1211  H     0.59249   0.85082   0.75873   0.00000  Uiso   1.00
H1212  H     0.77718   0.59801   0.70908   0.00000  Uiso   1.00
H1213  H     0.72280   0.90199   0.95759   0.00000  Uiso   1.00
H1214  H     0.77716   0.90198   0.95759   0.00000  Uiso   1.00
H1215  H     0.90759   0.64910   0.90792   0.00000  Uiso   1.00
H1216  H     0.59244   0.64912   0.90792   0.00000  Uiso   1.00
H1217  H     0.90762   0.85093   0.75875   0.00000  Uiso   1.00
H1218  H     0.89786   0.84279   0.90809   0.00000  Uiso   1.00
H1219  H     0.60209   0.65716   0.75857   0.00000  Uiso   1.00
H1220  H     0.64798   0.90708   0.75856   0.00000  Uiso   1.00
N1221  N     0.50000   0.75000   0.95069   0.00000  Uiso   1.00
N1222  N     0.75005   0.58201   0.95581   0.00000  Uiso   1.00
N1223  N     0.75000   0.57986   0.71849   0.00000  Uiso   1.00
N1224  N     0.74999   0.92014   0.94818   0.00000  Uiso   1.00
N1225  N     0.50000   0.75000   0.71598   0.00000  Uiso   1.00
N1226  N     0.75000   0.50000   0.95069   0.00000  Uiso   1.00
N1227  N     0.75000   0.50000   0.71598   0.00000  Uiso   1.00
N1228  N     0.50007   0.66799   0.71085   0.00000  Uiso   1.00
N1229  N     0.99992   0.83201   0.95581   0.00000  Uiso   1.00
N1230  N     0.99999   0.82986   0.71849   0.00000  Uiso   1.00
N1231  N     0.50002   0.67014   0.94818   0.00000  Uiso   1.00
N1232  N     0.75004   0.91799   0.71085   0.00000  Uiso   1.00
O1233  O     0.54509   0.70491   0.87291   0.00000  Uiso   1.00
O1234  O     0.70492   0.54509   0.79375   0.00000  Uiso   1.00
O1235  O     0.70492   0.54509   0.87291   0.00000  Uiso   1.00
O1236  O     0.79509   0.95491   0.79375   0.00000  Uiso   1.00
O1237  O     0.70492   0.95491   0.79375   0.00000  Uiso   1.00
O1238  O     0.79509   0.54509   0.87291   0.00000  Uiso   1.00
O1239  O     0.79509   0.54509   0.79375   0.00000  Uiso   1.00
O1240  O     0.70492   0.95491   0.87291   0.00000  Uiso   1.00
O1241  O     0.95492   0.79509   0.79375   0.00000  Uiso   1.00
O1242  O     0.95492   0.79509   0.87291   0.00000  Uiso   1.00
O1243  O     0.54509   0.70491   0.79375   0.00000  Uiso   1.00
O1244  O     0.95492   0.70491   0.79375   0.00000  Uiso   1.00
O1245  O     0.54509   0.79509   0.87291   0.00000  Uiso   1.00
O1246  O     0.54509   0.79509   0.79375   0.00000  Uiso   1.00
O1247  O     0.95492   0.70491   0.87291   0.00000  Uiso   1.00
O1248  O     0.79509   0.95491   0.87291   0.00000  Uiso   1.00
loop_
_geom_bond_atom_site_label_1
_geom_bond_atom_site_label_2
_geom_bond_distance
_geom_bond_site_symmetry_2
_ccdc_geom_bond_type
C1     O99     1.302   .     A
C1     O89     1.298   .     A
C1     C30     1.451   .     S
C2     N85     1.431   .     S
C2     C419    1.422   .     S
C2     N181    1.391   .     S
C3     N86     1.431   .     S
C3     C834    1.422   1_554 S
C3     N185    1.359   .     S
C4     N87     1.431   .     S
C4     N77     1.359   .     A
C4     C456    1.422   .     S
C5     N291    1.391   .     A
C5     N88     1.431   .     S
C5     C840    1.422   1_554 S
C6     N78     1.431   .     S
C6     C423    1.422   .     S
C6     N82     1.391   .     S
C7     N79     1.431   .     S
C7     C838    1.422   1_554 S
C7     N83     1.359   .     S
C8     N290    1.359   .     A
C8     N80     1.431   .     S
C8     C421    1.422   .     S
C9     H45     1.083   .     S
C9     C20     1.383   .     A
C9     C28     1.400   .     A
C10    C27     1.400   .     A
C10    H56     1.083   .     S
C10    C21     1.383   .     A
C11    C18     1.383   .     A
C11    H67     1.082   .     S
C11    C27     1.402   .     A
C12    O98     1.302   .     A
C12    O97     1.298   .     A
C12    C29     1.451   .     S
C13    C28     1.402   .     A
C13    C19     1.383   .     A
C13    H71     1.082   .     S
C14    H72     1.082   .     S
C14    C30     1.402   .     A
C14    C25     1.383   .     A
C15    C29     1.402   .     A
C15    C26     1.383   .     A
C15    H73     1.082   .     S
C16    C29     1.400   .     A
C16    C22     1.383   .     A
C16    H74     1.083   .     S
C17    C30     1.400   .     A
C17    C24     1.383   .     A
C17    H75     1.083   .     S
C18    H76     1.083   .     S
C18    C32     1.400   .     A
C19    C31     1.400   .     A
C19    H46     1.083   .     S
C20    H47     1.082   .     S
C20    C31     1.402   .     A
C21    H48     1.082   .     S
C21    C32     1.402   .     A
C22    C35     1.402   .     A
C22    H49     1.082   .     S
C23    O103    1.298   .     A
C23    O100    1.302   .     A
C23    C28     1.451   .     S
C24    H50     1.082   .     S
C24    C33     1.402   .     A
C25    H51     1.083   .     S
C25    C33     1.400   .     A
C26    H52     1.083   .     S
C26    C35     1.400   .     A
C27    C34     1.451   .     S
C31    C39     1.451   .     S
C32    C38     1.451   .     S
C33    C37     1.451   .     S
C34    O102    1.298   .     A
C34    O101    1.302   .     A
C35    C36     1.451   .     S
C36    O92     1.302   .     A
C36    O104    1.298   .     A
C37    O90     1.298   .     A
C37    O91     1.302   .     A
C38    O93     1.302   .     A
C38    O96     1.298   .     A
C39    O94     1.302   .     A
C39    O95     1.298   .     A
C40    N84     1.431   .     S
C40    N81     1.391   .     A
C40    C836    1.422   1_554 S
Cu41   O89     1.962   .     S
Cu41   N77     2.033   .     S
Cu41   O101    1.966   .     S
Cu41   Cu42    2.706   .     S
Cu41   O202    1.966   1_455 S
Cu41   O207    1.962   1_455 S
Cu42   O204    1.966   1_455 S
Cu42   O201    1.962   1_455 S
Cu42   N81     2.033   .     S
Cu42   O99     1.966   .     S
Cu42   O102    1.962   .     S
Cu43   O312    1.962   1_545 S
Cu43   Cu44    2.706   .     S
Cu43   O304    1.962   1_545 S
Cu43   N82     2.033   .     S
Cu43   O91     1.966   .     S
Cu43   O94     1.966   .     S
Cu44   N83     2.033   .     S
Cu44   O301    1.966   1_545 S
Cu44   O300    1.966   1_545 S
Cu44   O90     1.962   .     S
Cu44   O95     1.962   .     S
H53    N84     1.038   .     S
H54    N188    1.038   .     S
H55    N189    1.038   1_455 S
H57    N85     1.038   .     S
H58    N86     1.045   .     S
H59    N190    1.045   1_455 S
H60    N191    1.045   .     S
H61    N87     1.045   .     S
H62    N88     1.038   .     S
H63    N88     1.038   .     S
H64    N78     1.038   .     S
H65    N78     1.038   .     S
H66    N79     1.045   .     S
H68    N79     1.045   .     S
H69    N80     1.045   .     S
H70    N80     1.045   .     S
N77    C106    1.391   1_455 S
N81    C107    1.359   1_455 S
N82    C216    1.359   1_545 A
N83    C213    1.391   1_545 A
N84    H158    1.038   1_455 S
N85    H159    1.038   .     S
N86    H163    1.045   .     S
N87    H164    1.045   1_455 S
O92    Cu252   1.966   .     S
O93    Cu252   1.966   .     S
O96    Cu251   1.962   .     S
O97    Cu146   1.962   .     S
O98    Cu145   1.966   .     S
O100   Cu146   1.966   .     S
O103   Cu145   1.962   .     S
O104   Cu251   1.962   .     S
C105   O203    1.302   .     A
C105   O193    1.298   .     A
C105   C134    1.451   .     S
C106   N189    1.431   .     S
C106   C523    1.422   .     S
C106   N77     1.391   1_655 S
C107   N190    1.431   .     S
C107   C938    1.422   1_554 S
C107   N81     1.359   1_655 S
C108   N191    1.431   .     S
C108   N181    1.359   .     A
C108   C560    1.422   .     S
C109   N395    1.391   .     A
C109   N192    1.431   .     S
C109   C944    1.422   1_554 S
C110   N182    1.431   .     S
C110   C527    1.422   .     S
C110   N186    1.391   .     S
C111   N183    1.431   .     S
C111   C942    1.422   1_554 S
C111   N187    1.359   .     S
C112   N394    1.359   .     A
C112   N184    1.431   .     S
C112   C525    1.422   .     S
C113   H149    1.083   .     S
C113   C124    1.383   .     A
C113   C132    1.400   .     A
C114   C131    1.400   .     A
C114   H160    1.083   .     S
C114   C125    1.383   .     A
C115   C122    1.383   .     A
C115   H171    1.082   .     S
C115   C131    1.402   .     A
C116   O202    1.302   .     A
C116   O201    1.298   .     A
C116   C133    1.451   .     S
C117   C132    1.402   .     A
C117   C123    1.383   .     A
C117   H175    1.082   .     S
C118   H176    1.082   .     S
C118   C134    1.402   .     A
C118   C129    1.383   .     A
C119   C133    1.402   .     A
C119   C130    1.383   .     A
C119   H177    1.082   .     S
C120   C133    1.400   .     A
C120   C126    1.383   .     A
C120   H178    1.083   .     S
C121   C134    1.400   .     A
C121   C128    1.383   .     A
C121   H179    1.083   .     S
C122   H180    1.083   .     S
C122   C136    1.400   .     A
C123   C135    1.400   .     A
C123   H150    1.083   .     S
C124   H151    1.082   .     S
C124   C135    1.402   .     A
C125   H152    1.082   .     S
C125   C136    1.402   .     A
C126   C139    1.402   .     A
C126   H153    1.082   .     S
C127   O207    1.298   .     A
C127   O204    1.302   .     A
C127   C132    1.451   .     S
C128   H154    1.082   .     S
C128   C137    1.402   .     A
C129   H155    1.083   .     S
C129   C137    1.400   .     A
C130   H156    1.083   .     S
C130   C139    1.400   .     A
C131   C138    1.451   .     S
C135   C143    1.451   .     S
C136   C142    1.451   .     S
C137   C141    1.451   .     S
C138   O206    1.298   .     A
C138   O205    1.302   .     A
C139   C140    1.451   .     S
C140   O196    1.302   .     A
C140   O208    1.298   .     A
C141   O194    1.298   .     A
C141   O195    1.302   .     A
C142   O197    1.302   .     A
C142   O200    1.298   .     A
C143   O198    1.302   .     A
C143   O199    1.298   .     A
C144   N188    1.431   .     S
C144   N185    1.391   .     A
C144   C940    1.422   1_554 S
Cu145  O193    1.962   .     S
Cu145  N181    2.033   .     S
Cu145  O205    1.966   .     S
Cu145  Cu146   2.706   .     S
Cu146  N185    2.033   .     S
Cu146  O203    1.966   .     S
Cu146  O206    1.962   .     S
Cu147  O416    1.962   1_545 S
Cu147  Cu148   2.706   .     S
Cu147  O408    1.962   1_545 S
Cu147  N186    2.033   .     S
Cu147  O195    1.966   .     S
Cu147  O198    1.966   .     S
Cu148  N187    2.033   .     S
Cu148  O405    1.966   1_545 S
Cu148  O404    1.966   1_545 S
Cu148  O194    1.962   .     S
Cu148  O199    1.962   .     S
H157   N188    1.038   .     S
H158   N84     1.038   1_655 S
H161   N189    1.038   .     S
H162   N190    1.045   .     S
H164   N87     1.045   1_655 S
H165   N191    1.045   .     S
H166   N192    1.038   .     S
H167   N192    1.038   .     S
H168   N182    1.038   .     S
H169   N182    1.038   .     S
H170   N183    1.045   .     S
H172   N183    1.045   .     S
H173   N184    1.045   .     S
H174   N184    1.045   .     S
N186   C320    1.359   1_545 A
N187   C317    1.391   1_545 A
N189   H55     1.038   1_655 S
N190   H59     1.045   1_655 S
O196   Cu356   1.966   .     S
O197   Cu356   1.966   .     S
O200   Cu355   1.962   .     S
O201   Cu42    1.962   1_655 S
O202   Cu41    1.966   1_655 S
O204   Cu42    1.966   1_655 S
O207   Cu41    1.962   1_655 S
O208   Cu355   1.962   .     S
C209   O307    1.302   .     A
C209   O297    1.298   .     A
C209   C238    1.451   .     S
C210   N293    1.431   .     S
C210   C627    1.422   .     S
C210   N389    1.391   .     S
C211   N294    1.431   .     S
C211   C1042   1.422   1_554 S
C211   N393    1.359   .     S
C212   N295    1.431   .     S
C212   N285    1.359   .     A
C212   C664    1.422   .     S
C213   N83     1.391   1_565 A
C213   N296    1.431   .     S
C213   C1048   1.422   1_554 S
C214   N286    1.431   .     S
C214   C631    1.422   .     S
C214   N290    1.391   .     S
C215   N287    1.431   .     S
C215   C1046   1.422   1_554 S
C215   N291    1.359   .     S
C216   N82     1.359   1_565 A
C216   N288    1.431   .     S
C216   C629    1.422   .     S
C217   H253    1.083   .     S
C217   C228    1.383   .     A
C217   C236    1.400   .     A
C218   C235    1.400   .     A
C218   H264    1.083   .     S
C218   C229    1.383   .     A
C219   C226    1.383   .     A
C219   H275    1.082   .     S
C219   C235    1.402   .     A
C220   O306    1.302   .     A
C220   O305    1.298   .     A
C220   C237    1.451   .     S
C221   C236    1.402   .     A
C221   C227    1.383   .     A
C221   H279    1.082   .     S
C222   H280    1.082   .     S
C222   C238    1.402   .     A
C222   C233    1.383   .     A
C223   C237    1.402   .     A
C223   C234    1.383   .     A
C223   H281    1.082   .     S
C224   C237    1.400   .     A
C224   C230    1.383   .     A
C224   H282    1.083   .     S
C225   C238    1.400   .     A
C225   C232    1.383   .     A
C225   H283    1.083   .     S
C226   H284    1.083   .     S
C226   C240    1.400   .     A
C227   C239    1.400   .     A
C227   H254    1.083   .     S
C228   H255    1.082   .     S
C228   C239    1.402   .     A
C229   H256    1.082   .     S
C229   C240    1.402   .     A
C230   C243    1.402   .     A
C230   H257    1.082   .     S
C231   O311    1.298   .     A
C231   O308    1.302   .     A
C231   C236    1.451   .     S
C232   H258    1.082   .     S
C232   C241    1.402   .     A
C233   H259    1.083   .     S
C233   C241    1.400   .     A
C234   H260    1.083   .     S
C234   C243    1.400   .     A
C235   C242    1.451   .     S
C239   C247    1.451   .     S
C240   C246    1.451   .     S
C241   C245    1.451   .     S
C242   O310    1.298   .     A
C242   O309    1.302   .     A
C243   C244    1.451   .     S
C244   O300    1.302   .     A
C244   O312    1.298   .     A
C245   O298    1.298   .     A
C245   O299    1.302   .     A
C246   O301    1.302   .     A
C246   O304    1.298   .     A
C247   O302    1.302   .     A
C247   O303    1.298   .     A
C248   N292    1.431   .     S
C248   N289    1.391   .     A
C248   C1044   1.422   1_554 S
Cu249  O297    1.962   .     S
Cu249  N285    2.033   .     S
Cu249  O309    1.966   .     S
Cu249  Cu250   2.706   .     S
Cu249  O410    1.966   1_455 S
Cu249  O415    1.962   1_455 S
Cu250  O412    1.966   1_455 S
Cu250  O409    1.962   1_455 S
Cu250  N289    2.033   .     S
Cu250  O307    1.966   .     S
Cu250  O310    1.962   .     S
Cu251  Cu252   2.706   .     S
Cu251  N290    2.033   .     S
Cu251  O299    1.966   .     S
Cu251  O302    1.966   .     S
Cu252  N291    2.033   .     S
Cu252  O298    1.962   .     S
Cu252  O303    1.962   .     S
H261   N292    1.038   .     S
H262   N396    1.038   .     S
H263   N397    1.038   1_455 S
H265   N293    1.038   .     S
H266   N294    1.045   .     S
H267   N398    1.045   1_455 S
H268   N399    1.045   .     S
H269   N295    1.045   .     S
H270   N296    1.038   .     S
H271   N296    1.038   .     S
H272   N286    1.038   .     S
H273   N286    1.038   .     S
H274   N287    1.045   .     S
H276   N287    1.045   .     S
H277   N288    1.045   .     S
H278   N288    1.045   .     S
N285   C314    1.391   1_455 S
N289   C315    1.359   1_455 S
N292   H366    1.038   1_455 S
N293   H367    1.038   .     S
N294   H371    1.045   .     S
N295   H372    1.045   1_455 S
O300   Cu44    1.966   1_565 S
O301   Cu44    1.966   1_565 S
O304   Cu43    1.962   1_565 S
O305   Cu354   1.962   .     S
O306   Cu353   1.966   .     S
O308   Cu354   1.966   .     S
O311   Cu353   1.962   .     S
O312   Cu43    1.962   1_565 S
C313   O411    1.302   .     A
C313   O401    1.298   .     A
C313   C342    1.451   .     S
C314   N397    1.431   .     S
C314   C731    1.422   .     S
C314   N285    1.391   1_655 S
C315   N398    1.431   .     S
C315   C1146   1.422   1_554 S
C315   N289    1.359   1_655 S
C316   N399    1.431   .     S
C316   N389    1.359   .     A
C316   C768    1.422   .     S
C317   N187    1.391   1_565 A
C317   N400    1.431   .     S
C317   C1152   1.422   1_554 S
C318   N390    1.431   .     S
C318   C735    1.422   .     S
C318   N394    1.391   .     S
C319   N391    1.431   .     S
C319   C1150   1.422   1_554 S
C319   N395    1.359   .     S
C320   N186    1.359   1_565 A
C320   N392    1.431   .     S
C320   C733    1.422   .     S
C321   H357    1.083   .     S
C321   C332    1.383   .     A
C321   C340    1.400   .     A
C322   C339    1.400   .     A
C322   H368    1.083   .     S
C322   C333    1.383   .     A
C323   C330    1.383   .     A
C323   H379    1.082   .     S
C323   C339    1.402   .     A
C324   O410    1.302   .     A
C324   O409    1.298   .     A
C324   C341    1.451   .     S
C325   C340    1.402   .     A
C325   C331    1.383   .     A
C325   H383    1.082   .     S
C326   H384    1.082   .     S
C326   C342    1.402   .     A
C326   C337    1.383   .     A
C327   C341    1.402   .     A
C327   C338    1.383   .     A
C327   H385    1.082   .     S
C328   C341    1.400   .     A
C328   C334    1.383   .     A
C328   H386    1.083   .     S
C329   C342    1.400   .     A
C329   C336    1.383   .     A
C329   H387    1.083   .     S
C330   H388    1.083   .     S
C330   C344    1.400   .     A
C331   C343    1.400   .     A
C331   H358    1.083   .     S
C332   H359    1.082   .     S
C332   C343    1.402   .     A
C333   H360    1.082   .     S
C333   C344    1.402   .     A
C334   C347    1.402   .     A
C334   H361    1.082   .     S
C335   O415    1.298   .     A
C335   O412    1.302   .     A
C335   C340    1.451   .     S
C336   H362    1.082   .     S
C336   C345    1.402   .     A
C337   H363    1.083   .     S
C337   C345    1.400   .     A
C338   H364    1.083   .     S
C338   C347    1.400   .     A
C339   C346    1.451   .     S
C343   C351    1.451   .     S
C344   C350    1.451   .     S
C345   C349    1.451   .     S
C346   O414    1.298   .     A
C346   O413    1.302   .     A
C347   C348    1.451   .     S
C348   O404    1.302   .     A
C348   O416    1.298   .     A
C349   O402    1.298   .     A
C349   O403    1.302   .     A
C350   O405    1.302   .     A
C350   O408    1.298   .     A
C351   O406    1.302   .     A
C351   O407    1.298   .     A
C352   N396    1.431   .     S
C352   N393    1.391   .     A
C352   C1148   1.422   1_554 S
Cu353  O401    1.962   .     S
Cu353  N389    2.033   .     S
Cu353  O413    1.966   .     S
Cu353  Cu354   2.706   .     S
Cu354  N393    2.033   .     S
Cu354  O411    1.966   .     S
Cu354  O414    1.962   .     S
Cu355  Cu356   2.706   .     S
Cu355  N394    2.033   .     S
Cu355  O403    1.966   .     S
Cu355  O406    1.966   .     S
Cu356  N395    2.033   .     S
Cu356  O402    1.962   .     S
Cu356  O407    1.962   .     S
H365   N396    1.038   .     S
H366   N292    1.038   1_655 S
H369   N397    1.038   .     S
H370   N398    1.045   .     S
H372   N295    1.045   1_655 S
H373   N399    1.045   .     S
H374   N400    1.038   .     S
H375   N400    1.038   .     S
H376   N390    1.038   .     S
H377   N390    1.038   .     S
H378   N391    1.045   .     S
H380   N391    1.045   .     S
H381   N392    1.045   .     S
H382   N392    1.045   .     S
N397   H263    1.038   1_655 S
N398   H267    1.045   1_655 S
O404   Cu148   1.966   1_565 S
O405   Cu148   1.966   1_565 S
O408   Cu147   1.962   1_565 S
O409   Cu250   1.962   1_655 S
O410   Cu249   1.966   1_655 S
O412   Cu250   1.966   1_655 S
O415   Cu249   1.962   1_655 S
O416   Cu147   1.962   1_565 S
C417   O515    1.302   .     A
C417   O505    1.298   .     A
C417   C446    1.451   .     S
C418   N501    1.431   .     S
C418   C835    1.422   .     S
C418   N597    1.391   .     S
C419   N502    1.431   .     S
C419   N601    1.359   .     S
C420   N503    1.431   .     S
C420   N493    1.359   .     A
C420   C872    1.422   .     S
C421   N707    1.391   .     A
C421   N504    1.431   .     S
C422   N494    1.431   .     S
C422   C839    1.422   .     S
C422   N498    1.391   .     S
C423   N495    1.431   .     S
C423   N499    1.359   .     S
C424   N706    1.359   .     A
C424   N496    1.431   .     S
C424   C837    1.422   .     S
C425   H461    1.083   .     S
C425   C436    1.383   .     A
C425   C444    1.400   .     A
C426   C443    1.400   .     A
C426   H472    1.083   .     S
C426   C437    1.383   .     A
C427   C434    1.383   .     A
C427   H483    1.082   .     S
C427   C443    1.402   .     A
C428   O514    1.302   .     A
C428   O513    1.298   .     A
C428   C445    1.451   .     S
C429   C444    1.402   .     A
C429   C435    1.383   .     A
C429   H487    1.082   .     S
C430   H488    1.082   .     S
C430   C446    1.402   .     A
C430   C441    1.383   .     A
C431   C445    1.402   .     A
C431   C442    1.383   .     A
C431   H489    1.082   .     S
C432   C445    1.400   .     A
C432   C438    1.383   .     A
C432   H490    1.083   .     S
C433   C446    1.400   .     A
C433   C440    1.383   .     A
C433   H491    1.083   .     S
C434   H492    1.083   .     S
C434   C448    1.400   .     A
C435   C447    1.400   .     A
C435   H462    1.083   .     S
C436   H463    1.082   .     S
C436   C447    1.402   .     A
C437   H464    1.082   .     S
C437   C448    1.402   .     A
C438   C451    1.402   .     A
C438   H465    1.082   .     S
C439   O519    1.298   .     A
C439   O516    1.302   .     A
C439   C444    1.451   .     S
C440   H466    1.082   .     S
C440   C449    1.402   .     A
C441   H467    1.083   .     S
C441   C449    1.400   .     A
C442   H468    1.083   .     S
C442   C451    1.400   .     A
C443   C450    1.451   .     S
C447   C455    1.451   .     S
C448   C454    1.451   .     S
C449   C453    1.451   .     S
C450   O518    1.298   .     A
C450   O517    1.302   .     A
C451   C452    1.451   .     S
C452   O508    1.302   .     A
C452   O520    1.298   .     A
C453   O506    1.298   .     A
C453   O507    1.302   .     A
C454   O509    1.302   .     A
C454   O512    1.298   .     A
C455   O510    1.302   .     A
C455   O511    1.298   .     A
C456   N500    1.431   .     S
C456   N497    1.391   .     A
Cu457  O505    1.962   .     S
Cu457  N493    2.033   .     S
Cu457  O517    1.966   .     S
Cu457  Cu458   2.706   .     S
Cu457  O618    1.966   1_455 S
Cu457  O623    1.962   1_455 S
Cu458  O620    1.966   1_455 S
Cu458  O617    1.962   1_455 S
Cu458  N497    2.033   .     S
Cu458  O515    1.966   .     S
Cu458  O518    1.962   .     S
Cu459  O728    1.962   1_545 S
Cu459  Cu460   2.706   .     S
Cu459  O720    1.962   1_545 S
Cu459  N498    2.033   .     S
Cu459  O507    1.966   .     S
Cu459  O510    1.966   .     S
Cu460  N499    2.033   .     S
Cu460  O717    1.966   1_545 S
Cu460  O716    1.966   1_545 S
Cu460  O506    1.962   .     S
Cu460  O511    1.962   .     S
H469   N500    1.038   .     S
H470   N604    1.038   .     S
H471   N605    1.038   1_455 S
H473   N501    1.038   .     S
H474   N502    1.045   .     S
H475   N606    1.045   1_455 S
H476   N607    1.045   .     S
H477   N503    1.045   .     S
H478   N504    1.038   .     S
H479   N504    1.038   .     S
H480   N494    1.038   .     S
H481   N494    1.038   .     S
H482   N495    1.045   .     S
H484   N495    1.045   .     S
H485   N496    1.045   .     S
H486   N496    1.045   .     S
N493   C522    1.391   1_455 S
N497   C523    1.359   1_455 S
N498   C632    1.359   1_545 A
N499   C629    1.391   1_545 A
N500   H574    1.038   1_455 S
N501   H575    1.038   .     S
N502   H579    1.045   .     S
N503   H580    1.045   1_455 S
O508   Cu668   1.966   .     S
O509   Cu668   1.966   .     S
O512   Cu667   1.962   .     S
O513   Cu562   1.962   .     S
O514   Cu561   1.966   .     S
O516   Cu562   1.966   .     S
O519   Cu561   1.962   .     S
O520   Cu667   1.962   .     S
C521   O619    1.302   .     A
C521   O609    1.298   .     A
C521   C550    1.451   .     S
C522   N605    1.431   .     S
C522   C939    1.422   .     S
C522   N493    1.391   1_655 S
C523   N606    1.431   .     S
C523   N497    1.359   1_655 S
C524   N607    1.431   .     S
C524   N597    1.359   .     A
C524   C976    1.422   .     S
C525   N811    1.391   .     A
C525   N608    1.431   .     S
C526   N598    1.431   .     S
C526   C943    1.422   .     S
C526   N602    1.391   .     S
C527   N599    1.431   .     S
C527   N603    1.359   .     S
C528   N810    1.359   .     A
C528   N600    1.431   .     S
C528   C941    1.422   .     S
C529   H565    1.083   .     S
C529   C540    1.383   .     A
C529   C548    1.400   .     A
C530   C547    1.400   .     A
C530   H576    1.083   .     S
C530   C541    1.383   .     A
C531   C538    1.383   .     A
C531   H587    1.082   .     S
C531   C547    1.402   .     A
C532   O618    1.302   .     A
C532   O617    1.298   .     A
C532   C549    1.451   .     S
C533   C548    1.402   .     A
C533   C539    1.383   .     A
C533   H591    1.082   .     S
C534   H592    1.082   .     S
C534   C550    1.402   .     A
C534   C545    1.383   .     A
C535   C549    1.402   .     A
C535   C546    1.383   .     A
C535   H593    1.082   .     S
C536   C549    1.400   .     A
C536   C542    1.383   .     A
C536   H594    1.083   .     S
C537   C550    1.400   .     A
C537   C544    1.383   .     A
C537   H595    1.083   .     S
C538   H596    1.083   .     S
C538   C552    1.400   .     A
C539   C551    1.400   .     A
C539   H566    1.083   .     S
C540   H567    1.082   .     S
C540   C551    1.402   .     A
C541   H568    1.082   .     S
C541   C552    1.402   .     A
C542   C555    1.402   .     A
C542   H569    1.082   .     S
C543   O623    1.298   .     A
C543   O620    1.302   .     A
C543   C548    1.451   .     S
C544   H570    1.082   .     S
C544   C553    1.402   .     A
C545   H571    1.083   .     S
C545   C553    1.400   .     A
C546   H572    1.083   .     S
C546   C555    1.400   .     A
C547   C554    1.451   .     S
C551   C559    1.451   .     S
C552   C558    1.451   .     S
C553   C557    1.451   .     S
C554   O622    1.298   .     A
C554   O621    1.302   .     A
C555   C556    1.451   .     S
C556   O612    1.302   .     A
C556   O624    1.298   .     A
C557   O610    1.298   .     A
C557   O611    1.302   .     A
C558   O613    1.302   .     A
C558   O616    1.298   .     A
C559   O614    1.302   .     A
C559   O615    1.298   .     A
C560   N604    1.431   .     S
C560   N601    1.391   .     A
Cu561  O609    1.962   .     S
Cu561  N597    2.033   .     S
Cu561  O621    1.966   .     S
Cu561  Cu562   2.706   .     S
Cu562  N601    2.033   .     S
Cu562  O619    1.966   .     S
Cu562  O622    1.962   .     S
Cu563  O832    1.962   1_545 S
Cu563  Cu564   2.706   .     S
Cu563  O824    1.962   1_545 S
Cu563  N602    2.033   .     S
Cu563  O611    1.966   .     S
Cu563  O614    1.966   .     S
Cu564  N603    2.033   .     S
Cu564  O821    1.966   1_545 S
Cu564  O820    1.966   1_545 S
Cu564  O610    1.962   .     S
Cu564  O615    1.962   .     S
H573   N604    1.038   .     S
H574   N500    1.038   1_655 S
H577   N605    1.038   .     S
H578   N606    1.045   .     S
H580   N503    1.045   1_655 S
H581   N607    1.045   .     S
H582   N608    1.038   .     S
H583   N608    1.038   .     S
H584   N598    1.038   .     S
H585   N598    1.038   .     S
H586   N599    1.045   .     S
H588   N599    1.045   .     S
H589   N600    1.045   .     S
H590   N600    1.045   .     S
N602   C736    1.359   1_545 A
N603   C733    1.391   1_545 A
N605   H471    1.038   1_655 S
N606   H475    1.045   1_655 S
O612   Cu772   1.966   .     S
O613   Cu772   1.966   .     S
O616   Cu771   1.962   .     S
O617   Cu458   1.962   1_655 S
O618   Cu457   1.966   1_655 S
O620   Cu458   1.966   1_655 S
O623   Cu457   1.962   1_655 S
O624   Cu771   1.962   .     S
C625   O723    1.302   .     A
C625   O713    1.298   .     A
C625   C654    1.451   .     S
C626   N709    1.431   .     S
C626   C1043   1.422   .     S
C626   N805    1.391   .     S
C627   N710    1.431   .     S
C627   N809    1.359   .     S
C628   N711    1.431   .     S
C628   N701    1.359   .     A
C628   C1080   1.422   .     S
C629   N499    1.391   1_565 A
C629   N712    1.431   .     S
C630   N702    1.431   .     S
C630   C1047   1.422   .     S
C630   N706    1.391   .     S
C631   N703    1.431   .     S
C631   N707    1.359   .     S
C632   N498    1.359   1_565 A
C632   N704    1.431   .     S
C632   C1045   1.422   .     S
C633   H669    1.083   .     S
C633   C644    1.383   .     A
C633   C652    1.400   .     A
C634   C651    1.400   .     A
C634   H680    1.083   .     S
C634   C645    1.383   .     A
C635   C642    1.383   .     A
C635   H691    1.082   .     S
C635   C651    1.402   .     A
C636   O722    1.302   .     A
C636   O721    1.298   .     A
C636   C653    1.451   .     S
C637   C652    1.402   .     A
C637   C643    1.383   .     A
C637   H695    1.082   .     S
C638   H696    1.082   .     S
C638   C654    1.402   .     A
C638   C649    1.383   .     A
C639   C653    1.402   .     A
C639   C650    1.383   .     A
C639   H697    1.082   .     S
C640   C653    1.400   .     A
C640   C646    1.383   .     A
C640   H698    1.083   .     S
C641   C654    1.400   .     A
C641   C648    1.383   .     A
C641   H699    1.083   .     S
C642   H700    1.083   .     S
C642   C656    1.400   .     A
C643   C655    1.400   .     A
C643   H670    1.083   .     S
C644   H671    1.082   .     S
C644   C655    1.402   .     A
C645   H672    1.082   .     S
C645   C656    1.402   .     A
C646   C659    1.402   .     A
C646   H673    1.082   .     S
C647   O727    1.298   .     A
C647   O724    1.302   .     A
C647   C652    1.451   .     S
C648   H674    1.082   .     S
C648   C657    1.402   .     A
C649   H675    1.083   .     S
C649   C657    1.400   .     A
C650   H676    1.083   .     S
C650   C659    1.400   .     A
C651   C658    1.451   .     S
C655   C663    1.451   .     S
C656   C662    1.451   .     S
C657   C661    1.451   .     S
C658   O726    1.298   .     A
C658   O725    1.302   .     A
C659   C660    1.451   .     S
C660   O716    1.302   .     A
C660   O728    1.298   .     A
C661   O714    1.298   .     A
C661   O715    1.302   .     A
C662   O717    1.302   .     A
C662   O720    1.298   .     A
C663   O718    1.302   .     A
C663   O719    1.298   .     A
C664   N708    1.431   .     S
C664   N705    1.391   .     A
Cu665  O713    1.962   .     S
Cu665  N701    2.033   .     S
Cu665  O725    1.966   .     S
Cu665  Cu666   2.706   .     S
Cu665  O826    1.966   1_455 S
Cu665  O831    1.962   1_455 S
Cu666  O828    1.966   1_455 S
Cu666  O825    1.962   1_455 S
Cu666  N705    2.033   .     S
Cu666  O723    1.966   .     S
Cu666  O726    1.962   .     S
Cu667  Cu668   2.706   .     S
Cu667  N706    2.033   .     S
Cu667  O715    1.966   .     S
Cu667  O718    1.966   .     S
Cu668  N707    2.033   .     S
Cu668  O714    1.962   .     S
Cu668  O719    1.962   .     S
H677   N708    1.038   .     S
H678   N812    1.038   .     S
H679   N813    1.038   1_455 S
H681   N709    1.038   .     S
H682   N710    1.045   .     S
H683   N814    1.045   1_455 S
H684   N815    1.045   .     S
H685   N711    1.045   .     S
H686   N712    1.038   .     S
H687   N712    1.038   .     S
H688   N702    1.038   .     S
H689   N702    1.038   .     S
H690   N703    1.045   .     S
H692   N703    1.045   .     S
H693   N704    1.045   .     S
H694   N704    1.045   .     S
N701   C730    1.391   1_455 S
N705   C731    1.359   1_455 S
N708   H782    1.038   1_455 S
N709   H783    1.038   .     S
N710   H787    1.045   .     S
N711   H788    1.045   1_455 S
O716   Cu460   1.966   1_565 S
O717   Cu460   1.966   1_565 S
O720   Cu459   1.962   1_565 S
O721   Cu770   1.962   .     S
O722   Cu769   1.966   .     S
O724   Cu770   1.966   .     S
O727   Cu769   1.962   .     S
O728   Cu459   1.962   1_565 S
C729   O827    1.302   .     A
C729   O817    1.298   .     A
C729   C758    1.451   .     S
C730   N813    1.431   .     S
C730   C1147   1.422   .     S
C730   N701    1.391   1_655 S
C731   N814    1.431   .     S
C731   N705    1.359   1_655 S
C732   N815    1.431   .     S
C732   N805    1.359   .     A
C732   C1184   1.422   .     S
C733   N603    1.391   1_565 A
C733   N816    1.431   .     S
C734   N806    1.431   .     S
C734   C1151   1.422   .     S
C734   N810    1.391   .     S
C735   N807    1.431   .     S
C735   N811    1.359   .     S
C736   N602    1.359   1_565 A
C736   N808    1.431   .     S
C736   C1149   1.422   .     S
C737   H773    1.083   .     S
C737   C748    1.383   .     A
C737   C756    1.400   .     A
C738   C755    1.400   .     A
C738   H784    1.083   .     S
C738   C749    1.383   .     A
C739   C746    1.383   .     A
C739   H795    1.082   .     S
C739   C755    1.402   .     A
C740   O826    1.302   .     A
C740   O825    1.298   .     A
C740   C757    1.451   .     S
C741   C756    1.402   .     A
C741   C747    1.383   .     A
C741   H799    1.082   .     S
C742   H800    1.082   .     S
C742   C758    1.402   .     A
C742   C753    1.383   .     A
C743   C757    1.402   .     A
C743   C754    1.383   .     A
C743   H801    1.082   .     S
C744   C757    1.400   .     A
C744   C750    1.383   .     A
C744   H802    1.083   .     S
C745   C758    1.400   .     A
C745   C752    1.383   .     A
C745   H803    1.083   .     S
C746   H804    1.083   .     S
C746   C760    1.400   .     A
C747   C759    1.400   .     A
C747   H774    1.083   .     S
C748   H775    1.082   .     S
C748   C759    1.402   .     A
C749   H776    1.082   .     S
C749   C760    1.402   .     A
C750   C763    1.402   .     A
C750   H777    1.082   .     S
C751   O831    1.298   .     A
C751   O828    1.302   .     A
C751   C756    1.451   .     S
C752   H778    1.082   .     S
C752   C761    1.402   .     A
C753   H779    1.083   .     S
C753   C761    1.400   .     A
C754   H780    1.083   .     S
C754   C763    1.400   .     A
C755   C762    1.451   .     S
C759   C767    1.451   .     S
C760   C766    1.451   .     S
C761   C765    1.451   .     S
C762   O830    1.298   .     A
C762   O829    1.302   .     A
C763   C764    1.451   .     S
C764   O820    1.302   .     A
C764   O832    1.298   .     A
C765   O818    1.298   .     A
C765   O819    1.302   .     A
C766   O821    1.302   .     A
C766   O824    1.298   .     A
C767   O822    1.302   .     A
C767   O823    1.298   .     A
C768   N812    1.431   .     S
C768   N809    1.391   .     A
Cu769  O817    1.962   .     S
Cu769  N805    2.033   .     S
Cu769  O829    1.966   .     S
Cu769  Cu770   2.706   .     S
Cu770  N809    2.033   .     S
Cu770  O827    1.966   .     S
Cu770  O830    1.962   .     S
Cu771  Cu772   2.706   .     S
Cu771  N810    2.033   .     S
Cu771  O819    1.966   .     S
Cu771  O822    1.966   .     S
Cu772  N811    2.033   .     S
Cu772  O818    1.962   .     S
Cu772  O823    1.962   .     S
H781   N812    1.038   .     S
H782   N708    1.038   1_655 S
H785   N813    1.038   .     S
H786   N814    1.045   .     S
H788   N711    1.045   1_655 S
H789   N815    1.045   .     S
H790   N816    1.038   .     S
H791   N816    1.038   .     S
H792   N806    1.038   .     S
H793   N806    1.038   .     S
H794   N807    1.045   .     S
H796   N807    1.045   .     S
H797   N808    1.045   .     S
H798   N808    1.045   .     S
N813   H679    1.038   1_655 S
N814   H683    1.045   1_655 S
O820   Cu564   1.966   1_565 S
O821   Cu564   1.966   1_565 S
O824   Cu563   1.962   1_565 S
O825   Cu666   1.962   1_655 S
O826   Cu665   1.966   1_655 S
O828   Cu666   1.966   1_655 S
O831   Cu665   1.962   1_655 S
O832   Cu563   1.962   1_565 S
C833   O931    1.302   .     A
C833   O921    1.298   .     A
C833   C862    1.451   .     S
C834   N917    1.431   .     S
C834   C3      1.422   1_556 S
C834   N1013   1.391   .     S
C835   N918    1.431   .     S
C835   N1017   1.359   .     S
C836   N919    1.431   .     S
C836   N909    1.359   .     A
C836   C40     1.422   1_556 S
C837   N1123   1.391   .     A
C837   N920    1.431   .     S
C838   N910    1.431   .     S
C838   C7      1.422   1_556 S
C838   N914    1.391   .     S
C839   N911    1.431   .     S
C839   N915    1.359   .     S
C840   N1122   1.359   .     A
C840   N912    1.431   .     S
C840   C5      1.422   1_556 S
C841   H877    1.083   .     S
C841   C852    1.383   .     A
C841   C860    1.400   .     A
C842   C859    1.400   .     A
C842   H888    1.083   .     S
C842   C853    1.383   .     A
C843   C850    1.383   .     A
C843   H899    1.082   .     S
C843   C859    1.402   .     A
C844   O930    1.302   .     A
C844   O929    1.298   .     A
C844   C861    1.451   .     S
C845   C860    1.402   .     A
C845   C851    1.383   .     A
C845   H903    1.082   .     S
C846   H904    1.082   .     S
C846   C862    1.402   .     A
C846   C857    1.383   .     A
C847   C861    1.402   .     A
C847   C858    1.383   .     A
C847   H905    1.082   .     S
C848   C861    1.400   .     A
C848   C854    1.383   .     A
C848   H906    1.083   .     S
C849   C862    1.400   .     A
C849   C856    1.383   .     A
C849   H907    1.083   .     S
C850   H908    1.083   .     S
C850   C864    1.400   .     A
C851   C863    1.400   .     A
C851   H878    1.083   .     S
C852   H879    1.082   .     S
C852   C863    1.402   .     A
C853   H880    1.082   .     S
C853   C864    1.402   .     A
C854   C867    1.402   .     A
C854   H881    1.082   .     S
C855   O935    1.298   .     A
C855   O932    1.302   .     A
C855   C860    1.451   .     S
C856   H882    1.082   .     S
C856   C865    1.402   .     A
C857   H883    1.083   .     S
C857   C865    1.400   .     A
C858   H884    1.083   .     S
C858   C867    1.400   .     A
C859   C866    1.451   .     S
C863   C871    1.451   .     S
C864   C870    1.451   .     S
C865   C869    1.451   .     S
C866   O934    1.298   .     A
C866   O933    1.302   .     A
C867   C868    1.451   .     S
C868   O924    1.302   .     A
C868   O936    1.298   .     A
C869   O922    1.298   .     A
C869   O923    1.302   .     A
C870   O925    1.302   .     A
C870   O928    1.298   .     A
C871   O926    1.302   .     A
C871   O927    1.298   .     A
C872   N916    1.431   .     S
C872   N913    1.391   .     A
Cu873  O921    1.962   .     S
Cu873  N909    2.033   .     S
Cu873  O933    1.966   .     S
Cu873  Cu874   2.706   .     S
Cu873  O1034   1.966   1_455 S
Cu873  O1039   1.962   1_455 S
Cu874  O1036   1.966   1_455 S
Cu874  O1033   1.962   1_455 S
Cu874  N913    2.033   .     S
Cu874  O931    1.966   .     S
Cu874  O934    1.962   .     S
Cu875  O1144   1.962   1_545 S
Cu875  Cu876   2.706   .     S
Cu875  O1136   1.962   1_545 S
Cu875  N914    2.033   .     S
Cu875  O923    1.966   .     S
Cu875  O926    1.966   .     S
Cu876  N915    2.033   .     S
Cu876  O1133   1.966   1_545 S
Cu876  O1132   1.966   1_545 S
Cu876  O922    1.962   .     S
Cu876  O927    1.962   .     S
H885   N916    1.038   .     S
H886   N1020   1.038   .     S
H887   N1021   1.038   1_455 S
H889   N917    1.038   .     S
H890   N918    1.045   .     S
H891   N1022   1.045   1_455 S
H892   N1023   1.045   .     S
H893   N919    1.045   .     S
H894   N920    1.038   .     S
H895   N920    1.038   .     S
H896   N910    1.038   .     S
H897   N910    1.038   .     S
H898   N911    1.045   .     S
H900   N911    1.045   .     S
H901   N912    1.045   .     S
H902   N912    1.045   .     S
N909   C938    1.391   1_455 S
N913   C939    1.359   1_455 S
N914   C1048   1.359   1_545 A
N915   C1045   1.391   1_545 A
N916   H990    1.038   1_455 S
N917   H991    1.038   .     S
N918   H995    1.045   .     S
N919   H996    1.045   1_455 S
O924   Cu1084  1.966   .     S
O925   Cu1084  1.966   .     S
O928   Cu1083  1.962   .     S
O929   Cu978   1.962   .     S
O930   Cu977   1.966   .     S
O932   Cu978   1.966   .     S
O935   Cu977   1.962   .     S
O936   Cu1083  1.962   .     S
C937   O1035   1.302   .     A
C937   O1025   1.298   .     A
C937   C966    1.451   .     S
C938   N1021   1.431   .     S
C938   C107    1.422   1_556 S
C938   N909    1.391   1_655 S
C939   N1022   1.431   .     S
C939   N913    1.359   1_655 S
C940   N1023   1.431   .     S
C940   N1013   1.359   .     A
C940   C144    1.422   1_556 S
C941   N1227   1.391   .     A
C941   N1024   1.431   .     S
C942   N1014   1.431   .     S
C942   C111    1.422   1_556 S
C942   N1018   1.391   .     S
C943   N1015   1.431   .     S
C943   N1019   1.359   .     S
C944   N1226   1.359   .     A
C944   N1016   1.431   .     S
C944   C109    1.422   1_556 S
C945   H981    1.083   .     S
C945   C956    1.383   .     A
C945   C964    1.400   .     A
C946   C963    1.400   .     A
C946   H992    1.083   .     S
C946   C957    1.383   .     A
C947   C954    1.383   .     A
C947   H1003   1.082   .     S
C947   C963    1.402   .     A
C948   O1034   1.302   .     A
C948   O1033   1.298   .     A
C948   C965    1.451   .     S
C949   C964    1.402   .     A
C949   C955    1.383   .     A
C949   H1007   1.082   .     S
C950   H1008   1.082   .     S
C950   C966    1.402   .     A
C950   C961    1.383   .     A
C951   C965    1.402   .     A
C951   C962    1.383   .     A
C951   H1009   1.082   .     S
C952   C965    1.400   .     A
C952   C958    1.383   .     A
C952   H1010   1.083   .     S
C953   C966    1.400   .     A
C953   C960    1.383   .     A
C953   H1011   1.083   .     S
C954   H1012   1.083   .     S
C954   C968    1.400   .     A
C955   C967    1.400   .     A
C955   H982    1.083   .     S
C956   H983    1.082   .     S
C956   C967    1.402   .     A
C957   H984    1.082   .     S
C957   C968    1.402   .     A
C958   C971    1.402   .     A
C958   H985    1.082   .     S
C959   O1039   1.298   .     A
C959   O1036   1.302   .     A
C959   C964    1.451   .     S
C960   H986    1.082   .     S
C960   C969    1.402   .     A
C961   H987    1.083   .     S
C961   C969    1.400   .     A
C962   H988    1.083   .     S
C962   C971    1.400   .     A
C963   C970    1.451   .     S
C967   C975    1.451   .     S
C968   C974    1.451   .     S
C969   C973    1.451   .     S
C970   O1038   1.298   .     A
C970   O1037   1.302   .     A
C971   C972    1.451   .     S
C972   O1028   1.302   .     A
C972   O1040   1.298   .     A
C973   O1026   1.298   .     A
C973   O1027   1.302   .     A
C974   O1029   1.302   .     A
C974   O1032   1.298   .     A
C975   O1030   1.302   .     A
C975   O1031   1.298   .     A
C976   N1020   1.431   .     S
C976   N1017   1.391   .     A
Cu977  O1025   1.962   .     S
Cu977  N1013   2.033   .     S
Cu977  O1037   1.966   .     S
Cu977  Cu978   2.706   .     S
Cu978  N1017   2.033   .     S
Cu978  O1035   1.966   .     S
Cu978  O1038   1.962   .     S
Cu979  O1248   1.962   1_545 S
Cu979  Cu980   2.706   .     S
Cu979  O1240   1.962   1_545 S
Cu979  N1018   2.033   .     S
Cu979  O1027   1.966   .     S
Cu979  O1030   1.966   .     S
Cu980  N1019   2.033   .     S
Cu980  O1237   1.966   1_545 S
Cu980  O1236   1.966   1_545 S
Cu980  O1026   1.962   .     S
Cu980  O1031   1.962   .     S
H989   N1020   1.038   .     S
H990   N916    1.038   1_655 S
H993   N1021   1.038   .     S
H994   N1022   1.045   .     S
H996   N919    1.045   1_655 S
H997   N1023   1.045   .     S
H998   N1024   1.038   .     S
H999   N1024   1.038   .     S
H1000  N1014   1.038   .     S
H1001  N1014   1.038   .     S
H1002  N1015   1.045   .     S
H1004  N1015   1.045   .     S
H1005  N1016   1.045   .     S
H1006  N1016   1.045   .     S
N1018  C1152   1.359   1_545 A
N1019  C1149   1.391   1_545 A
N1021  H887    1.038   1_655 S
N1022  H891    1.045   1_655 S
O1028  Cu1188  1.966   .     S
O1029  Cu1188  1.966   .     S
O1032  Cu1187  1.962   .     S
O1033  Cu874   1.962   1_655 S
O1034  Cu873   1.966   1_655 S
O1036  Cu874   1.966   1_655 S
O1039  Cu873   1.962   1_655 S
O1040  Cu1187  1.962   .     S
C1041  O1139   1.302   .     A
C1041  O1129   1.298   .     A
C1041  C1070   1.451   .     S
C1042  N1125   1.431   .     S
C1042  C211    1.422   1_556 S
C1042  N1221   1.391   .     S
C1043  N1126   1.431   .     S
C1043  N1225   1.359   .     S
C1044  N1127   1.431   .     S
C1044  N1117   1.359   .     A
C1044  C248    1.422   1_556 S
C1045  N915    1.391   1_565 A
C1045  N1128   1.431   .     S
C1046  N1118   1.431   .     S
C1046  C215    1.422   1_556 S
C1046  N1122   1.391   .     S
C1047  N1119   1.431   .     S
C1047  N1123   1.359   .     S
C1048  N914    1.359   1_565 A
C1048  N1120   1.431   .     S
C1048  C213    1.422   1_556 S
C1049  H1085   1.083   .     S
C1049  C1060   1.383   .     A
C1049  C1068   1.400   .     A
C1050  C1067   1.400   .     A
C1050  H1096   1.083   .     S
C1050  C1061   1.383   .     A
C1051  C1058   1.383   .     A
C1051  H1107   1.082   .     S
C1051  C1067   1.402   .     A
C1052  O1138   1.302   .     A
C1052  O1137   1.298   .     A
C1052  C1069   1.451   .     S
C1053  C1068   1.402   .     A
C1053  C1059   1.383   .     A
C1053  H1111   1.082   .     S
C1054  H1112   1.082   .     S
C1054  C1070   1.402   .     A
C1054  C1065   1.383   .     A
C1055  C1069   1.402   .     A
C1055  C1066   1.383   .     A
C1055  H1113   1.082   .     S
C1056  C1069   1.400   .     A
C1056  C1062   1.383   .     A
C1056  H1114   1.083   .     S
C1057  C1070   1.400   .     A
C1057  C1064   1.383   .     A
C1057  H1115   1.083   .     S
C1058  H1116   1.083   .     S
C1058  C1072   1.400   .     A
C1059  C1071   1.400   .     A
C1059  H1086   1.083   .     S
C1060  H1087   1.082   .     S
C1060  C1071   1.402   .     A
C1061  H1088   1.082   .     S
C1061  C1072   1.402   .     A
C1062  C1075   1.402   .     A
C1062  H1089   1.082   .     S
C1063  O1143   1.298   .     A
C1063  O1140   1.302   .     A
C1063  C1068   1.451   .     S
C1064  H1090   1.082   .     S
C1064  C1073   1.402   .     A
C1065  H1091   1.083   .     S
C1065  C1073   1.400   .     A
C1066  H1092   1.083   .     S
C1066  C1075   1.400   .     A
C1067  C1074   1.451   .     S
C1071  C1079   1.451   .     S
C1072  C1078   1.451   .     S
C1073  C1077   1.451   .     S
C1074  O1142   1.298   .     A
C1074  O1141   1.302   .     A
C1075  C1076   1.451   .     S
C1076  O1132   1.302   .     A
C1076  O1144   1.298   .     A
C1077  O1130   1.298   .     A
C1077  O1131   1.302   .     A
C1078  O1133   1.302   .     A
C1078  O1136   1.298   .     A
C1079  O1134   1.302   .     A
C1079  O1135   1.298   .     A
C1080  N1124   1.431   .     S
C1080  N1121   1.391   .     A
Cu1081 O1129   1.962   .     S
Cu1081 N1117   2.033   .     S
Cu1081 O1141   1.966   .     S
Cu1081 Cu1082  2.706   .     S
Cu1081 O1242   1.966   1_455 S
Cu1081 O1247   1.962   1_455 S
Cu1082 O1244   1.966   1_455 S
Cu1082 O1241   1.962   1_455 S
Cu1082 N1121   2.033   .     S
Cu1082 O1139   1.966   .     S
Cu1082 O1142   1.962   .     S
Cu1083 Cu1084  2.706   .     S
Cu1083 N1122   2.033   .     S
Cu1083 O1131   1.966   .     S
Cu1083 O1134   1.966   .     S
Cu1084 N1123   2.033   .     S
Cu1084 O1130   1.962   .     S
Cu1084 O1135   1.962   .     S
H1093  N1124   1.038   .     S
H1094  N1228   1.038   .     S
H1095  N1229   1.038   1_455 S
H1097  N1125   1.038   .     S
H1098  N1126   1.045   .     S
H1099  N1230   1.045   1_455 S
H1100  N1231   1.045   .     S
H1101  N1127   1.045   .     S
H1102  N1128   1.038   .     S
H1103  N1128   1.038   .     S
H1104  N1118   1.038   .     S
H1105  N1118   1.038   .     S
H1106  N1119   1.045   .     S
H1108  N1119   1.045   .     S
H1109  N1120   1.045   .     S
H1110  N1120   1.045   .     S
N1117  C1146   1.391   1_455 S
N1121  C1147   1.359   1_455 S
N1124  H1198   1.038   1_455 S
N1125  H1199   1.038   .     S
N1126  H1203   1.045   .     S
N1127  H1204   1.045   1_455 S
O1132  Cu876   1.966   1_565 S
O1133  Cu876   1.966   1_565 S
O1136  Cu875   1.962   1_565 S
O1137  Cu1186  1.962   .     S
O1138  Cu1185  1.966   .     S
O1140  Cu1186  1.966   .     S
O1143  Cu1185  1.962   .     S
O1144  Cu875   1.962   1_565 S
C1145  O1243   1.302   .     A
C1145  O1233   1.298   .     A
C1145  C1174   1.451   .     S
C1146  N1229   1.431   .     S
C1146  C315    1.422   1_556 S
C1146  N1117   1.391   1_655 S
C1147  N1230   1.431   .     S
C1147  N1121   1.359   1_655 S
C1148  N1231   1.431   .     S
C1148  N1221   1.359   .     A
C1148  C352    1.422   1_556 S
C1149  N1019   1.391   1_565 A
C1149  N1232   1.431   .     S
C1150  N1222   1.431   .     S
C1150  C319    1.422   1_556 S
C1150  N1226   1.391   .     S
C1151  N1223   1.431   .     S
C1151  N1227   1.359   .     S
C1152  N1018   1.359   1_565 A
C1152  N1224   1.431   .     S
C1152  C317    1.422   1_556 S
C1153  H1189   1.083   .     S
C1153  C1164   1.383   .     A
C1153  C1172   1.400   .     A
C1154  C1171   1.400   .     A
C1154  H1200   1.083   .     S
C1154  C1165   1.383   .     A
C1155  C1162   1.383   .     A
C1155  H1211   1.082   .     S
C1155  C1171   1.402   .     A
C1156  O1242   1.302   .     A
C1156  O1241   1.298   .     A
C1156  C1173   1.451   .     S
C1157  C1172   1.402   .     A
C1157  C1163   1.383   .     A
C1157  H1215   1.082   .     S
C1158  H1216   1.082   .     S
C1158  C1174   1.402   .     A
C1158  C1169   1.383   .     A
C1159  C1173   1.402   .     A
C1159  C1170   1.383   .     A
C1159  H1217   1.082   .     S
C1160  C1173   1.400   .     A
C1160  C1166   1.383   .     A
C1160  H1218   1.083   .     S
C1161  C1174   1.400   .     A
C1161  C1168   1.383   .     A
C1161  H1219   1.083   .     S
C1162  H1220   1.083   .     S
C1162  C1176   1.400   .     A
C1163  C1175   1.400   .     A
C1163  H1190   1.083   .     S
C1164  H1191   1.082   .     S
C1164  C1175   1.402   .     A
C1165  H1192   1.082   .     S
C1165  C1176   1.402   .     A
C1166  C1179   1.402   .     A
C1166  H1193   1.082   .     S
C1167  O1247   1.298   .     A
C1167  O1244   1.302   .     A
C1167  C1172   1.451   .     S
C1168  H1194   1.082   .     S
C1168  C1177   1.402   .     A
C1169  H1195   1.083   .     S
C1169  C1177   1.400   .     A
C1170  H1196   1.083   .     S
C1170  C1179   1.400   .     A
C1171  C1178   1.451   .     S
C1175  C1183   1.451   .     S
C1176  C1182   1.451   .     S
C1177  C1181   1.451   .     S
C1178  O1246   1.298   .     A
C1178  O1245   1.302   .     A
C1179  C1180   1.451   .     S
C1180  O1236   1.302   .     A
C1180  O1248   1.298   .     A
C1181  O1234   1.298   .     A
C1181  O1235   1.302   .     A
C1182  O1237   1.302   .     A
C1182  O1240   1.298   .     A
C1183  O1238   1.302   .     A
C1183  O1239   1.298   .     A
C1184  N1228   1.431   .     S
C1184  N1225   1.391   .     A
Cu1185 O1233   1.962   .     S
Cu1185 N1221   2.033   .     S
Cu1185 O1245   1.966   .     S
Cu1185 Cu1186  2.706   .     S
Cu1186 N1225   2.033   .     S
Cu1186 O1243   1.966   .     S
Cu1186 O1246   1.962   .     S
Cu1187 Cu1188  2.706   .     S
Cu1187 N1226   2.033   .     S
Cu1187 O1235   1.966   .     S
Cu1187 O1238   1.966   .     S
Cu1188 N1227   2.033   .     S
Cu1188 O1234   1.962   .     S
Cu1188 O1239   1.962   .     S
H1197  N1228   1.038   .     S
H1198  N1124   1.038   1_655 S
H1201  N1229   1.038   .     S
H1202  N1230   1.045   .     S
H1204  N1127   1.045   1_655 S
H1205  N1231   1.045   .     S
H1206  N1232   1.038   .     S
H1207  N1232   1.038   .     S
H1208  N1222   1.038   .     S
H1209  N1222   1.038   .     S
H1210  N1223   1.045   .     S
H1212  N1223   1.045   .     S
H1213  N1224   1.045   .     S
H1214  N1224   1.045   .     S
N1229  H1095   1.038   1_655 S
N1230  H1099   1.045   1_655 S
O1236  Cu980   1.966   1_565 S
O1237  Cu980   1.966   1_565 S
O1240  Cu979   1.962   1_565 S
O1241  Cu1082  1.962   1_655 S
O1242  Cu1081  1.966   1_655 S
O1244  Cu1082  1.966   1_655 S
O1247  Cu1081  1.962   1_655 S
O1248  Cu979   1.962   1_565 S
