data_str_m2_o10_o17_pcu_sym.188
_audit_creation_date              2020-01-03
_audit_creation_method            'Materials Studio'
_symmetry_space_group_name_H-M    'P1'
_symmetry_Int_Tables_number       1
_symmetry_cell_setting            triclinic
loop_
_symmetry_equiv_pos_as_xyz
  x,y,z
_cell_length_a                    30.0029
_cell_length_b                    26.0296
_cell_length_c                    22.3568
_cell_angle_alpha                 102.8739
_cell_angle_beta                  94.2575
_cell_angle_gamma                 92.4714
loop_
_atom_site_label
_atom_site_type_symbol
_atom_site_fract_x
_atom_site_fract_y
_atom_site_fract_z
_atom_site_U_iso_or_equiv
_atom_site_adp_type
_atom_site_occupancy
C1     C     0.24863   0.06659   0.15111   0.00000  Uiso   1.00
C2     C     0.25137   0.26674   0.18223   0.00000  Uiso   1.00
C3     C     0.01491   0.07845   0.09838   0.00000  Uiso   1.00
C4     C     0.48509   0.25488   0.23496   0.00000  Uiso   1.00
C5     C     0.24794   0.01062   0.14234   0.00000  Uiso   1.00
C6     C     0.25206   0.32271   0.19099   0.00000  Uiso   1.00
C7     C     0.16454   0.16531   0.16722   0.00000  Uiso   1.00
C8     C     0.33546   0.16802   0.16611   0.00000  Uiso   1.00
C9     C     0.41058   0.21309   0.20010   0.00000  Uiso   1.00
C10    C     0.08942   0.12024   0.13323   0.00000  Uiso   1.00
C11    C     0.38364   0.16964   0.16495   0.00000  Uiso   1.00
C12    C     0.11636   0.16369   0.16838   0.00000  Uiso   1.00
C13    C     0.40256   0.12628   0.12986   0.00000  Uiso   1.00
C14    C     0.09744   0.20705   0.20348   0.00000  Uiso   1.00
C15    C     0.44900   0.12409   0.13059   0.00000  Uiso   1.00
C16    C     0.05100   0.20924   0.20274   0.00000  Uiso   1.00
C17    C     0.47658   0.16738   0.16608   0.00000  Uiso   1.00
C18    C     0.02342   0.16596   0.16725   0.00000  Uiso   1.00
C19    C     0.45731   0.21210   0.20047   0.00000  Uiso   1.00
C20    C     0.04269   0.12123   0.13286   0.00000  Uiso   1.00
C21    C     0.46830   0.07935   0.09698   0.00000  Uiso   1.00
C22    C     0.03170   0.25398   0.23635   0.00000  Uiso   1.00
Cu23   Cu    0.25500   0.17246   0.22813   0.00000  Uiso   1.00
Cu24   Cu    0.24499   0.16087   0.10521   0.00000  Uiso   1.00
H25    H     0.38060   0.09370   0.10328   0.00000  Uiso   1.00
H26    H     0.11940   0.23963   0.23005   0.00000  Uiso   1.00
H27    H     0.02933   0.04388   0.07243   0.00000  Uiso   1.00
H28    H     0.47067   0.28945   0.26091   0.00000  Uiso   1.00
H29    H     0.24404   0.32012   0.09545   0.00000  Uiso   1.00
H30    H     0.25595   0.01321   0.23788   0.00000  Uiso   1.00
H31    H     0.21501   0.12587   0.31618   0.00000  Uiso   1.00
H32    H     0.28499   0.20746   0.01715   0.00000  Uiso   1.00
N33    N     0.23744   0.15214   0.01284   0.00000  Uiso   1.00
N34    N     0.26255   0.18119   0.32049   0.00000  Uiso   1.00
O35    O     0.25325   0.09538   0.20659   0.00000  Uiso   1.00
O36    O     0.24674   0.23796   0.12674   0.00000  Uiso   1.00
O37    O     0.24480   0.08559   0.10279   0.00000  Uiso   1.00
O38    O     0.25520   0.24774   0.23055   0.00000  Uiso   1.00
O39    O     0.18935   0.17155   0.21857   0.00000  Uiso   1.00
O40    O     0.31064   0.16179   0.11476   0.00000  Uiso   1.00
O41    O     0.18090   0.16176   0.11477   0.00000  Uiso   1.00
O42    O     0.31910   0.17157   0.21857   0.00000  Uiso   1.00
N43    N     0.39083   0.25866   0.23437   0.00000  Uiso   1.00
H44    H     0.37359   0.24773   0.26897   0.00000  Uiso   1.00
H45    H     0.36814   0.27240   0.20462   0.00000  Uiso   1.00
N46    N     0.10917   0.07467   0.09896   0.00000  Uiso   1.00
H47    H     0.12641   0.08560   0.06437   0.00000  Uiso   1.00
H48    H     0.13186   0.06093   0.12872   0.00000  Uiso   1.00
N49    N     0.44051   0.03483   0.06171   0.00000  Uiso   1.00
H50    H     0.42638   0.01579   0.09295   0.00000  Uiso   1.00
H51    H     0.45983   0.00743   0.03526   0.00000  Uiso   1.00
N52    N     0.05949   0.29850   0.27162   0.00000  Uiso   1.00
H53    H     0.07362   0.31754   0.24038   0.00000  Uiso   1.00
H54    H     0.04017   0.32591   0.29807   0.00000  Uiso   1.00
C55    C     0.74863   0.06659   0.15111   0.00000  Uiso   1.00
C56    C     0.75137   0.26674   0.18223   0.00000  Uiso   1.00
C57    C     0.51491   0.07845   0.09838   0.00000  Uiso   1.00
C58    C     0.98509   0.25488   0.23496   0.00000  Uiso   1.00
C59    C     0.74794   0.01062   0.14234   0.00000  Uiso   1.00
C60    C     0.75206   0.32271   0.19099   0.00000  Uiso   1.00
C61    C     0.66454   0.16531   0.16722   0.00000  Uiso   1.00
C62    C     0.83546   0.16802   0.16611   0.00000  Uiso   1.00
C63    C     0.91058   0.21309   0.20010   0.00000  Uiso   1.00
C64    C     0.58942   0.12024   0.13323   0.00000  Uiso   1.00
C65    C     0.88364   0.16964   0.16495   0.00000  Uiso   1.00
C66    C     0.61636   0.16369   0.16838   0.00000  Uiso   1.00
C67    C     0.90256   0.12628   0.12986   0.00000  Uiso   1.00
C68    C     0.59744   0.20705   0.20348   0.00000  Uiso   1.00
C69    C     0.94900   0.12409   0.13059   0.00000  Uiso   1.00
C70    C     0.55100   0.20924   0.20274   0.00000  Uiso   1.00
C71    C     0.97658   0.16738   0.16608   0.00000  Uiso   1.00
C72    C     0.52342   0.16596   0.16725   0.00000  Uiso   1.00
C73    C     0.95731   0.21210   0.20047   0.00000  Uiso   1.00
C74    C     0.54269   0.12123   0.13286   0.00000  Uiso   1.00
C75    C     0.96830   0.07935   0.09698   0.00000  Uiso   1.00
C76    C     0.53170   0.25398   0.23635   0.00000  Uiso   1.00
Cu77   Cu    0.75500   0.17246   0.22813   0.00000  Uiso   1.00
Cu78   Cu    0.74499   0.16087   0.10521   0.00000  Uiso   1.00
H79    H     0.88060   0.09370   0.10328   0.00000  Uiso   1.00
H80    H     0.61940   0.23963   0.23005   0.00000  Uiso   1.00
H81    H     0.52933   0.04388   0.07243   0.00000  Uiso   1.00
H82    H     0.97067   0.28945   0.26091   0.00000  Uiso   1.00
H83    H     0.74404   0.32012   0.09545   0.00000  Uiso   1.00
H84    H     0.75595   0.01321   0.23788   0.00000  Uiso   1.00
H85    H     0.71501   0.12587   0.31618   0.00000  Uiso   1.00
H86    H     0.78499   0.20746   0.01715   0.00000  Uiso   1.00
N87    N     0.73744   0.15214   0.01284   0.00000  Uiso   1.00
N88    N     0.76255   0.18119   0.32049   0.00000  Uiso   1.00
O89    O     0.75325   0.09538   0.20659   0.00000  Uiso   1.00
O90    O     0.74674   0.23796   0.12674   0.00000  Uiso   1.00
O91    O     0.74480   0.08559   0.10279   0.00000  Uiso   1.00
O92    O     0.75520   0.24774   0.23055   0.00000  Uiso   1.00
O93    O     0.68935   0.17155   0.21857   0.00000  Uiso   1.00
O94    O     0.81064   0.16179   0.11476   0.00000  Uiso   1.00
O95    O     0.68090   0.16176   0.11477   0.00000  Uiso   1.00
O96    O     0.81910   0.17157   0.21857   0.00000  Uiso   1.00
N97    N     0.89083   0.25866   0.23437   0.00000  Uiso   1.00
H98    H     0.87359   0.24773   0.26897   0.00000  Uiso   1.00
H99    H     0.86814   0.27240   0.20462   0.00000  Uiso   1.00
N100   N     0.60917   0.07467   0.09896   0.00000  Uiso   1.00
H101   H     0.62641   0.08560   0.06437   0.00000  Uiso   1.00
H102   H     0.63186   0.06093   0.12872   0.00000  Uiso   1.00
N103   N     0.94051   0.03483   0.06171   0.00000  Uiso   1.00
H104   H     0.92638   0.01579   0.09295   0.00000  Uiso   1.00
H105   H     0.95983   0.00743   0.03526   0.00000  Uiso   1.00
N106   N     0.55949   0.29850   0.27162   0.00000  Uiso   1.00
H107   H     0.57362   0.31754   0.24038   0.00000  Uiso   1.00
H108   H     0.54017   0.32591   0.29807   0.00000  Uiso   1.00
C109   C     0.24863   0.39992   0.15111   0.00000  Uiso   1.00
C110   C     0.25137   0.60008   0.18223   0.00000  Uiso   1.00
C111   C     0.01491   0.41179   0.09838   0.00000  Uiso   1.00
C112   C     0.48509   0.58821   0.23496   0.00000  Uiso   1.00
C113   C     0.24794   0.34396   0.14234   0.00000  Uiso   1.00
C114   C     0.25206   0.65604   0.19099   0.00000  Uiso   1.00
C115   C     0.16454   0.49865   0.16722   0.00000  Uiso   1.00
C116   C     0.33546   0.50135   0.16611   0.00000  Uiso   1.00
C117   C     0.41058   0.54643   0.20010   0.00000  Uiso   1.00
C118   C     0.08942   0.45357   0.13323   0.00000  Uiso   1.00
C119   C     0.38364   0.50297   0.16495   0.00000  Uiso   1.00
C120   C     0.11636   0.49703   0.16838   0.00000  Uiso   1.00
C121   C     0.40256   0.45961   0.12986   0.00000  Uiso   1.00
C122   C     0.09744   0.54039   0.20348   0.00000  Uiso   1.00
C123   C     0.44900   0.45742   0.13059   0.00000  Uiso   1.00
C124   C     0.05100   0.54258   0.20274   0.00000  Uiso   1.00
C125   C     0.47658   0.50071   0.16608   0.00000  Uiso   1.00
C126   C     0.02342   0.49929   0.16725   0.00000  Uiso   1.00
C127   C     0.45731   0.54543   0.20047   0.00000  Uiso   1.00
C128   C     0.04269   0.45457   0.13286   0.00000  Uiso   1.00
C129   C     0.46830   0.41268   0.09698   0.00000  Uiso   1.00
C130   C     0.03170   0.58732   0.23635   0.00000  Uiso   1.00
Cu131  Cu    0.25500   0.50579   0.22813   0.00000  Uiso   1.00
Cu132  Cu    0.24499   0.49421   0.10521   0.00000  Uiso   1.00
H133   H     0.38060   0.42703   0.10328   0.00000  Uiso   1.00
H134   H     0.11940   0.57297   0.23005   0.00000  Uiso   1.00
H135   H     0.02933   0.37721   0.07243   0.00000  Uiso   1.00
H136   H     0.47067   0.62279   0.26091   0.00000  Uiso   1.00
H137   H     0.24404   0.65345   0.09545   0.00000  Uiso   1.00
H138   H     0.25595   0.34655   0.23788   0.00000  Uiso   1.00
H139   H     0.21501   0.45920   0.31618   0.00000  Uiso   1.00
H140   H     0.28499   0.54080   0.01715   0.00000  Uiso   1.00
N141   N     0.23744   0.48547   0.01284   0.00000  Uiso   1.00
N142   N     0.26255   0.51453   0.32049   0.00000  Uiso   1.00
O143   O     0.25325   0.42871   0.20659   0.00000  Uiso   1.00
O144   O     0.24674   0.57129   0.12674   0.00000  Uiso   1.00
O145   O     0.24480   0.41892   0.10279   0.00000  Uiso   1.00
O146   O     0.25520   0.58108   0.23055   0.00000  Uiso   1.00
O147   O     0.18935   0.50488   0.21857   0.00000  Uiso   1.00
O148   O     0.31064   0.49512   0.11476   0.00000  Uiso   1.00
O149   O     0.18090   0.49510   0.11477   0.00000  Uiso   1.00
O150   O     0.31910   0.50490   0.21857   0.00000  Uiso   1.00
N151   N     0.39083   0.59199   0.23437   0.00000  Uiso   1.00
H152   H     0.37359   0.58107   0.26897   0.00000  Uiso   1.00
H153   H     0.36814   0.60573   0.20462   0.00000  Uiso   1.00
N154   N     0.10917   0.40801   0.09896   0.00000  Uiso   1.00
H155   H     0.12641   0.41893   0.06437   0.00000  Uiso   1.00
H156   H     0.13186   0.39426   0.12872   0.00000  Uiso   1.00
N157   N     0.44051   0.36817   0.06171   0.00000  Uiso   1.00
H158   H     0.42638   0.34912   0.09295   0.00000  Uiso   1.00
H159   H     0.45983   0.34076   0.03526   0.00000  Uiso   1.00
N160   N     0.05949   0.63183   0.27162   0.00000  Uiso   1.00
H161   H     0.07362   0.65088   0.24038   0.00000  Uiso   1.00
H162   H     0.04017   0.65924   0.29807   0.00000  Uiso   1.00
C163   C     0.74863   0.39992   0.15111   0.00000  Uiso   1.00
C164   C     0.75137   0.60008   0.18223   0.00000  Uiso   1.00
C165   C     0.51491   0.41179   0.09838   0.00000  Uiso   1.00
C166   C     0.98509   0.58821   0.23496   0.00000  Uiso   1.00
C167   C     0.74794   0.34396   0.14234   0.00000  Uiso   1.00
C168   C     0.75206   0.65604   0.19099   0.00000  Uiso   1.00
C169   C     0.66454   0.49865   0.16722   0.00000  Uiso   1.00
C170   C     0.83546   0.50135   0.16611   0.00000  Uiso   1.00
C171   C     0.91058   0.54643   0.20010   0.00000  Uiso   1.00
C172   C     0.58942   0.45357   0.13323   0.00000  Uiso   1.00
C173   C     0.88364   0.50297   0.16495   0.00000  Uiso   1.00
C174   C     0.61636   0.49703   0.16838   0.00000  Uiso   1.00
C175   C     0.90256   0.45961   0.12986   0.00000  Uiso   1.00
C176   C     0.59744   0.54039   0.20348   0.00000  Uiso   1.00
C177   C     0.94900   0.45742   0.13059   0.00000  Uiso   1.00
C178   C     0.55100   0.54258   0.20274   0.00000  Uiso   1.00
C179   C     0.97658   0.50071   0.16608   0.00000  Uiso   1.00
C180   C     0.52342   0.49929   0.16725   0.00000  Uiso   1.00
C181   C     0.95731   0.54543   0.20047   0.00000  Uiso   1.00
C182   C     0.54269   0.45457   0.13286   0.00000  Uiso   1.00
C183   C     0.96830   0.41268   0.09698   0.00000  Uiso   1.00
C184   C     0.53170   0.58732   0.23635   0.00000  Uiso   1.00
Cu185  Cu    0.75500   0.50579   0.22813   0.00000  Uiso   1.00
Cu186  Cu    0.74499   0.49421   0.10521   0.00000  Uiso   1.00
H187   H     0.88060   0.42703   0.10328   0.00000  Uiso   1.00
H188   H     0.61940   0.57297   0.23005   0.00000  Uiso   1.00
H189   H     0.52933   0.37721   0.07243   0.00000  Uiso   1.00
H190   H     0.97067   0.62279   0.26091   0.00000  Uiso   1.00
H191   H     0.74404   0.65345   0.09545   0.00000  Uiso   1.00
H192   H     0.75595   0.34655   0.23788   0.00000  Uiso   1.00
H193   H     0.71501   0.45920   0.31618   0.00000  Uiso   1.00
H194   H     0.78499   0.54080   0.01715   0.00000  Uiso   1.00
N195   N     0.73744   0.48547   0.01284   0.00000  Uiso   1.00
N196   N     0.76255   0.51453   0.32049   0.00000  Uiso   1.00
O197   O     0.75325   0.42871   0.20659   0.00000  Uiso   1.00
O198   O     0.74674   0.57129   0.12674   0.00000  Uiso   1.00
O199   O     0.74480   0.41892   0.10279   0.00000  Uiso   1.00
O200   O     0.75520   0.58108   0.23055   0.00000  Uiso   1.00
O201   O     0.68935   0.50488   0.21857   0.00000  Uiso   1.00
O202   O     0.81064   0.49512   0.11476   0.00000  Uiso   1.00
O203   O     0.68090   0.49510   0.11477   0.00000  Uiso   1.00
O204   O     0.81910   0.50490   0.21857   0.00000  Uiso   1.00
N205   N     0.89083   0.59199   0.23437   0.00000  Uiso   1.00
H206   H     0.87359   0.58107   0.26897   0.00000  Uiso   1.00
H207   H     0.86814   0.60573   0.20462   0.00000  Uiso   1.00
N208   N     0.60917   0.40801   0.09896   0.00000  Uiso   1.00
H209   H     0.62641   0.41893   0.06437   0.00000  Uiso   1.00
H210   H     0.63186   0.39426   0.12872   0.00000  Uiso   1.00
N211   N     0.94051   0.36817   0.06171   0.00000  Uiso   1.00
H212   H     0.92638   0.34912   0.09295   0.00000  Uiso   1.00
H213   H     0.95983   0.34076   0.03526   0.00000  Uiso   1.00
N214   N     0.55949   0.63183   0.27162   0.00000  Uiso   1.00
H215   H     0.57362   0.65088   0.24038   0.00000  Uiso   1.00
H216   H     0.54017   0.65924   0.29807   0.00000  Uiso   1.00
C217   C     0.24863   0.73326   0.15111   0.00000  Uiso   1.00
C218   C     0.25137   0.93341   0.18223   0.00000  Uiso   1.00
C219   C     0.01491   0.74512   0.09838   0.00000  Uiso   1.00
C220   C     0.48509   0.92155   0.23496   0.00000  Uiso   1.00
C221   C     0.24794   0.67729   0.14234   0.00000  Uiso   1.00
C222   C     0.25206   0.98938   0.19099   0.00000  Uiso   1.00
C223   C     0.16454   0.83198   0.16722   0.00000  Uiso   1.00
C224   C     0.33546   0.83469   0.16611   0.00000  Uiso   1.00
C225   C     0.41058   0.87976   0.20010   0.00000  Uiso   1.00
C226   C     0.08942   0.78690   0.13323   0.00000  Uiso   1.00
C227   C     0.38364   0.83631   0.16495   0.00000  Uiso   1.00
C228   C     0.11636   0.83036   0.16838   0.00000  Uiso   1.00
C229   C     0.40256   0.79295   0.12986   0.00000  Uiso   1.00
C230   C     0.09744   0.87372   0.20348   0.00000  Uiso   1.00
C231   C     0.44900   0.79076   0.13059   0.00000  Uiso   1.00
C232   C     0.05100   0.87591   0.20274   0.00000  Uiso   1.00
C233   C     0.47658   0.83404   0.16608   0.00000  Uiso   1.00
C234   C     0.02342   0.83262   0.16725   0.00000  Uiso   1.00
C235   C     0.45731   0.87877   0.20047   0.00000  Uiso   1.00
C236   C     0.04269   0.78790   0.13286   0.00000  Uiso   1.00
C237   C     0.46830   0.74602   0.09698   0.00000  Uiso   1.00
C238   C     0.03170   0.92065   0.23635   0.00000  Uiso   1.00
Cu239  Cu    0.25500   0.83913   0.22813   0.00000  Uiso   1.00
Cu240  Cu    0.24499   0.82754   0.10521   0.00000  Uiso   1.00
H241   H     0.38060   0.76037   0.10328   0.00000  Uiso   1.00
H242   H     0.11940   0.90630   0.23005   0.00000  Uiso   1.00
H243   H     0.02933   0.71055   0.07243   0.00000  Uiso   1.00
H244   H     0.47067   0.95612   0.26091   0.00000  Uiso   1.00
H245   H     0.24404   0.98679   0.09545   0.00000  Uiso   1.00
H246   H     0.25595   0.67988   0.23788   0.00000  Uiso   1.00
H247   H     0.21501   0.79254   0.31618   0.00000  Uiso   1.00
H248   H     0.28499   0.87413   0.01715   0.00000  Uiso   1.00
N249   N     0.23744   0.81881   0.01284   0.00000  Uiso   1.00
N250   N     0.26255   0.84786   0.32049   0.00000  Uiso   1.00
O251   O     0.25325   0.76204   0.20659   0.00000  Uiso   1.00
O252   O     0.24674   0.90462   0.12674   0.00000  Uiso   1.00
O253   O     0.24480   0.75226   0.10279   0.00000  Uiso   1.00
O254   O     0.25520   0.91441   0.23055   0.00000  Uiso   1.00
O255   O     0.18935   0.83821   0.21857   0.00000  Uiso   1.00
O256   O     0.31064   0.82845   0.11476   0.00000  Uiso   1.00
O257   O     0.18090   0.82843   0.11477   0.00000  Uiso   1.00
O258   O     0.31910   0.83824   0.21857   0.00000  Uiso   1.00
N259   N     0.39083   0.92532   0.23437   0.00000  Uiso   1.00
H260   H     0.37359   0.91440   0.26897   0.00000  Uiso   1.00
H261   H     0.36814   0.93907   0.20462   0.00000  Uiso   1.00
N262   N     0.10917   0.74134   0.09896   0.00000  Uiso   1.00
H263   H     0.12641   0.75226   0.06437   0.00000  Uiso   1.00
H264   H     0.13186   0.72760   0.12872   0.00000  Uiso   1.00
N265   N     0.44051   0.70150   0.06171   0.00000  Uiso   1.00
H266   H     0.42638   0.68246   0.09295   0.00000  Uiso   1.00
H267   H     0.45983   0.67409   0.03526   0.00000  Uiso   1.00
N268   N     0.05949   0.96517   0.27162   0.00000  Uiso   1.00
H269   H     0.07362   0.98421   0.24038   0.00000  Uiso   1.00
H270   H     0.04017   0.99257   0.29807   0.00000  Uiso   1.00
C271   C     0.74863   0.73326   0.15111   0.00000  Uiso   1.00
C272   C     0.75137   0.93341   0.18223   0.00000  Uiso   1.00
C273   C     0.51491   0.74512   0.09838   0.00000  Uiso   1.00
C274   C     0.98509   0.92155   0.23496   0.00000  Uiso   1.00
C275   C     0.74794   0.67729   0.14234   0.00000  Uiso   1.00
C276   C     0.75206   0.98938   0.19099   0.00000  Uiso   1.00
C277   C     0.66454   0.83198   0.16722   0.00000  Uiso   1.00
C278   C     0.83546   0.83469   0.16611   0.00000  Uiso   1.00
C279   C     0.91058   0.87976   0.20010   0.00000  Uiso   1.00
C280   C     0.58942   0.78690   0.13323   0.00000  Uiso   1.00
C281   C     0.88364   0.83631   0.16495   0.00000  Uiso   1.00
C282   C     0.61636   0.83036   0.16838   0.00000  Uiso   1.00
C283   C     0.90256   0.79295   0.12986   0.00000  Uiso   1.00
C284   C     0.59744   0.87372   0.20348   0.00000  Uiso   1.00
C285   C     0.94900   0.79076   0.13059   0.00000  Uiso   1.00
C286   C     0.55100   0.87591   0.20274   0.00000  Uiso   1.00
C287   C     0.97658   0.83404   0.16608   0.00000  Uiso   1.00
C288   C     0.52342   0.83262   0.16725   0.00000  Uiso   1.00
C289   C     0.95731   0.87877   0.20047   0.00000  Uiso   1.00
C290   C     0.54269   0.78790   0.13286   0.00000  Uiso   1.00
C291   C     0.96830   0.74602   0.09698   0.00000  Uiso   1.00
C292   C     0.53170   0.92065   0.23635   0.00000  Uiso   1.00
Cu293  Cu    0.75500   0.83913   0.22813   0.00000  Uiso   1.00
Cu294  Cu    0.74499   0.82754   0.10521   0.00000  Uiso   1.00
H295   H     0.88060   0.76037   0.10328   0.00000  Uiso   1.00
H296   H     0.61940   0.90630   0.23005   0.00000  Uiso   1.00
H297   H     0.52933   0.71055   0.07243   0.00000  Uiso   1.00
H298   H     0.97067   0.95612   0.26091   0.00000  Uiso   1.00
H299   H     0.74404   0.98679   0.09545   0.00000  Uiso   1.00
H300   H     0.75595   0.67988   0.23788   0.00000  Uiso   1.00
H301   H     0.71501   0.79254   0.31618   0.00000  Uiso   1.00
H302   H     0.78499   0.87413   0.01715   0.00000  Uiso   1.00
N303   N     0.73744   0.81881   0.01284   0.00000  Uiso   1.00
N304   N     0.76255   0.84786   0.32049   0.00000  Uiso   1.00
O305   O     0.75325   0.76204   0.20659   0.00000  Uiso   1.00
O306   O     0.74674   0.90462   0.12674   0.00000  Uiso   1.00
O307   O     0.74480   0.75226   0.10279   0.00000  Uiso   1.00
O308   O     0.75520   0.91441   0.23055   0.00000  Uiso   1.00
O309   O     0.68935   0.83821   0.21857   0.00000  Uiso   1.00
O310   O     0.81064   0.82845   0.11476   0.00000  Uiso   1.00
O311   O     0.68090   0.82843   0.11477   0.00000  Uiso   1.00
O312   O     0.81910   0.83824   0.21857   0.00000  Uiso   1.00
N313   N     0.89083   0.92532   0.23437   0.00000  Uiso   1.00
H314   H     0.87359   0.91440   0.26897   0.00000  Uiso   1.00
H315   H     0.86814   0.93907   0.20462   0.00000  Uiso   1.00
N316   N     0.60917   0.74134   0.09896   0.00000  Uiso   1.00
H317   H     0.62641   0.75226   0.06437   0.00000  Uiso   1.00
H318   H     0.63186   0.72760   0.12872   0.00000  Uiso   1.00
N319   N     0.94051   0.70150   0.06171   0.00000  Uiso   1.00
H320   H     0.92638   0.68246   0.09295   0.00000  Uiso   1.00
H321   H     0.95983   0.67409   0.03526   0.00000  Uiso   1.00
N322   N     0.55949   0.96517   0.27162   0.00000  Uiso   1.00
H323   H     0.57362   0.98421   0.24038   0.00000  Uiso   1.00
H324   H     0.54017   0.99257   0.29807   0.00000  Uiso   1.00
C325   C     0.24863   0.06659   0.48444   0.00000  Uiso   1.00
C326   C     0.25137   0.26674   0.51556   0.00000  Uiso   1.00
C327   C     0.01491   0.07845   0.43171   0.00000  Uiso   1.00
C328   C     0.48509   0.25488   0.56829   0.00000  Uiso   1.00
C329   C     0.24794   0.01062   0.47568   0.00000  Uiso   1.00
C330   C     0.25206   0.32271   0.52432   0.00000  Uiso   1.00
C331   C     0.16454   0.16531   0.50056   0.00000  Uiso   1.00
C332   C     0.33546   0.16802   0.49944   0.00000  Uiso   1.00
C333   C     0.41058   0.21309   0.53344   0.00000  Uiso   1.00
C334   C     0.08942   0.12024   0.46656   0.00000  Uiso   1.00
C335   C     0.38364   0.16964   0.49829   0.00000  Uiso   1.00
C336   C     0.11636   0.16369   0.50171   0.00000  Uiso   1.00
C337   C     0.40256   0.12628   0.46319   0.00000  Uiso   1.00
C338   C     0.09744   0.20705   0.53681   0.00000  Uiso   1.00
C339   C     0.44900   0.12409   0.46392   0.00000  Uiso   1.00
C340   C     0.05100   0.20924   0.53608   0.00000  Uiso   1.00
C341   C     0.47658   0.16738   0.49942   0.00000  Uiso   1.00
C342   C     0.02342   0.16596   0.50058   0.00000  Uiso   1.00
C343   C     0.45731   0.21210   0.53380   0.00000  Uiso   1.00
C344   C     0.04269   0.12123   0.46620   0.00000  Uiso   1.00
C345   C     0.46830   0.07935   0.43032   0.00000  Uiso   1.00
C346   C     0.03170   0.25398   0.56968   0.00000  Uiso   1.00
Cu347  Cu    0.25500   0.17246   0.56146   0.00000  Uiso   1.00
Cu348  Cu    0.24499   0.16087   0.43854   0.00000  Uiso   1.00
H349   H     0.38060   0.09370   0.43661   0.00000  Uiso   1.00
H350   H     0.11940   0.23963   0.56339   0.00000  Uiso   1.00
H351   H     0.02933   0.04388   0.40576   0.00000  Uiso   1.00
H352   H     0.47067   0.28945   0.59424   0.00000  Uiso   1.00
H353   H     0.24404   0.32012   0.42879   0.00000  Uiso   1.00
H354   H     0.25595   0.01321   0.57121   0.00000  Uiso   1.00
H355   H     0.21501   0.12587   0.64951   0.00000  Uiso   1.00
H356   H     0.28499   0.20746   0.35049   0.00000  Uiso   1.00
N357   N     0.23744   0.15214   0.34617   0.00000  Uiso   1.00
N358   N     0.26255   0.18119   0.65383   0.00000  Uiso   1.00
O359   O     0.25325   0.09538   0.53992   0.00000  Uiso   1.00
O360   O     0.24674   0.23796   0.46008   0.00000  Uiso   1.00
O361   O     0.24480   0.08559   0.43612   0.00000  Uiso   1.00
O362   O     0.25520   0.24774   0.56388   0.00000  Uiso   1.00
O363   O     0.18935   0.17155   0.55191   0.00000  Uiso   1.00
O364   O     0.31064   0.16179   0.44809   0.00000  Uiso   1.00
O365   O     0.18090   0.16176   0.44810   0.00000  Uiso   1.00
O366   O     0.31910   0.17157   0.55190   0.00000  Uiso   1.00
N367   N     0.39083   0.25866   0.56770   0.00000  Uiso   1.00
H368   H     0.37359   0.24773   0.60230   0.00000  Uiso   1.00
H369   H     0.36814   0.27240   0.53795   0.00000  Uiso   1.00
N370   N     0.10917   0.07467   0.43229   0.00000  Uiso   1.00
H371   H     0.12641   0.08560   0.39770   0.00000  Uiso   1.00
H372   H     0.13186   0.06093   0.46205   0.00000  Uiso   1.00
N373   N     0.44051   0.03483   0.39504   0.00000  Uiso   1.00
H374   H     0.42638   0.01579   0.42628   0.00000  Uiso   1.00
H375   H     0.45983   0.00743   0.36859   0.00000  Uiso   1.00
N376   N     0.05949   0.29850   0.60496   0.00000  Uiso   1.00
H377   H     0.07362   0.31754   0.57372   0.00000  Uiso   1.00
H378   H     0.04017   0.32591   0.63141   0.00000  Uiso   1.00
C379   C     0.74863   0.06659   0.48444   0.00000  Uiso   1.00
C380   C     0.75137   0.26674   0.51556   0.00000  Uiso   1.00
C381   C     0.51491   0.07845   0.43171   0.00000  Uiso   1.00
C382   C     0.98509   0.25488   0.56829   0.00000  Uiso   1.00
C383   C     0.74794   0.01062   0.47568   0.00000  Uiso   1.00
C384   C     0.75206   0.32271   0.52432   0.00000  Uiso   1.00
C385   C     0.66454   0.16531   0.50056   0.00000  Uiso   1.00
C386   C     0.83546   0.16802   0.49944   0.00000  Uiso   1.00
C387   C     0.91058   0.21309   0.53344   0.00000  Uiso   1.00
C388   C     0.58942   0.12024   0.46656   0.00000  Uiso   1.00
C389   C     0.88364   0.16964   0.49829   0.00000  Uiso   1.00
C390   C     0.61636   0.16369   0.50171   0.00000  Uiso   1.00
C391   C     0.90256   0.12628   0.46319   0.00000  Uiso   1.00
C392   C     0.59744   0.20705   0.53681   0.00000  Uiso   1.00
C393   C     0.94900   0.12409   0.46392   0.00000  Uiso   1.00
C394   C     0.55100   0.20924   0.53608   0.00000  Uiso   1.00
C395   C     0.97658   0.16738   0.49942   0.00000  Uiso   1.00
C396   C     0.52342   0.16596   0.50058   0.00000  Uiso   1.00
C397   C     0.95731   0.21210   0.53380   0.00000  Uiso   1.00
C398   C     0.54269   0.12123   0.46620   0.00000  Uiso   1.00
C399   C     0.96830   0.07935   0.43032   0.00000  Uiso   1.00
C400   C     0.53170   0.25398   0.56968   0.00000  Uiso   1.00
Cu401  Cu    0.75500   0.17246   0.56146   0.00000  Uiso   1.00
Cu402  Cu    0.74499   0.16087   0.43854   0.00000  Uiso   1.00
H403   H     0.88060   0.09370   0.43661   0.00000  Uiso   1.00
H404   H     0.61940   0.23963   0.56339   0.00000  Uiso   1.00
H405   H     0.52933   0.04388   0.40576   0.00000  Uiso   1.00
H406   H     0.97067   0.28945   0.59424   0.00000  Uiso   1.00
H407   H     0.74404   0.32012   0.42879   0.00000  Uiso   1.00
H408   H     0.75595   0.01321   0.57121   0.00000  Uiso   1.00
H409   H     0.71501   0.12587   0.64951   0.00000  Uiso   1.00
H410   H     0.78499   0.20746   0.35049   0.00000  Uiso   1.00
N411   N     0.73744   0.15214   0.34617   0.00000  Uiso   1.00
N412   N     0.76255   0.18119   0.65383   0.00000  Uiso   1.00
O413   O     0.75325   0.09538   0.53992   0.00000  Uiso   1.00
O414   O     0.74674   0.23796   0.46008   0.00000  Uiso   1.00
O415   O     0.74480   0.08559   0.43612   0.00000  Uiso   1.00
O416   O     0.75520   0.24774   0.56388   0.00000  Uiso   1.00
O417   O     0.68935   0.17155   0.55191   0.00000  Uiso   1.00
O418   O     0.81064   0.16179   0.44809   0.00000  Uiso   1.00
O419   O     0.68090   0.16176   0.44810   0.00000  Uiso   1.00
O420   O     0.81910   0.17157   0.55190   0.00000  Uiso   1.00
N421   N     0.89083   0.25866   0.56770   0.00000  Uiso   1.00
H422   H     0.87359   0.24773   0.60230   0.00000  Uiso   1.00
H423   H     0.86814   0.27240   0.53795   0.00000  Uiso   1.00
N424   N     0.60917   0.07467   0.43229   0.00000  Uiso   1.00
H425   H     0.62641   0.08560   0.39770   0.00000  Uiso   1.00
H426   H     0.63186   0.06093   0.46205   0.00000  Uiso   1.00
N427   N     0.94051   0.03483   0.39504   0.00000  Uiso   1.00
H428   H     0.92638   0.01579   0.42628   0.00000  Uiso   1.00
H429   H     0.95983   0.00743   0.36859   0.00000  Uiso   1.00
N430   N     0.55949   0.29850   0.60496   0.00000  Uiso   1.00
H431   H     0.57362   0.31754   0.57372   0.00000  Uiso   1.00
H432   H     0.54017   0.32591   0.63141   0.00000  Uiso   1.00
C433   C     0.24863   0.39992   0.48444   0.00000  Uiso   1.00
C434   C     0.25137   0.60008   0.51556   0.00000  Uiso   1.00
C435   C     0.01491   0.41179   0.43171   0.00000  Uiso   1.00
C436   C     0.48509   0.58821   0.56829   0.00000  Uiso   1.00
C437   C     0.24794   0.34396   0.47568   0.00000  Uiso   1.00
C438   C     0.25206   0.65604   0.52432   0.00000  Uiso   1.00
C439   C     0.16454   0.49865   0.50056   0.00000  Uiso   1.00
C440   C     0.33546   0.50135   0.49944   0.00000  Uiso   1.00
C441   C     0.41058   0.54643   0.53344   0.00000  Uiso   1.00
C442   C     0.08942   0.45357   0.46656   0.00000  Uiso   1.00
C443   C     0.38364   0.50297   0.49829   0.00000  Uiso   1.00
C444   C     0.11636   0.49703   0.50171   0.00000  Uiso   1.00
C445   C     0.40256   0.45961   0.46319   0.00000  Uiso   1.00
C446   C     0.09744   0.54039   0.53681   0.00000  Uiso   1.00
C447   C     0.44900   0.45742   0.46392   0.00000  Uiso   1.00
C448   C     0.05100   0.54258   0.53608   0.00000  Uiso   1.00
C449   C     0.47658   0.50071   0.49942   0.00000  Uiso   1.00
C450   C     0.02342   0.49929   0.50058   0.00000  Uiso   1.00
C451   C     0.45731   0.54543   0.53380   0.00000  Uiso   1.00
C452   C     0.04269   0.45457   0.46620   0.00000  Uiso   1.00
C453   C     0.46830   0.41268   0.43032   0.00000  Uiso   1.00
C454   C     0.03170   0.58732   0.56968   0.00000  Uiso   1.00
Cu455  Cu    0.25500   0.50579   0.56146   0.00000  Uiso   1.00
Cu456  Cu    0.24499   0.49421   0.43854   0.00000  Uiso   1.00
H457   H     0.38060   0.42703   0.43661   0.00000  Uiso   1.00
H458   H     0.11940   0.57297   0.56339   0.00000  Uiso   1.00
H459   H     0.02933   0.37721   0.40576   0.00000  Uiso   1.00
H460   H     0.47067   0.62279   0.59424   0.00000  Uiso   1.00
H461   H     0.24404   0.65345   0.42879   0.00000  Uiso   1.00
H462   H     0.25595   0.34655   0.57121   0.00000  Uiso   1.00
H463   H     0.21501   0.45920   0.64951   0.00000  Uiso   1.00
H464   H     0.28499   0.54080   0.35049   0.00000  Uiso   1.00
N465   N     0.23744   0.48547   0.34617   0.00000  Uiso   1.00
N466   N     0.26255   0.51453   0.65383   0.00000  Uiso   1.00
O467   O     0.25325   0.42871   0.53992   0.00000  Uiso   1.00
O468   O     0.24674   0.57129   0.46008   0.00000  Uiso   1.00
O469   O     0.24480   0.41892   0.43612   0.00000  Uiso   1.00
O470   O     0.25520   0.58108   0.56388   0.00000  Uiso   1.00
O471   O     0.18935   0.50488   0.55191   0.00000  Uiso   1.00
O472   O     0.31064   0.49512   0.44809   0.00000  Uiso   1.00
O473   O     0.18090   0.49510   0.44810   0.00000  Uiso   1.00
O474   O     0.31910   0.50490   0.55190   0.00000  Uiso   1.00
N475   N     0.39083   0.59199   0.56770   0.00000  Uiso   1.00
H476   H     0.37359   0.58107   0.60230   0.00000  Uiso   1.00
H477   H     0.36814   0.60573   0.53795   0.00000  Uiso   1.00
N478   N     0.10917   0.40801   0.43229   0.00000  Uiso   1.00
H479   H     0.12641   0.41893   0.39770   0.00000  Uiso   1.00
H480   H     0.13186   0.39426   0.46205   0.00000  Uiso   1.00
N481   N     0.44051   0.36817   0.39504   0.00000  Uiso   1.00
H482   H     0.42638   0.34912   0.42628   0.00000  Uiso   1.00
H483   H     0.45983   0.34076   0.36859   0.00000  Uiso   1.00
N484   N     0.05949   0.63183   0.60496   0.00000  Uiso   1.00
H485   H     0.07362   0.65088   0.57372   0.00000  Uiso   1.00
H486   H     0.04017   0.65924   0.63141   0.00000  Uiso   1.00
C487   C     0.74863   0.39992   0.48444   0.00000  Uiso   1.00
C488   C     0.75137   0.60008   0.51556   0.00000  Uiso   1.00
C489   C     0.51491   0.41179   0.43171   0.00000  Uiso   1.00
C490   C     0.98509   0.58821   0.56829   0.00000  Uiso   1.00
C491   C     0.74794   0.34396   0.47568   0.00000  Uiso   1.00
C492   C     0.75206   0.65604   0.52432   0.00000  Uiso   1.00
C493   C     0.66454   0.49865   0.50056   0.00000  Uiso   1.00
C494   C     0.83546   0.50135   0.49944   0.00000  Uiso   1.00
C495   C     0.91058   0.54643   0.53344   0.00000  Uiso   1.00
C496   C     0.58942   0.45357   0.46656   0.00000  Uiso   1.00
C497   C     0.88364   0.50297   0.49829   0.00000  Uiso   1.00
C498   C     0.61636   0.49703   0.50171   0.00000  Uiso   1.00
C499   C     0.90256   0.45961   0.46319   0.00000  Uiso   1.00
C500   C     0.59744   0.54039   0.53681   0.00000  Uiso   1.00
C501   C     0.94900   0.45742   0.46392   0.00000  Uiso   1.00
C502   C     0.55100   0.54258   0.53608   0.00000  Uiso   1.00
C503   C     0.97658   0.50071   0.49942   0.00000  Uiso   1.00
C504   C     0.52342   0.49929   0.50058   0.00000  Uiso   1.00
C505   C     0.95731   0.54543   0.53380   0.00000  Uiso   1.00
C506   C     0.54269   0.45457   0.46620   0.00000  Uiso   1.00
C507   C     0.96830   0.41268   0.43032   0.00000  Uiso   1.00
C508   C     0.53170   0.58732   0.56968   0.00000  Uiso   1.00
Cu509  Cu    0.75500   0.50579   0.56146   0.00000  Uiso   1.00
Cu510  Cu    0.74499   0.49421   0.43854   0.00000  Uiso   1.00
H511   H     0.88060   0.42703   0.43661   0.00000  Uiso   1.00
H512   H     0.61940   0.57297   0.56339   0.00000  Uiso   1.00
H513   H     0.52933   0.37721   0.40576   0.00000  Uiso   1.00
H514   H     0.97067   0.62279   0.59424   0.00000  Uiso   1.00
H515   H     0.74404   0.65345   0.42879   0.00000  Uiso   1.00
H516   H     0.75595   0.34655   0.57121   0.00000  Uiso   1.00
H517   H     0.71501   0.45920   0.64951   0.00000  Uiso   1.00
H518   H     0.78499   0.54080   0.35049   0.00000  Uiso   1.00
N519   N     0.73744   0.48547   0.34617   0.00000  Uiso   1.00
N520   N     0.76255   0.51453   0.65383   0.00000  Uiso   1.00
O521   O     0.75325   0.42871   0.53992   0.00000  Uiso   1.00
O522   O     0.74674   0.57129   0.46008   0.00000  Uiso   1.00
O523   O     0.74480   0.41892   0.43612   0.00000  Uiso   1.00
O524   O     0.75520   0.58108   0.56388   0.00000  Uiso   1.00
O525   O     0.68935   0.50488   0.55191   0.00000  Uiso   1.00
O526   O     0.81064   0.49512   0.44809   0.00000  Uiso   1.00
O527   O     0.68090   0.49510   0.44810   0.00000  Uiso   1.00
O528   O     0.81910   0.50490   0.55190   0.00000  Uiso   1.00
N529   N     0.89083   0.59199   0.56770   0.00000  Uiso   1.00
H530   H     0.87359   0.58107   0.60230   0.00000  Uiso   1.00
H531   H     0.86814   0.60573   0.53795   0.00000  Uiso   1.00
N532   N     0.60917   0.40801   0.43229   0.00000  Uiso   1.00
H533   H     0.62641   0.41893   0.39770   0.00000  Uiso   1.00
H534   H     0.63186   0.39426   0.46205   0.00000  Uiso   1.00
N535   N     0.94051   0.36817   0.39504   0.00000  Uiso   1.00
H536   H     0.92638   0.34912   0.42628   0.00000  Uiso   1.00
H537   H     0.95983   0.34076   0.36859   0.00000  Uiso   1.00
N538   N     0.55949   0.63183   0.60496   0.00000  Uiso   1.00
H539   H     0.57362   0.65088   0.57372   0.00000  Uiso   1.00
H540   H     0.54017   0.65924   0.63141   0.00000  Uiso   1.00
C541   C     0.24863   0.73326   0.48444   0.00000  Uiso   1.00
C542   C     0.25137   0.93341   0.51556   0.00000  Uiso   1.00
C543   C     0.01491   0.74512   0.43171   0.00000  Uiso   1.00
C544   C     0.48509   0.92155   0.56829   0.00000  Uiso   1.00
C545   C     0.24794   0.67729   0.47568   0.00000  Uiso   1.00
C546   C     0.25206   0.98938   0.52432   0.00000  Uiso   1.00
C547   C     0.16454   0.83198   0.50056   0.00000  Uiso   1.00
C548   C     0.33546   0.83469   0.49944   0.00000  Uiso   1.00
C549   C     0.41058   0.87976   0.53344   0.00000  Uiso   1.00
C550   C     0.08942   0.78690   0.46656   0.00000  Uiso   1.00
C551   C     0.38364   0.83631   0.49829   0.00000  Uiso   1.00
C552   C     0.11636   0.83036   0.50171   0.00000  Uiso   1.00
C553   C     0.40256   0.79295   0.46319   0.00000  Uiso   1.00
C554   C     0.09744   0.87372   0.53681   0.00000  Uiso   1.00
C555   C     0.44900   0.79076   0.46392   0.00000  Uiso   1.00
C556   C     0.05100   0.87591   0.53608   0.00000  Uiso   1.00
C557   C     0.47658   0.83404   0.49942   0.00000  Uiso   1.00
C558   C     0.02342   0.83262   0.50058   0.00000  Uiso   1.00
C559   C     0.45731   0.87877   0.53380   0.00000  Uiso   1.00
C560   C     0.04269   0.78790   0.46620   0.00000  Uiso   1.00
C561   C     0.46830   0.74602   0.43032   0.00000  Uiso   1.00
C562   C     0.03170   0.92065   0.56968   0.00000  Uiso   1.00
Cu563  Cu    0.25500   0.83913   0.56146   0.00000  Uiso   1.00
Cu564  Cu    0.24499   0.82754   0.43854   0.00000  Uiso   1.00
H565   H     0.38060   0.76037   0.43661   0.00000  Uiso   1.00
H566   H     0.11940   0.90630   0.56339   0.00000  Uiso   1.00
H567   H     0.02933   0.71055   0.40576   0.00000  Uiso   1.00
H568   H     0.47067   0.95612   0.59424   0.00000  Uiso   1.00
H569   H     0.24404   0.98679   0.42879   0.00000  Uiso   1.00
H570   H     0.25595   0.67988   0.57121   0.00000  Uiso   1.00
H571   H     0.21501   0.79254   0.64951   0.00000  Uiso   1.00
H572   H     0.28499   0.87413   0.35049   0.00000  Uiso   1.00
N573   N     0.23744   0.81881   0.34617   0.00000  Uiso   1.00
N574   N     0.26255   0.84786   0.65383   0.00000  Uiso   1.00
O575   O     0.25325   0.76204   0.53992   0.00000  Uiso   1.00
O576   O     0.24674   0.90462   0.46008   0.00000  Uiso   1.00
O577   O     0.24480   0.75226   0.43612   0.00000  Uiso   1.00
O578   O     0.25520   0.91441   0.56388   0.00000  Uiso   1.00
O579   O     0.18935   0.83821   0.55191   0.00000  Uiso   1.00
O580   O     0.31064   0.82845   0.44809   0.00000  Uiso   1.00
O581   O     0.18090   0.82843   0.44810   0.00000  Uiso   1.00
O582   O     0.31910   0.83824   0.55190   0.00000  Uiso   1.00
N583   N     0.39083   0.92532   0.56770   0.00000  Uiso   1.00
H584   H     0.37359   0.91440   0.60230   0.00000  Uiso   1.00
H585   H     0.36814   0.93907   0.53795   0.00000  Uiso   1.00
N586   N     0.10917   0.74134   0.43229   0.00000  Uiso   1.00
H587   H     0.12641   0.75226   0.39770   0.00000  Uiso   1.00
H588   H     0.13186   0.72760   0.46205   0.00000  Uiso   1.00
N589   N     0.44051   0.70150   0.39504   0.00000  Uiso   1.00
H590   H     0.42638   0.68246   0.42628   0.00000  Uiso   1.00
H591   H     0.45983   0.67409   0.36859   0.00000  Uiso   1.00
N592   N     0.05949   0.96517   0.60496   0.00000  Uiso   1.00
H593   H     0.07362   0.98421   0.57372   0.00000  Uiso   1.00
H594   H     0.04017   0.99257   0.63141   0.00000  Uiso   1.00
C595   C     0.74863   0.73326   0.48444   0.00000  Uiso   1.00
C596   C     0.75137   0.93341   0.51556   0.00000  Uiso   1.00
C597   C     0.51491   0.74512   0.43171   0.00000  Uiso   1.00
C598   C     0.98509   0.92155   0.56829   0.00000  Uiso   1.00
C599   C     0.74794   0.67729   0.47568   0.00000  Uiso   1.00
C600   C     0.75206   0.98938   0.52432   0.00000  Uiso   1.00
C601   C     0.66454   0.83198   0.50056   0.00000  Uiso   1.00
C602   C     0.83546   0.83469   0.49944   0.00000  Uiso   1.00
C603   C     0.91058   0.87976   0.53344   0.00000  Uiso   1.00
C604   C     0.58942   0.78690   0.46656   0.00000  Uiso   1.00
C605   C     0.88364   0.83631   0.49829   0.00000  Uiso   1.00
C606   C     0.61636   0.83036   0.50171   0.00000  Uiso   1.00
C607   C     0.90256   0.79295   0.46319   0.00000  Uiso   1.00
C608   C     0.59744   0.87372   0.53681   0.00000  Uiso   1.00
C609   C     0.94900   0.79076   0.46392   0.00000  Uiso   1.00
C610   C     0.55100   0.87591   0.53608   0.00000  Uiso   1.00
C611   C     0.97658   0.83404   0.49942   0.00000  Uiso   1.00
C612   C     0.52342   0.83262   0.50058   0.00000  Uiso   1.00
C613   C     0.95731   0.87877   0.53380   0.00000  Uiso   1.00
C614   C     0.54269   0.78790   0.46620   0.00000  Uiso   1.00
C615   C     0.96830   0.74602   0.43032   0.00000  Uiso   1.00
C616   C     0.53170   0.92065   0.56968   0.00000  Uiso   1.00
Cu617  Cu    0.75500   0.83913   0.56146   0.00000  Uiso   1.00
Cu618  Cu    0.74499   0.82754   0.43854   0.00000  Uiso   1.00
H619   H     0.88060   0.76037   0.43661   0.00000  Uiso   1.00
H620   H     0.61940   0.90630   0.56339   0.00000  Uiso   1.00
H621   H     0.52933   0.71055   0.40576   0.00000  Uiso   1.00
H622   H     0.97067   0.95612   0.59424   0.00000  Uiso   1.00
H623   H     0.74404   0.98679   0.42879   0.00000  Uiso   1.00
H624   H     0.75595   0.67988   0.57121   0.00000  Uiso   1.00
H625   H     0.71501   0.79254   0.64951   0.00000  Uiso   1.00
H626   H     0.78499   0.87413   0.35049   0.00000  Uiso   1.00
N627   N     0.73744   0.81881   0.34617   0.00000  Uiso   1.00
N628   N     0.76255   0.84786   0.65383   0.00000  Uiso   1.00
O629   O     0.75325   0.76204   0.53992   0.00000  Uiso   1.00
O630   O     0.74674   0.90462   0.46008   0.00000  Uiso   1.00
O631   O     0.74480   0.75226   0.43612   0.00000  Uiso   1.00
O632   O     0.75520   0.91441   0.56388   0.00000  Uiso   1.00
O633   O     0.68935   0.83821   0.55191   0.00000  Uiso   1.00
O634   O     0.81064   0.82845   0.44809   0.00000  Uiso   1.00
O635   O     0.68090   0.82843   0.44810   0.00000  Uiso   1.00
O636   O     0.81910   0.83824   0.55190   0.00000  Uiso   1.00
N637   N     0.89083   0.92532   0.56770   0.00000  Uiso   1.00
H638   H     0.87359   0.91440   0.60230   0.00000  Uiso   1.00
H639   H     0.86814   0.93907   0.53795   0.00000  Uiso   1.00
N640   N     0.60917   0.74134   0.43229   0.00000  Uiso   1.00
H641   H     0.62641   0.75226   0.39770   0.00000  Uiso   1.00
H642   H     0.63186   0.72760   0.46205   0.00000  Uiso   1.00
N643   N     0.94051   0.70150   0.39504   0.00000  Uiso   1.00
H644   H     0.92638   0.68246   0.42628   0.00000  Uiso   1.00
H645   H     0.95983   0.67409   0.36859   0.00000  Uiso   1.00
N646   N     0.55949   0.96517   0.60496   0.00000  Uiso   1.00
H647   H     0.57362   0.98421   0.57372   0.00000  Uiso   1.00
H648   H     0.54017   0.99257   0.63141   0.00000  Uiso   1.00
C649   C     0.24863   0.06659   0.81777   0.00000  Uiso   1.00
C650   C     0.25137   0.26674   0.84889   0.00000  Uiso   1.00
C651   C     0.01491   0.07845   0.76504   0.00000  Uiso   1.00
C652   C     0.48509   0.25488   0.90162   0.00000  Uiso   1.00
C653   C     0.24794   0.01062   0.80901   0.00000  Uiso   1.00
C654   C     0.25206   0.32271   0.85766   0.00000  Uiso   1.00
C655   C     0.16454   0.16531   0.83389   0.00000  Uiso   1.00
C656   C     0.33546   0.16802   0.83278   0.00000  Uiso   1.00
C657   C     0.41058   0.21309   0.86677   0.00000  Uiso   1.00
C658   C     0.08942   0.12024   0.79990   0.00000  Uiso   1.00
C659   C     0.38364   0.16964   0.83162   0.00000  Uiso   1.00
C660   C     0.11636   0.16369   0.83505   0.00000  Uiso   1.00
C661   C     0.40256   0.12628   0.79652   0.00000  Uiso   1.00
C662   C     0.09744   0.20705   0.87014   0.00000  Uiso   1.00
C663   C     0.44900   0.12409   0.79726   0.00000  Uiso   1.00
C664   C     0.05100   0.20924   0.86941   0.00000  Uiso   1.00
C665   C     0.47658   0.16738   0.83275   0.00000  Uiso   1.00
C666   C     0.02342   0.16596   0.83392   0.00000  Uiso   1.00
C667   C     0.45731   0.21210   0.86713   0.00000  Uiso   1.00
C668   C     0.04269   0.12123   0.79953   0.00000  Uiso   1.00
C669   C     0.46830   0.07935   0.76365   0.00000  Uiso   1.00
C670   C     0.03170   0.25398   0.90302   0.00000  Uiso   1.00
Cu671  Cu    0.25500   0.17246   0.89479   0.00000  Uiso   1.00
Cu672  Cu    0.24499   0.16087   0.77187   0.00000  Uiso   1.00
H673   H     0.38060   0.09370   0.76995   0.00000  Uiso   1.00
H674   H     0.11940   0.23963   0.89672   0.00000  Uiso   1.00
H675   H     0.02933   0.04388   0.73909   0.00000  Uiso   1.00
H676   H     0.47067   0.28945   0.92757   0.00000  Uiso   1.00
H677   H     0.24404   0.32012   0.76212   0.00000  Uiso   1.00
H678   H     0.25595   0.01321   0.90455   0.00000  Uiso   1.00
H679   H     0.21501   0.12587   0.98285   0.00000  Uiso   1.00
H680   H     0.28499   0.20746   0.68382   0.00000  Uiso   1.00
N681   N     0.23744   0.15214   0.67951   0.00000  Uiso   1.00
N682   N     0.26255   0.18119   0.98716   0.00000  Uiso   1.00
O683   O     0.25325   0.09538   0.87326   0.00000  Uiso   1.00
O684   O     0.24674   0.23796   0.79341   0.00000  Uiso   1.00
O685   O     0.24480   0.08559   0.76945   0.00000  Uiso   1.00
O686   O     0.25520   0.24774   0.89721   0.00000  Uiso   1.00
O687   O     0.18935   0.17155   0.88524   0.00000  Uiso   1.00
O688   O     0.31064   0.16179   0.78143   0.00000  Uiso   1.00
O689   O     0.18090   0.16176   0.78143   0.00000  Uiso   1.00
O690   O     0.31910   0.17157   0.88523   0.00000  Uiso   1.00
N691   N     0.39083   0.25866   0.90104   0.00000  Uiso   1.00
H692   H     0.37359   0.24773   0.93563   0.00000  Uiso   1.00
H693   H     0.36814   0.27240   0.87128   0.00000  Uiso   1.00
N694   N     0.10917   0.07467   0.76563   0.00000  Uiso   1.00
H695   H     0.12641   0.08560   0.73103   0.00000  Uiso   1.00
H696   H     0.13186   0.06093   0.79538   0.00000  Uiso   1.00
N697   N     0.44051   0.03483   0.72838   0.00000  Uiso   1.00
H698   H     0.42638   0.01579   0.75962   0.00000  Uiso   1.00
H699   H     0.45983   0.00743   0.70193   0.00000  Uiso   1.00
N700   N     0.05949   0.29850   0.93829   0.00000  Uiso   1.00
H701   H     0.07362   0.31754   0.90705   0.00000  Uiso   1.00
H702   H     0.04017   0.32591   0.96474   0.00000  Uiso   1.00
C703   C     0.74863   0.06659   0.81777   0.00000  Uiso   1.00
C704   C     0.75137   0.26674   0.84889   0.00000  Uiso   1.00
C705   C     0.51491   0.07845   0.76504   0.00000  Uiso   1.00
C706   C     0.98509   0.25488   0.90162   0.00000  Uiso   1.00
C707   C     0.74794   0.01062   0.80901   0.00000  Uiso   1.00
C708   C     0.75206   0.32271   0.85766   0.00000  Uiso   1.00
C709   C     0.66454   0.16531   0.83389   0.00000  Uiso   1.00
C710   C     0.83546   0.16802   0.83278   0.00000  Uiso   1.00
C711   C     0.91058   0.21309   0.86677   0.00000  Uiso   1.00
C712   C     0.58942   0.12024   0.79990   0.00000  Uiso   1.00
C713   C     0.88364   0.16964   0.83162   0.00000  Uiso   1.00
C714   C     0.61636   0.16369   0.83505   0.00000  Uiso   1.00
C715   C     0.90256   0.12628   0.79652   0.00000  Uiso   1.00
C716   C     0.59744   0.20705   0.87014   0.00000  Uiso   1.00
C717   C     0.94900   0.12409   0.79726   0.00000  Uiso   1.00
C718   C     0.55100   0.20924   0.86941   0.00000  Uiso   1.00
C719   C     0.97658   0.16738   0.83275   0.00000  Uiso   1.00
C720   C     0.52342   0.16596   0.83392   0.00000  Uiso   1.00
C721   C     0.95731   0.21210   0.86713   0.00000  Uiso   1.00
C722   C     0.54269   0.12123   0.79953   0.00000  Uiso   1.00
C723   C     0.96830   0.07935   0.76365   0.00000  Uiso   1.00
C724   C     0.53170   0.25398   0.90302   0.00000  Uiso   1.00
Cu725  Cu    0.75500   0.17246   0.89479   0.00000  Uiso   1.00
Cu726  Cu    0.74499   0.16087   0.77187   0.00000  Uiso   1.00
H727   H     0.88060   0.09370   0.76995   0.00000  Uiso   1.00
H728   H     0.61940   0.23963   0.89672   0.00000  Uiso   1.00
H729   H     0.52933   0.04388   0.73909   0.00000  Uiso   1.00
H730   H     0.97067   0.28945   0.92757   0.00000  Uiso   1.00
H731   H     0.74404   0.32012   0.76212   0.00000  Uiso   1.00
H732   H     0.75595   0.01321   0.90455   0.00000  Uiso   1.00
H733   H     0.71501   0.12587   0.98285   0.00000  Uiso   1.00
H734   H     0.78499   0.20746   0.68382   0.00000  Uiso   1.00
N735   N     0.73744   0.15214   0.67951   0.00000  Uiso   1.00
N736   N     0.76255   0.18119   0.98716   0.00000  Uiso   1.00
O737   O     0.75325   0.09538   0.87326   0.00000  Uiso   1.00
O738   O     0.74674   0.23796   0.79341   0.00000  Uiso   1.00
O739   O     0.74480   0.08559   0.76945   0.00000  Uiso   1.00
O740   O     0.75520   0.24774   0.89721   0.00000  Uiso   1.00
O741   O     0.68935   0.17155   0.88524   0.00000  Uiso   1.00
O742   O     0.81064   0.16179   0.78143   0.00000  Uiso   1.00
O743   O     0.68090   0.16176   0.78143   0.00000  Uiso   1.00
O744   O     0.81910   0.17157   0.88523   0.00000  Uiso   1.00
N745   N     0.89083   0.25866   0.90104   0.00000  Uiso   1.00
H746   H     0.87359   0.24773   0.93563   0.00000  Uiso   1.00
H747   H     0.86814   0.27240   0.87128   0.00000  Uiso   1.00
N748   N     0.60917   0.07467   0.76563   0.00000  Uiso   1.00
H749   H     0.62641   0.08560   0.73103   0.00000  Uiso   1.00
H750   H     0.63186   0.06093   0.79538   0.00000  Uiso   1.00
N751   N     0.94051   0.03483   0.72838   0.00000  Uiso   1.00
H752   H     0.92638   0.01579   0.75962   0.00000  Uiso   1.00
H753   H     0.95983   0.00743   0.70193   0.00000  Uiso   1.00
N754   N     0.55949   0.29850   0.93829   0.00000  Uiso   1.00
H755   H     0.57362   0.31754   0.90705   0.00000  Uiso   1.00
H756   H     0.54017   0.32591   0.96474   0.00000  Uiso   1.00
C757   C     0.24863   0.39992   0.81777   0.00000  Uiso   1.00
C758   C     0.25137   0.60008   0.84889   0.00000  Uiso   1.00
C759   C     0.01491   0.41179   0.76504   0.00000  Uiso   1.00
C760   C     0.48509   0.58821   0.90162   0.00000  Uiso   1.00
C761   C     0.24794   0.34396   0.80901   0.00000  Uiso   1.00
C762   C     0.25206   0.65604   0.85766   0.00000  Uiso   1.00
C763   C     0.16454   0.49865   0.83389   0.00000  Uiso   1.00
C764   C     0.33546   0.50135   0.83278   0.00000  Uiso   1.00
C765   C     0.41058   0.54643   0.86677   0.00000  Uiso   1.00
C766   C     0.08942   0.45357   0.79990   0.00000  Uiso   1.00
C767   C     0.38364   0.50297   0.83162   0.00000  Uiso   1.00
C768   C     0.11636   0.49703   0.83505   0.00000  Uiso   1.00
C769   C     0.40256   0.45961   0.79652   0.00000  Uiso   1.00
C770   C     0.09744   0.54039   0.87014   0.00000  Uiso   1.00
C771   C     0.44900   0.45742   0.79726   0.00000  Uiso   1.00
C772   C     0.05100   0.54258   0.86941   0.00000  Uiso   1.00
C773   C     0.47658   0.50071   0.83275   0.00000  Uiso   1.00
C774   C     0.02342   0.49929   0.83392   0.00000  Uiso   1.00
C775   C     0.45731   0.54543   0.86713   0.00000  Uiso   1.00
C776   C     0.04269   0.45457   0.79953   0.00000  Uiso   1.00
C777   C     0.46830   0.41268   0.76365   0.00000  Uiso   1.00
C778   C     0.03170   0.58732   0.90302   0.00000  Uiso   1.00
Cu779  Cu    0.25500   0.50579   0.89479   0.00000  Uiso   1.00
Cu780  Cu    0.24499   0.49421   0.77187   0.00000  Uiso   1.00
H781   H     0.38060   0.42703   0.76995   0.00000  Uiso   1.00
H782   H     0.11940   0.57297   0.89672   0.00000  Uiso   1.00
H783   H     0.02933   0.37721   0.73909   0.00000  Uiso   1.00
H784   H     0.47067   0.62279   0.92757   0.00000  Uiso   1.00
H785   H     0.24404   0.65345   0.76212   0.00000  Uiso   1.00
H786   H     0.25595   0.34655   0.90455   0.00000  Uiso   1.00
H787   H     0.21501   0.45920   0.98285   0.00000  Uiso   1.00
H788   H     0.28499   0.54080   0.68382   0.00000  Uiso   1.00
N789   N     0.23744   0.48547   0.67951   0.00000  Uiso   1.00
N790   N     0.26255   0.51453   0.98716   0.00000  Uiso   1.00
O791   O     0.25325   0.42871   0.87326   0.00000  Uiso   1.00
O792   O     0.24674   0.57129   0.79341   0.00000  Uiso   1.00
O793   O     0.24480   0.41892   0.76945   0.00000  Uiso   1.00
O794   O     0.25520   0.58108   0.89721   0.00000  Uiso   1.00
O795   O     0.18935   0.50488   0.88524   0.00000  Uiso   1.00
O796   O     0.31064   0.49512   0.78143   0.00000  Uiso   1.00
O797   O     0.18090   0.49510   0.78143   0.00000  Uiso   1.00
O798   O     0.31910   0.50490   0.88523   0.00000  Uiso   1.00
N799   N     0.39083   0.59199   0.90104   0.00000  Uiso   1.00
H800   H     0.37359   0.58107   0.93563   0.00000  Uiso   1.00
H801   H     0.36814   0.60573   0.87128   0.00000  Uiso   1.00
N802   N     0.10917   0.40801   0.76563   0.00000  Uiso   1.00
H803   H     0.12641   0.41893   0.73103   0.00000  Uiso   1.00
H804   H     0.13186   0.39426   0.79538   0.00000  Uiso   1.00
N805   N     0.44051   0.36817   0.72838   0.00000  Uiso   1.00
H806   H     0.42638   0.34912   0.75962   0.00000  Uiso   1.00
H807   H     0.45983   0.34076   0.70193   0.00000  Uiso   1.00
N808   N     0.05949   0.63183   0.93829   0.00000  Uiso   1.00
H809   H     0.07362   0.65088   0.90705   0.00000  Uiso   1.00
H810   H     0.04017   0.65924   0.96474   0.00000  Uiso   1.00
C811   C     0.74863   0.39992   0.81777   0.00000  Uiso   1.00
C812   C     0.75137   0.60008   0.84889   0.00000  Uiso   1.00
C813   C     0.51491   0.41179   0.76504   0.00000  Uiso   1.00
C814   C     0.98509   0.58821   0.90162   0.00000  Uiso   1.00
C815   C     0.74794   0.34396   0.80901   0.00000  Uiso   1.00
C816   C     0.75206   0.65604   0.85766   0.00000  Uiso   1.00
C817   C     0.66454   0.49865   0.83389   0.00000  Uiso   1.00
C818   C     0.83546   0.50135   0.83278   0.00000  Uiso   1.00
C819   C     0.91058   0.54643   0.86677   0.00000  Uiso   1.00
C820   C     0.58942   0.45357   0.79990   0.00000  Uiso   1.00
C821   C     0.88364   0.50297   0.83162   0.00000  Uiso   1.00
C822   C     0.61636   0.49703   0.83505   0.00000  Uiso   1.00
C823   C     0.90256   0.45961   0.79652   0.00000  Uiso   1.00
C824   C     0.59744   0.54039   0.87014   0.00000  Uiso   1.00
C825   C     0.94900   0.45742   0.79726   0.00000  Uiso   1.00
C826   C     0.55100   0.54258   0.86941   0.00000  Uiso   1.00
C827   C     0.97658   0.50071   0.83275   0.00000  Uiso   1.00
C828   C     0.52342   0.49929   0.83392   0.00000  Uiso   1.00
C829   C     0.95731   0.54543   0.86713   0.00000  Uiso   1.00
C830   C     0.54269   0.45457   0.79953   0.00000  Uiso   1.00
C831   C     0.96830   0.41268   0.76365   0.00000  Uiso   1.00
C832   C     0.53170   0.58732   0.90302   0.00000  Uiso   1.00
Cu833  Cu    0.75500   0.50579   0.89479   0.00000  Uiso   1.00
Cu834  Cu    0.74499   0.49421   0.77187   0.00000  Uiso   1.00
H835   H     0.88060   0.42703   0.76995   0.00000  Uiso   1.00
H836   H     0.61940   0.57297   0.89672   0.00000  Uiso   1.00
H837   H     0.52933   0.37721   0.73909   0.00000  Uiso   1.00
H838   H     0.97067   0.62279   0.92757   0.00000  Uiso   1.00
H839   H     0.74404   0.65345   0.76212   0.00000  Uiso   1.00
H840   H     0.75595   0.34655   0.90455   0.00000  Uiso   1.00
H841   H     0.71501   0.45920   0.98285   0.00000  Uiso   1.00
H842   H     0.78499   0.54080   0.68382   0.00000  Uiso   1.00
N843   N     0.73744   0.48547   0.67951   0.00000  Uiso   1.00
N844   N     0.76255   0.51453   0.98716   0.00000  Uiso   1.00
O845   O     0.75325   0.42871   0.87326   0.00000  Uiso   1.00
O846   O     0.74674   0.57129   0.79341   0.00000  Uiso   1.00
O847   O     0.74480   0.41892   0.76945   0.00000  Uiso   1.00
O848   O     0.75520   0.58108   0.89721   0.00000  Uiso   1.00
O849   O     0.68935   0.50488   0.88524   0.00000  Uiso   1.00
O850   O     0.81064   0.49512   0.78143   0.00000  Uiso   1.00
O851   O     0.68090   0.49510   0.78143   0.00000  Uiso   1.00
O852   O     0.81910   0.50490   0.88523   0.00000  Uiso   1.00
N853   N     0.89083   0.59199   0.90104   0.00000  Uiso   1.00
H854   H     0.87359   0.58107   0.93563   0.00000  Uiso   1.00
H855   H     0.86814   0.60573   0.87128   0.00000  Uiso   1.00
N856   N     0.60917   0.40801   0.76563   0.00000  Uiso   1.00
H857   H     0.62641   0.41893   0.73103   0.00000  Uiso   1.00
H858   H     0.63186   0.39426   0.79538   0.00000  Uiso   1.00
N859   N     0.94051   0.36817   0.72838   0.00000  Uiso   1.00
H860   H     0.92638   0.34912   0.75962   0.00000  Uiso   1.00
H861   H     0.95983   0.34076   0.70193   0.00000  Uiso   1.00
N862   N     0.55949   0.63183   0.93829   0.00000  Uiso   1.00
H863   H     0.57362   0.65088   0.90705   0.00000  Uiso   1.00
H864   H     0.54017   0.65924   0.96474   0.00000  Uiso   1.00
C865   C     0.24863   0.73326   0.81777   0.00000  Uiso   1.00
C866   C     0.25137   0.93341   0.84889   0.00000  Uiso   1.00
C867   C     0.01491   0.74512   0.76504   0.00000  Uiso   1.00
C868   C     0.48509   0.92155   0.90162   0.00000  Uiso   1.00
C869   C     0.24794   0.67729   0.80901   0.00000  Uiso   1.00
C870   C     0.25206   0.98938   0.85766   0.00000  Uiso   1.00
C871   C     0.16454   0.83198   0.83389   0.00000  Uiso   1.00
C872   C     0.33546   0.83469   0.83278   0.00000  Uiso   1.00
C873   C     0.41058   0.87976   0.86677   0.00000  Uiso   1.00
C874   C     0.08942   0.78690   0.79990   0.00000  Uiso   1.00
C875   C     0.38364   0.83631   0.83162   0.00000  Uiso   1.00
C876   C     0.11636   0.83036   0.83505   0.00000  Uiso   1.00
C877   C     0.40256   0.79295   0.79652   0.00000  Uiso   1.00
C878   C     0.09744   0.87372   0.87014   0.00000  Uiso   1.00
C879   C     0.44900   0.79076   0.79726   0.00000  Uiso   1.00
C880   C     0.05100   0.87591   0.86941   0.00000  Uiso   1.00
C881   C     0.47658   0.83404   0.83275   0.00000  Uiso   1.00
C882   C     0.02342   0.83262   0.83392   0.00000  Uiso   1.00
C883   C     0.45731   0.87877   0.86713   0.00000  Uiso   1.00
C884   C     0.04269   0.78790   0.79953   0.00000  Uiso   1.00
C885   C     0.46830   0.74602   0.76365   0.00000  Uiso   1.00
C886   C     0.03170   0.92065   0.90302   0.00000  Uiso   1.00
Cu887  Cu    0.25500   0.83913   0.89479   0.00000  Uiso   1.00
Cu888  Cu    0.24499   0.82754   0.77187   0.00000  Uiso   1.00
H889   H     0.38060   0.76037   0.76995   0.00000  Uiso   1.00
H890   H     0.11940   0.90630   0.89672   0.00000  Uiso   1.00
H891   H     0.02933   0.71055   0.73909   0.00000  Uiso   1.00
H892   H     0.47067   0.95612   0.92757   0.00000  Uiso   1.00
H893   H     0.24404   0.98679   0.76212   0.00000  Uiso   1.00
H894   H     0.25595   0.67988   0.90455   0.00000  Uiso   1.00
H895   H     0.21501   0.79254   0.98285   0.00000  Uiso   1.00
H896   H     0.28499   0.87413   0.68382   0.00000  Uiso   1.00
N897   N     0.23744   0.81881   0.67951   0.00000  Uiso   1.00
N898   N     0.26255   0.84786   0.98716   0.00000  Uiso   1.00
O899   O     0.25325   0.76204   0.87326   0.00000  Uiso   1.00
O900   O     0.24674   0.90462   0.79341   0.00000  Uiso   1.00
O901   O     0.24480   0.75226   0.76945   0.00000  Uiso   1.00
O902   O     0.25520   0.91441   0.89721   0.00000  Uiso   1.00
O903   O     0.18935   0.83821   0.88524   0.00000  Uiso   1.00
O904   O     0.31064   0.82845   0.78143   0.00000  Uiso   1.00
O905   O     0.18090   0.82843   0.78143   0.00000  Uiso   1.00
O906   O     0.31910   0.83824   0.88523   0.00000  Uiso   1.00
N907   N     0.39083   0.92532   0.90104   0.00000  Uiso   1.00
H908   H     0.37359   0.91440   0.93563   0.00000  Uiso   1.00
H909   H     0.36814   0.93907   0.87128   0.00000  Uiso   1.00
N910   N     0.10917   0.74134   0.76563   0.00000  Uiso   1.00
H911   H     0.12641   0.75226   0.73103   0.00000  Uiso   1.00
H912   H     0.13186   0.72760   0.79538   0.00000  Uiso   1.00
N913   N     0.44051   0.70150   0.72838   0.00000  Uiso   1.00
H914   H     0.42638   0.68246   0.75962   0.00000  Uiso   1.00
H915   H     0.45983   0.67409   0.70193   0.00000  Uiso   1.00
N916   N     0.05949   0.96517   0.93829   0.00000  Uiso   1.00
H917   H     0.07362   0.98421   0.90705   0.00000  Uiso   1.00
H918   H     0.04017   0.99257   0.96474   0.00000  Uiso   1.00
C919   C     0.74863   0.73326   0.81777   0.00000  Uiso   1.00
C920   C     0.75137   0.93341   0.84889   0.00000  Uiso   1.00
C921   C     0.51491   0.74512   0.76504   0.00000  Uiso   1.00
C922   C     0.98509   0.92155   0.90162   0.00000  Uiso   1.00
C923   C     0.74794   0.67729   0.80901   0.00000  Uiso   1.00
C924   C     0.75206   0.98938   0.85766   0.00000  Uiso   1.00
C925   C     0.66454   0.83198   0.83389   0.00000  Uiso   1.00
C926   C     0.83546   0.83469   0.83278   0.00000  Uiso   1.00
C927   C     0.91058   0.87976   0.86677   0.00000  Uiso   1.00
C928   C     0.58942   0.78690   0.79990   0.00000  Uiso   1.00
C929   C     0.88364   0.83631   0.83162   0.00000  Uiso   1.00
C930   C     0.61636   0.83036   0.83505   0.00000  Uiso   1.00
C931   C     0.90256   0.79295   0.79652   0.00000  Uiso   1.00
C932   C     0.59744   0.87372   0.87014   0.00000  Uiso   1.00
C933   C     0.94900   0.79076   0.79726   0.00000  Uiso   1.00
C934   C     0.55100   0.87591   0.86941   0.00000  Uiso   1.00
C935   C     0.97658   0.83404   0.83275   0.00000  Uiso   1.00
C936   C     0.52342   0.83262   0.83392   0.00000  Uiso   1.00
C937   C     0.95731   0.87877   0.86713   0.00000  Uiso   1.00
C938   C     0.54269   0.78790   0.79953   0.00000  Uiso   1.00
C939   C     0.96830   0.74602   0.76365   0.00000  Uiso   1.00
C940   C     0.53170   0.92065   0.90302   0.00000  Uiso   1.00
Cu941  Cu    0.75500   0.83913   0.89479   0.00000  Uiso   1.00
Cu942  Cu    0.74499   0.82754   0.77187   0.00000  Uiso   1.00
H943   H     0.88060   0.76037   0.76995   0.00000  Uiso   1.00
H944   H     0.61940   0.90630   0.89672   0.00000  Uiso   1.00
H945   H     0.52933   0.71055   0.73909   0.00000  Uiso   1.00
H946   H     0.97067   0.95612   0.92757   0.00000  Uiso   1.00
H947   H     0.74404   0.98679   0.76212   0.00000  Uiso   1.00
H948   H     0.75595   0.67988   0.90455   0.00000  Uiso   1.00
H949   H     0.71501   0.79254   0.98285   0.00000  Uiso   1.00
H950   H     0.78499   0.87413   0.68382   0.00000  Uiso   1.00
N951   N     0.73744   0.81881   0.67951   0.00000  Uiso   1.00
N952   N     0.76255   0.84786   0.98716   0.00000  Uiso   1.00
O953   O     0.75325   0.76204   0.87326   0.00000  Uiso   1.00
O954   O     0.74674   0.90462   0.79341   0.00000  Uiso   1.00
O955   O     0.74480   0.75226   0.76945   0.00000  Uiso   1.00
O956   O     0.75520   0.91441   0.89721   0.00000  Uiso   1.00
O957   O     0.68935   0.83821   0.88524   0.00000  Uiso   1.00
O958   O     0.81064   0.82845   0.78143   0.00000  Uiso   1.00
O959   O     0.68090   0.82843   0.78143   0.00000  Uiso   1.00
O960   O     0.81910   0.83824   0.88523   0.00000  Uiso   1.00
N961   N     0.89083   0.92532   0.90104   0.00000  Uiso   1.00
H962   H     0.87359   0.91440   0.93563   0.00000  Uiso   1.00
H963   H     0.86814   0.93907   0.87128   0.00000  Uiso   1.00
N964   N     0.60917   0.74134   0.76563   0.00000  Uiso   1.00
H965   H     0.62641   0.75226   0.73103   0.00000  Uiso   1.00
H966   H     0.63186   0.72760   0.79538   0.00000  Uiso   1.00
N967   N     0.94051   0.70150   0.72838   0.00000  Uiso   1.00
H968   H     0.92638   0.68246   0.75962   0.00000  Uiso   1.00
H969   H     0.95983   0.67409   0.70193   0.00000  Uiso   1.00
N970   N     0.55949   0.96517   0.93829   0.00000  Uiso   1.00
H971   H     0.57362   0.98421   0.90705   0.00000  Uiso   1.00
H972   H     0.54017   0.99257   0.96474   0.00000  Uiso   1.00
loop_
_geom_bond_atom_site_label_1
_geom_bond_atom_site_label_2
_geom_bond_distance
_geom_bond_site_symmetry_2
_ccdc_geom_bond_type
C1     C5      1.425   .     S
C1     O37     1.284   .     A
C1     O35     1.293   .     A
C2     O38     1.284   .     A
C2     C6      1.425   .     S
C2     O36     1.293   .     A
C3     H27     1.083   .     S
C3     C20     1.404   .     A
C3     C75     1.398   1_455 S
C4     H28     1.083   .     S
C4     C19     1.404   .     A
C4     C76     1.398   .     S
C5     C222    1.326   1_545 S
C5     H245    1.088   1_545 S
C6     C113    1.326   .     S
C6     H138    1.088   .     S
C7     C12     1.447   .     S
C7     O39     1.296   .     A
C7     O41     1.291   .     A
C8     C11     1.447   .     S
C8     O40     1.296   .     A
C8     O42     1.291   .     A
C9     C11     1.407   .     A
C9     N43     1.438   .     S
C9     C19     1.403   .     A
C10    N46     1.438   .     S
C10    C20     1.403   .     A
C10    C12     1.407   .     A
C11    C13     1.392   .     A
C12    C14     1.392   .     A
C13    C15     1.396   .     A
C13    H25     1.084   .     S
C14    H26     1.084   .     S
C14    C16     1.396   .     A
C15    C21     1.410   .     A
C15    C17     1.417   .     A
C16    C18     1.417   .     A
C16    C22     1.410   .     A
C17    C19     1.416   .     A
C17    C72     1.406   .     S
C18    C20     1.416   .     A
C18    C71     1.406   1_455 S
C21    N49     1.439   .     S
C21    C57     1.398   .     S
C22    N52     1.439   .     S
C22    C58     1.398   1_455 S
Cu23   O38     1.948   .     S
Cu23   Cu24    2.690   .     S
Cu23   N34     2.021   .     S
Cu23   O42     1.951   .     S
Cu23   O39     1.964   .     S
Cu23   O35     1.954   .     S
Cu24   N33     2.021   .     S
Cu24   O37     1.948   .     S
Cu24   O41     1.951   .     S
Cu24   O36     1.954   .     S
Cu24   O40     1.964   .     S
H29    C113    1.088   .     S
H30    C222    1.088   1_545 S
H31    N357    1.029   .     S
H32    N682    1.029   1_554 S
N33    H679    1.029   1_554 S
N33    N682    1.295   1_554 S
N34    N357    1.295   .     S
N34    H356    1.029   .     S
N43    H44     1.045   .     S
N43    H45     1.046   .     S
N46    H48     1.046   .     S
N46    H47     1.045   .     S
N49    H50     1.046   .     S
N49    H51     1.045   .     S
N52    H54     1.045   .     S
N52    H53     1.046   .     S
C55    C59     1.425   .     S
C55    O91     1.284   .     A
C55    O89     1.293   .     A
C56    O92     1.284   .     A
C56    C60     1.425   .     S
C56    O90     1.293   .     A
C57    H81     1.083   .     S
C57    C74     1.404   .     A
C58    H82     1.083   .     S
C58    C73     1.404   .     A
C58    C22     1.398   1_655 S
C59    C276    1.326   1_545 S
C59    H299    1.088   1_545 S
C60    C167    1.326   .     S
C60    H192    1.088   .     S
C61    C66     1.447   .     S
C61    O93     1.296   .     A
C61    O95     1.291   .     A
C62    C65     1.447   .     S
C62    O94     1.296   .     A
C62    O96     1.291   .     A
C63    C65     1.407   .     A
C63    N97     1.438   .     S
C63    C73     1.403   .     A
C64    N100    1.438   .     S
C64    C74     1.403   .     A
C64    C66     1.407   .     A
C65    C67     1.392   .     A
C66    C68     1.392   .     A
C67    C69     1.396   .     A
C67    H79     1.084   .     S
C68    H80     1.084   .     S
C68    C70     1.396   .     A
C69    C75     1.410   .     A
C69    C71     1.417   .     A
C70    C72     1.417   .     A
C70    C76     1.410   .     A
C71    C73     1.416   .     A
C71    C18     1.406   1_655 S
C72    C74     1.416   .     A
C75    N103    1.439   .     S
C75    C3      1.398   1_655 S
C76    N106    1.439   .     S
Cu77   O92     1.948   .     S
Cu77   Cu78    2.690   .     S
Cu77   N88     2.021   .     S
Cu77   O96     1.951   .     S
Cu77   O93     1.964   .     S
Cu77   O89     1.954   .     S
Cu78   N87     2.021   .     S
Cu78   O91     1.948   .     S
Cu78   O95     1.951   .     S
Cu78   O90     1.954   .     S
Cu78   O94     1.964   .     S
H83    C167    1.088   .     S
H84    C276    1.088   1_545 S
H85    N411    1.029   .     S
H86    N736    1.029   1_554 S
N87    H733    1.029   1_554 S
N87    N736    1.295   1_554 S
N88    N411    1.295   .     S
N88    H410    1.029   .     S
N97    H98     1.045   .     S
N97    H99     1.046   .     S
N100   H102    1.046   .     S
N100   H101    1.045   .     S
N103   H104    1.046   .     S
N103   H105    1.045   .     S
N106   H108    1.045   .     S
N106   H107    1.046   .     S
C109   C113    1.425   .     S
C109   O145    1.284   .     A
C109   O143    1.293   .     A
C110   O146    1.284   .     A
C110   C114    1.425   .     S
C110   O144    1.293   .     A
C111   H135    1.083   .     S
C111   C128    1.404   .     A
C111   C183    1.398   1_455 S
C112   H136    1.083   .     S
C112   C127    1.404   .     A
C112   C184    1.398   .     S
C114   C221    1.326   .     S
C114   H246    1.088   .     S
C115   C120    1.447   .     S
C115   O147    1.296   .     A
C115   O149    1.291   .     A
C116   C119    1.447   .     S
C116   O148    1.296   .     A
C116   O150    1.291   .     A
C117   C119    1.407   .     A
C117   N151    1.438   .     S
C117   C127    1.403   .     A
C118   N154    1.438   .     S
C118   C128    1.403   .     A
C118   C120    1.407   .     A
C119   C121    1.392   .     A
C120   C122    1.392   .     A
C121   C123    1.396   .     A
C121   H133    1.084   .     S
C122   H134    1.084   .     S
C122   C124    1.396   .     A
C123   C129    1.410   .     A
C123   C125    1.417   .     A
C124   C126    1.417   .     A
C124   C130    1.410   .     A
C125   C127    1.416   .     A
C125   C180    1.406   .     S
C126   C128    1.416   .     A
C126   C179    1.406   1_455 S
C129   N157    1.439   .     S
C129   C165    1.398   .     S
C130   N160    1.439   .     S
C130   C166    1.398   1_455 S
Cu131  O146    1.948   .     S
Cu131  Cu132   2.690   .     S
Cu131  N142    2.021   .     S
Cu131  O150    1.951   .     S
Cu131  O147    1.964   .     S
Cu131  O143    1.954   .     S
Cu132  N141    2.021   .     S
Cu132  O145    1.948   .     S
Cu132  O149    1.951   .     S
Cu132  O144    1.954   .     S
Cu132  O148    1.964   .     S
H137   C221    1.088   .     S
H139   N465    1.029   .     S
H140   N790    1.029   1_554 S
N141   H787    1.029   1_554 S
N141   N790    1.295   1_554 S
N142   N465    1.295   .     S
N142   H464    1.029   .     S
N151   H152    1.045   .     S
N151   H153    1.046   .     S
N154   H156    1.046   .     S
N154   H155    1.045   .     S
N157   H158    1.046   .     S
N157   H159    1.045   .     S
N160   H162    1.045   .     S
N160   H161    1.046   .     S
C163   C167    1.425   .     S
C163   O199    1.284   .     A
C163   O197    1.293   .     A
C164   O200    1.284   .     A
C164   C168    1.425   .     S
C164   O198    1.293   .     A
C165   H189    1.083   .     S
C165   C182    1.404   .     A
C166   H190    1.083   .     S
C166   C181    1.404   .     A
C166   C130    1.398   1_655 S
C168   C275    1.326   .     S
C168   H300    1.088   .     S
C169   C174    1.447   .     S
C169   O201    1.296   .     A
C169   O203    1.291   .     A
C170   C173    1.447   .     S
C170   O202    1.296   .     A
C170   O204    1.291   .     A
C171   C173    1.407   .     A
C171   N205    1.438   .     S
C171   C181    1.403   .     A
C172   N208    1.438   .     S
C172   C182    1.403   .     A
C172   C174    1.407   .     A
C173   C175    1.392   .     A
C174   C176    1.392   .     A
C175   C177    1.396   .     A
C175   H187    1.084   .     S
C176   H188    1.084   .     S
C176   C178    1.396   .     A
C177   C183    1.410   .     A
C177   C179    1.417   .     A
C178   C180    1.417   .     A
C178   C184    1.410   .     A
C179   C181    1.416   .     A
C179   C126    1.406   1_655 S
C180   C182    1.416   .     A
C183   N211    1.439   .     S
C183   C111    1.398   1_655 S
C184   N214    1.439   .     S
Cu185  O200    1.948   .     S
Cu185  Cu186   2.690   .     S
Cu185  N196    2.021   .     S
Cu185  O204    1.951   .     S
Cu185  O201    1.964   .     S
Cu185  O197    1.954   .     S
Cu186  N195    2.021   .     S
Cu186  O199    1.948   .     S
Cu186  O203    1.951   .     S
Cu186  O198    1.954   .     S
Cu186  O202    1.964   .     S
H191   C275    1.088   .     S
H193   N519    1.029   .     S
H194   N844    1.029   1_554 S
N195   H841    1.029   1_554 S
N195   N844    1.295   1_554 S
N196   N519    1.295   .     S
N196   H518    1.029   .     S
N205   H206    1.045   .     S
N205   H207    1.046   .     S
N208   H210    1.046   .     S
N208   H209    1.045   .     S
N211   H212    1.046   .     S
N211   H213    1.045   .     S
N214   H216    1.045   .     S
N214   H215    1.046   .     S
C217   C221    1.425   .     S
C217   O253    1.284   .     A
C217   O251    1.293   .     A
C218   O254    1.284   .     A
C218   C222    1.425   .     S
C218   O252    1.293   .     A
C219   H243    1.083   .     S
C219   C236    1.404   .     A
C219   C291    1.398   1_455 S
C220   H244    1.083   .     S
C220   C235    1.404   .     A
C220   C292    1.398   .     S
C222   C5      1.326   1_565 S
C222   H30     1.088   1_565 S
C223   C228    1.447   .     S
C223   O255    1.296   .     A
C223   O257    1.291   .     A
C224   C227    1.447   .     S
C224   O256    1.296   .     A
C224   O258    1.291   .     A
C225   C227    1.407   .     A
C225   N259    1.438   .     S
C225   C235    1.403   .     A
C226   N262    1.438   .     S
C226   C236    1.403   .     A
C226   C228    1.407   .     A
C227   C229    1.392   .     A
C228   C230    1.392   .     A
C229   C231    1.396   .     A
C229   H241    1.084   .     S
C230   H242    1.084   .     S
C230   C232    1.396   .     A
C231   C237    1.410   .     A
C231   C233    1.417   .     A
C232   C234    1.417   .     A
C232   C238    1.410   .     A
C233   C235    1.416   .     A
C233   C288    1.406   .     S
C234   C236    1.416   .     A
C234   C287    1.406   1_455 S
C237   N265    1.439   .     S
C237   C273    1.398   .     S
C238   N268    1.439   .     S
C238   C274    1.398   1_455 S
Cu239  O254    1.948   .     S
Cu239  Cu240   2.690   .     S
Cu239  N250    2.021   .     S
Cu239  O258    1.951   .     S
Cu239  O255    1.964   .     S
Cu239  O251    1.954   .     S
Cu240  N249    2.021   .     S
Cu240  O253    1.948   .     S
Cu240  O257    1.951   .     S
Cu240  O252    1.954   .     S
Cu240  O256    1.964   .     S
H245   C5      1.088   1_565 S
H247   N573    1.029   .     S
H248   N898    1.029   1_554 S
N249   H895    1.029   1_554 S
N249   N898    1.295   1_554 S
N250   N573    1.295   .     S
N250   H572    1.029   .     S
N259   H260    1.045   .     S
N259   H261    1.046   .     S
N262   H264    1.046   .     S
N262   H263    1.045   .     S
N265   H266    1.046   .     S
N265   H267    1.045   .     S
N268   H270    1.045   .     S
N268   H269    1.046   .     S
C271   C275    1.425   .     S
C271   O307    1.284   .     A
C271   O305    1.293   .     A
C272   O308    1.284   .     A
C272   C276    1.425   .     S
C272   O306    1.293   .     A
C273   H297    1.083   .     S
C273   C290    1.404   .     A
C274   H298    1.083   .     S
C274   C289    1.404   .     A
C274   C238    1.398   1_655 S
C276   C59     1.326   1_565 S
C276   H84     1.088   1_565 S
C277   C282    1.447   .     S
C277   O309    1.296   .     A
C277   O311    1.291   .     A
C278   C281    1.447   .     S
C278   O310    1.296   .     A
C278   O312    1.291   .     A
C279   C281    1.407   .     A
C279   N313    1.438   .     S
C279   C289    1.403   .     A
C280   N316    1.438   .     S
C280   C290    1.403   .     A
C280   C282    1.407   .     A
C281   C283    1.392   .     A
C282   C284    1.392   .     A
C283   C285    1.396   .     A
C283   H295    1.084   .     S
C284   H296    1.084   .     S
C284   C286    1.396   .     A
C285   C291    1.410   .     A
C285   C287    1.417   .     A
C286   C288    1.417   .     A
C286   C292    1.410   .     A
C287   C289    1.416   .     A
C287   C234    1.406   1_655 S
C288   C290    1.416   .     A
C291   N319    1.439   .     S
C291   C219    1.398   1_655 S
C292   N322    1.439   .     S
Cu293  O308    1.948   .     S
Cu293  Cu294   2.690   .     S
Cu293  N304    2.021   .     S
Cu293  O312    1.951   .     S
Cu293  O309    1.964   .     S
Cu293  O305    1.954   .     S
Cu294  N303    2.021   .     S
Cu294  O307    1.948   .     S
Cu294  O311    1.951   .     S
Cu294  O306    1.954   .     S
Cu294  O310    1.964   .     S
H299   C59     1.088   1_565 S
H301   N627    1.029   .     S
H302   N952    1.029   1_554 S
N303   H949    1.029   1_554 S
N303   N952    1.295   1_554 S
N304   N627    1.295   .     S
N304   H626    1.029   .     S
N313   H314    1.045   .     S
N313   H315    1.046   .     S
N316   H318    1.046   .     S
N316   H317    1.045   .     S
N319   H320    1.046   .     S
N319   H321    1.045   .     S
N322   H324    1.045   .     S
N322   H323    1.046   .     S
C325   C329    1.425   .     S
C325   O361    1.284   .     A
C325   O359    1.293   .     A
C326   O362    1.284   .     A
C326   C330    1.425   .     S
C326   O360    1.293   .     A
C327   H351    1.083   .     S
C327   C344    1.404   .     A
C327   C399    1.398   1_455 S
C328   H352    1.083   .     S
C328   C343    1.404   .     A
C328   C400    1.398   .     S
C329   C546    1.326   1_545 S
C329   H569    1.088   1_545 S
C330   C437    1.326   .     S
C330   H462    1.088   .     S
C331   C336    1.447   .     S
C331   O363    1.296   .     A
C331   O365    1.291   .     A
C332   C335    1.447   .     S
C332   O364    1.296   .     A
C332   O366    1.291   .     A
C333   C335    1.407   .     A
C333   N367    1.438   .     S
C333   C343    1.403   .     A
C334   N370    1.438   .     S
C334   C344    1.403   .     A
C334   C336    1.407   .     A
C335   C337    1.392   .     A
C336   C338    1.392   .     A
C337   C339    1.396   .     A
C337   H349    1.084   .     S
C338   H350    1.084   .     S
C338   C340    1.396   .     A
C339   C345    1.410   .     A
C339   C341    1.417   .     A
C340   C342    1.417   .     A
C340   C346    1.410   .     A
C341   C343    1.416   .     A
C341   C396    1.406   .     S
C342   C344    1.416   .     A
C342   C395    1.406   1_455 S
C345   N373    1.439   .     S
C345   C381    1.398   .     S
C346   N376    1.439   .     S
C346   C382    1.398   1_455 S
Cu347  O362    1.948   .     S
Cu347  Cu348   2.690   .     S
Cu347  N358    2.021   .     S
Cu347  O366    1.951   .     S
Cu347  O363    1.964   .     S
Cu347  O359    1.954   .     S
Cu348  N357    2.021   .     S
Cu348  O361    1.948   .     S
Cu348  O365    1.951   .     S
Cu348  O360    1.954   .     S
Cu348  O364    1.964   .     S
H353   C437    1.088   .     S
H354   C546    1.088   1_545 S
H355   N681    1.029   .     S
N358   N681    1.295   .     S
N358   H680    1.029   .     S
N367   H368    1.045   .     S
N367   H369    1.046   .     S
N370   H372    1.046   .     S
N370   H371    1.045   .     S
N373   H374    1.046   .     S
N373   H375    1.045   .     S
N376   H378    1.045   .     S
N376   H377    1.046   .     S
C379   C383    1.425   .     S
C379   O415    1.284   .     A
C379   O413    1.293   .     A
C380   O416    1.284   .     A
C380   C384    1.425   .     S
C380   O414    1.293   .     A
C381   H405    1.083   .     S
C381   C398    1.404   .     A
C382   H406    1.083   .     S
C382   C397    1.404   .     A
C382   C346    1.398   1_655 S
C383   C600    1.326   1_545 S
C383   H623    1.088   1_545 S
C384   C491    1.326   .     S
C384   H516    1.088   .     S
C385   C390    1.447   .     S
C385   O417    1.296   .     A
C385   O419    1.291   .     A
C386   C389    1.447   .     S
C386   O418    1.296   .     A
C386   O420    1.291   .     A
C387   C389    1.407   .     A
C387   N421    1.438   .     S
C387   C397    1.403   .     A
C388   N424    1.438   .     S
C388   C398    1.403   .     A
C388   C390    1.407   .     A
C389   C391    1.392   .     A
C390   C392    1.392   .     A
C391   C393    1.396   .     A
C391   H403    1.084   .     S
C392   H404    1.084   .     S
C392   C394    1.396   .     A
C393   C399    1.410   .     A
C393   C395    1.417   .     A
C394   C396    1.417   .     A
C394   C400    1.410   .     A
C395   C397    1.416   .     A
C395   C342    1.406   1_655 S
C396   C398    1.416   .     A
C399   N427    1.439   .     S
C399   C327    1.398   1_655 S
C400   N430    1.439   .     S
Cu401  O416    1.948   .     S
Cu401  Cu402   2.690   .     S
Cu401  N412    2.021   .     S
Cu401  O420    1.951   .     S
Cu401  O417    1.964   .     S
Cu401  O413    1.954   .     S
Cu402  N411    2.021   .     S
Cu402  O415    1.948   .     S
Cu402  O419    1.951   .     S
Cu402  O414    1.954   .     S
Cu402  O418    1.964   .     S
H407   C491    1.088   .     S
H408   C600    1.088   1_545 S
H409   N735    1.029   .     S
N412   N735    1.295   .     S
N412   H734    1.029   .     S
N421   H422    1.045   .     S
N421   H423    1.046   .     S
N424   H426    1.046   .     S
N424   H425    1.045   .     S
N427   H428    1.046   .     S
N427   H429    1.045   .     S
N430   H432    1.045   .     S
N430   H431    1.046   .     S
C433   C437    1.425   .     S
C433   O469    1.284   .     A
C433   O467    1.293   .     A
C434   O470    1.284   .     A
C434   C438    1.425   .     S
C434   O468    1.293   .     A
C435   H459    1.083   .     S
C435   C452    1.404   .     A
C435   C507    1.398   1_455 S
C436   H460    1.083   .     S
C436   C451    1.404   .     A
C436   C508    1.398   .     S
C438   C545    1.326   .     S
C438   H570    1.088   .     S
C439   C444    1.447   .     S
C439   O471    1.296   .     A
C439   O473    1.291   .     A
C440   C443    1.447   .     S
C440   O472    1.296   .     A
C440   O474    1.291   .     A
C441   C443    1.407   .     A
C441   N475    1.438   .     S
C441   C451    1.403   .     A
C442   N478    1.438   .     S
C442   C452    1.403   .     A
C442   C444    1.407   .     A
C443   C445    1.392   .     A
C444   C446    1.392   .     A
C445   C447    1.396   .     A
C445   H457    1.084   .     S
C446   H458    1.084   .     S
C446   C448    1.396   .     A
C447   C453    1.410   .     A
C447   C449    1.417   .     A
C448   C450    1.417   .     A
C448   C454    1.410   .     A
C449   C451    1.416   .     A
C449   C504    1.406   .     S
C450   C452    1.416   .     A
C450   C503    1.406   1_455 S
C453   N481    1.439   .     S
C453   C489    1.398   .     S
C454   N484    1.439   .     S
C454   C490    1.398   1_455 S
Cu455  O470    1.948   .     S
Cu455  Cu456   2.690   .     S
Cu455  N466    2.021   .     S
Cu455  O474    1.951   .     S
Cu455  O471    1.964   .     S
Cu455  O467    1.954   .     S
Cu456  N465    2.021   .     S
Cu456  O469    1.948   .     S
Cu456  O473    1.951   .     S
Cu456  O468    1.954   .     S
Cu456  O472    1.964   .     S
H461   C545    1.088   .     S
H463   N789    1.029   .     S
N466   N789    1.295   .     S
N466   H788    1.029   .     S
N475   H476    1.045   .     S
N475   H477    1.046   .     S
N478   H480    1.046   .     S
N478   H479    1.045   .     S
N481   H482    1.046   .     S
N481   H483    1.045   .     S
N484   H486    1.045   .     S
N484   H485    1.046   .     S
C487   C491    1.425   .     S
C487   O523    1.284   .     A
C487   O521    1.293   .     A
C488   O524    1.284   .     A
C488   C492    1.425   .     S
C488   O522    1.293   .     A
C489   H513    1.083   .     S
C489   C506    1.404   .     A
C490   H514    1.083   .     S
C490   C505    1.404   .     A
C490   C454    1.398   1_655 S
C492   C599    1.326   .     S
C492   H624    1.088   .     S
C493   C498    1.447   .     S
C493   O525    1.296   .     A
C493   O527    1.291   .     A
C494   C497    1.447   .     S
C494   O526    1.296   .     A
C494   O528    1.291   .     A
C495   C497    1.407   .     A
C495   N529    1.438   .     S
C495   C505    1.403   .     A
C496   N532    1.438   .     S
C496   C506    1.403   .     A
C496   C498    1.407   .     A
C497   C499    1.392   .     A
C498   C500    1.392   .     A
C499   C501    1.396   .     A
C499   H511    1.084   .     S
C500   H512    1.084   .     S
C500   C502    1.396   .     A
C501   C507    1.410   .     A
C501   C503    1.417   .     A
C502   C504    1.417   .     A
C502   C508    1.410   .     A
C503   C505    1.416   .     A
C503   C450    1.406   1_655 S
C504   C506    1.416   .     A
C507   N535    1.439   .     S
C507   C435    1.398   1_655 S
C508   N538    1.439   .     S
Cu509  O524    1.948   .     S
Cu509  Cu510   2.690   .     S
Cu509  N520    2.021   .     S
Cu509  O528    1.951   .     S
Cu509  O525    1.964   .     S
Cu509  O521    1.954   .     S
Cu510  N519    2.021   .     S
Cu510  O523    1.948   .     S
Cu510  O527    1.951   .     S
Cu510  O522    1.954   .     S
Cu510  O526    1.964   .     S
H515   C599    1.088   .     S
H517   N843    1.029   .     S
N520   N843    1.295   .     S
N520   H842    1.029   .     S
N529   H530    1.045   .     S
N529   H531    1.046   .     S
N532   H534    1.046   .     S
N532   H533    1.045   .     S
N535   H536    1.046   .     S
N535   H537    1.045   .     S
N538   H540    1.045   .     S
N538   H539    1.046   .     S
C541   C545    1.425   .     S
C541   O577    1.284   .     A
C541   O575    1.293   .     A
C542   O578    1.284   .     A
C542   C546    1.425   .     S
C542   O576    1.293   .     A
C543   H567    1.083   .     S
C543   C560    1.404   .     A
C543   C615    1.398   1_455 S
C544   H568    1.083   .     S
C544   C559    1.404   .     A
C544   C616    1.398   .     S
C546   C329    1.326   1_565 S
C546   H354    1.088   1_565 S
C547   C552    1.447   .     S
C547   O579    1.296   .     A
C547   O581    1.291   .     A
C548   C551    1.447   .     S
C548   O580    1.296   .     A
C548   O582    1.291   .     A
C549   C551    1.407   .     A
C549   N583    1.438   .     S
C549   C559    1.403   .     A
C550   N586    1.438   .     S
C550   C560    1.403   .     A
C550   C552    1.407   .     A
C551   C553    1.392   .     A
C552   C554    1.392   .     A
C553   C555    1.396   .     A
C553   H565    1.084   .     S
C554   H566    1.084   .     S
C554   C556    1.396   .     A
C555   C561    1.410   .     A
C555   C557    1.417   .     A
C556   C558    1.417   .     A
C556   C562    1.410   .     A
C557   C559    1.416   .     A
C557   C612    1.406   .     S
C558   C560    1.416   .     A
C558   C611    1.406   1_455 S
C561   N589    1.439   .     S
C561   C597    1.398   .     S
C562   N592    1.439   .     S
C562   C598    1.398   1_455 S
Cu563  O578    1.948   .     S
Cu563  Cu564   2.690   .     S
Cu563  N574    2.021   .     S
Cu563  O582    1.951   .     S
Cu563  O579    1.964   .     S
Cu563  O575    1.954   .     S
Cu564  N573    2.021   .     S
Cu564  O577    1.948   .     S
Cu564  O581    1.951   .     S
Cu564  O576    1.954   .     S
Cu564  O580    1.964   .     S
H569   C329    1.088   1_565 S
H571   N897    1.029   .     S
N574   N897    1.295   .     S
N574   H896    1.029   .     S
N583   H584    1.045   .     S
N583   H585    1.046   .     S
N586   H588    1.046   .     S
N586   H587    1.045   .     S
N589   H590    1.046   .     S
N589   H591    1.045   .     S
N592   H594    1.045   .     S
N592   H593    1.046   .     S
C595   C599    1.425   .     S
C595   O631    1.284   .     A
C595   O629    1.293   .     A
C596   O632    1.284   .     A
C596   C600    1.425   .     S
C596   O630    1.293   .     A
C597   H621    1.083   .     S
C597   C614    1.404   .     A
C598   H622    1.083   .     S
C598   C613    1.404   .     A
C598   C562    1.398   1_655 S
C600   C383    1.326   1_565 S
C600   H408    1.088   1_565 S
C601   C606    1.447   .     S
C601   O633    1.296   .     A
C601   O635    1.291   .     A
C602   C605    1.447   .     S
C602   O634    1.296   .     A
C602   O636    1.291   .     A
C603   C605    1.407   .     A
C603   N637    1.438   .     S
C603   C613    1.403   .     A
C604   N640    1.438   .     S
C604   C614    1.403   .     A
C604   C606    1.407   .     A
C605   C607    1.392   .     A
C606   C608    1.392   .     A
C607   C609    1.396   .     A
C607   H619    1.084   .     S
C608   H620    1.084   .     S
C608   C610    1.396   .     A
C609   C615    1.410   .     A
C609   C611    1.417   .     A
C610   C612    1.417   .     A
C610   C616    1.410   .     A
C611   C613    1.416   .     A
C611   C558    1.406   1_655 S
C612   C614    1.416   .     A
C615   N643    1.439   .     S
C615   C543    1.398   1_655 S
C616   N646    1.439   .     S
Cu617  O632    1.948   .     S
Cu617  Cu618   2.690   .     S
Cu617  N628    2.021   .     S
Cu617  O636    1.951   .     S
Cu617  O633    1.964   .     S
Cu617  O629    1.954   .     S
Cu618  N627    2.021   .     S
Cu618  O631    1.948   .     S
Cu618  O635    1.951   .     S
Cu618  O630    1.954   .     S
Cu618  O634    1.964   .     S
H623   C383    1.088   1_565 S
H625   N951    1.029   .     S
N628   N951    1.295   .     S
N628   H950    1.029   .     S
N637   H638    1.045   .     S
N637   H639    1.046   .     S
N640   H642    1.046   .     S
N640   H641    1.045   .     S
N643   H644    1.046   .     S
N643   H645    1.045   .     S
N646   H648    1.045   .     S
N646   H647    1.046   .     S
C649   C653    1.425   .     S
C649   O685    1.284   .     A
C649   O683    1.293   .     A
C650   O686    1.284   .     A
C650   C654    1.425   .     S
C650   O684    1.293   .     A
C651   H675    1.083   .     S
C651   C668    1.404   .     A
C651   C723    1.398   1_455 S
C652   H676    1.083   .     S
C652   C667    1.404   .     A
C652   C724    1.398   .     S
C653   C870    1.326   1_545 S
C653   H893    1.088   1_545 S
C654   C761    1.326   .     S
C654   H786    1.088   .     S
C655   C660    1.447   .     S
C655   O687    1.296   .     A
C655   O689    1.291   .     A
C656   C659    1.447   .     S
C656   O688    1.296   .     A
C656   O690    1.291   .     A
C657   C659    1.407   .     A
C657   N691    1.438   .     S
C657   C667    1.403   .     A
C658   N694    1.438   .     S
C658   C668    1.403   .     A
C658   C660    1.407   .     A
C659   C661    1.392   .     A
C660   C662    1.392   .     A
C661   C663    1.396   .     A
C661   H673    1.084   .     S
C662   H674    1.084   .     S
C662   C664    1.396   .     A
C663   C669    1.410   .     A
C663   C665    1.417   .     A
C664   C666    1.417   .     A
C664   C670    1.410   .     A
C665   C667    1.416   .     A
C665   C720    1.406   .     S
C666   C668    1.416   .     A
C666   C719    1.406   1_455 S
C669   N697    1.439   .     S
C669   C705    1.398   .     S
C670   N700    1.439   .     S
C670   C706    1.398   1_455 S
Cu671  O686    1.948   .     S
Cu671  Cu672   2.690   .     S
Cu671  N682    2.021   .     S
Cu671  O690    1.951   .     S
Cu671  O687    1.964   .     S
Cu671  O683    1.954   .     S
Cu672  N681    2.021   .     S
Cu672  O685    1.948   .     S
Cu672  O689    1.951   .     S
Cu672  O684    1.954   .     S
Cu672  O688    1.964   .     S
H677   C761    1.088   .     S
H678   C870    1.088   1_545 S
H679   N33     1.029   1_556 S
N682   N33     1.295   1_556 S
N682   H32     1.029   1_556 S
N691   H692    1.045   .     S
N691   H693    1.046   .     S
N694   H696    1.046   .     S
N694   H695    1.045   .     S
N697   H698    1.046   .     S
N697   H699    1.045   .     S
N700   H702    1.045   .     S
N700   H701    1.046   .     S
C703   C707    1.425   .     S
C703   O739    1.284   .     A
C703   O737    1.293   .     A
C704   O740    1.284   .     A
C704   C708    1.425   .     S
C704   O738    1.293   .     A
C705   H729    1.083   .     S
C705   C722    1.404   .     A
C706   H730    1.083   .     S
C706   C721    1.404   .     A
C706   C670    1.398   1_655 S
C707   C924    1.326   1_545 S
C707   H947    1.088   1_545 S
C708   C815    1.326   .     S
C708   H840    1.088   .     S
C709   C714    1.447   .     S
C709   O741    1.296   .     A
C709   O743    1.291   .     A
C710   C713    1.447   .     S
C710   O742    1.296   .     A
C710   O744    1.291   .     A
C711   C713    1.407   .     A
C711   N745    1.438   .     S
C711   C721    1.403   .     A
C712   N748    1.438   .     S
C712   C722    1.403   .     A
C712   C714    1.407   .     A
C713   C715    1.392   .     A
C714   C716    1.392   .     A
C715   C717    1.396   .     A
C715   H727    1.084   .     S
C716   H728    1.084   .     S
C716   C718    1.396   .     A
C717   C723    1.410   .     A
C717   C719    1.417   .     A
C718   C720    1.417   .     A
C718   C724    1.410   .     A
C719   C721    1.416   .     A
C719   C666    1.406   1_655 S
C720   C722    1.416   .     A
C723   N751    1.439   .     S
C723   C651    1.398   1_655 S
C724   N754    1.439   .     S
Cu725  O740    1.948   .     S
Cu725  Cu726   2.690   .     S
Cu725  N736    2.021   .     S
Cu725  O744    1.951   .     S
Cu725  O741    1.964   .     S
Cu725  O737    1.954   .     S
Cu726  N735    2.021   .     S
Cu726  O739    1.948   .     S
Cu726  O743    1.951   .     S
Cu726  O738    1.954   .     S
Cu726  O742    1.964   .     S
H731   C815    1.088   .     S
H732   C924    1.088   1_545 S
H733   N87     1.029   1_556 S
N736   N87     1.295   1_556 S
N736   H86     1.029   1_556 S
N745   H746    1.045   .     S
N745   H747    1.046   .     S
N748   H750    1.046   .     S
N748   H749    1.045   .     S
N751   H752    1.046   .     S
N751   H753    1.045   .     S
N754   H756    1.045   .     S
N754   H755    1.046   .     S
C757   C761    1.425   .     S
C757   O793    1.284   .     A
C757   O791    1.293   .     A
C758   O794    1.284   .     A
C758   C762    1.425   .     S
C758   O792    1.293   .     A
C759   H783    1.083   .     S
C759   C776    1.404   .     A
C759   C831    1.398   1_455 S
C760   H784    1.083   .     S
C760   C775    1.404   .     A
C760   C832    1.398   .     S
C762   C869    1.326   .     S
C762   H894    1.088   .     S
C763   C768    1.447   .     S
C763   O795    1.296   .     A
C763   O797    1.291   .     A
C764   C767    1.447   .     S
C764   O796    1.296   .     A
C764   O798    1.291   .     A
C765   C767    1.407   .     A
C765   N799    1.438   .     S
C765   C775    1.403   .     A
C766   N802    1.438   .     S
C766   C776    1.403   .     A
C766   C768    1.407   .     A
C767   C769    1.392   .     A
C768   C770    1.392   .     A
C769   C771    1.396   .     A
C769   H781    1.084   .     S
C770   H782    1.084   .     S
C770   C772    1.396   .     A
C771   C777    1.410   .     A
C771   C773    1.417   .     A
C772   C774    1.417   .     A
C772   C778    1.410   .     A
C773   C775    1.416   .     A
C773   C828    1.406   .     S
C774   C776    1.416   .     A
C774   C827    1.406   1_455 S
C777   N805    1.439   .     S
C777   C813    1.398   .     S
C778   N808    1.439   .     S
C778   C814    1.398   1_455 S
Cu779  O794    1.948   .     S
Cu779  Cu780   2.690   .     S
Cu779  N790    2.021   .     S
Cu779  O798    1.951   .     S
Cu779  O795    1.964   .     S
Cu779  O791    1.954   .     S
Cu780  N789    2.021   .     S
Cu780  O793    1.948   .     S
Cu780  O797    1.951   .     S
Cu780  O792    1.954   .     S
Cu780  O796    1.964   .     S
H785   C869    1.088   .     S
H787   N141    1.029   1_556 S
N790   N141    1.295   1_556 S
N790   H140    1.029   1_556 S
N799   H800    1.045   .     S
N799   H801    1.046   .     S
N802   H804    1.046   .     S
N802   H803    1.045   .     S
N805   H806    1.046   .     S
N805   H807    1.045   .     S
N808   H810    1.045   .     S
N808   H809    1.046   .     S
C811   C815    1.425   .     S
C811   O847    1.284   .     A
C811   O845    1.293   .     A
C812   O848    1.284   .     A
C812   C816    1.425   .     S
C812   O846    1.293   .     A
C813   H837    1.083   .     S
C813   C830    1.404   .     A
C814   H838    1.083   .     S
C814   C829    1.404   .     A
C814   C778    1.398   1_655 S
C816   C923    1.326   .     S
C816   H948    1.088   .     S
C817   C822    1.447   .     S
C817   O849    1.296   .     A
C817   O851    1.291   .     A
C818   C821    1.447   .     S
C818   O850    1.296   .     A
C818   O852    1.291   .     A
C819   C821    1.407   .     A
C819   N853    1.438   .     S
C819   C829    1.403   .     A
C820   N856    1.438   .     S
C820   C830    1.403   .     A
C820   C822    1.407   .     A
C821   C823    1.392   .     A
C822   C824    1.392   .     A
C823   C825    1.396   .     A
C823   H835    1.084   .     S
C824   H836    1.084   .     S
C824   C826    1.396   .     A
C825   C831    1.410   .     A
C825   C827    1.417   .     A
C826   C828    1.417   .     A
C826   C832    1.410   .     A
C827   C829    1.416   .     A
C827   C774    1.406   1_655 S
C828   C830    1.416   .     A
C831   N859    1.439   .     S
C831   C759    1.398   1_655 S
C832   N862    1.439   .     S
Cu833  O848    1.948   .     S
Cu833  Cu834   2.690   .     S
Cu833  N844    2.021   .     S
Cu833  O852    1.951   .     S
Cu833  O849    1.964   .     S
Cu833  O845    1.954   .     S
Cu834  N843    2.021   .     S
Cu834  O847    1.948   .     S
Cu834  O851    1.951   .     S
Cu834  O846    1.954   .     S
Cu834  O850    1.964   .     S
H839   C923    1.088   .     S
H841   N195    1.029   1_556 S
N844   N195    1.295   1_556 S
N844   H194    1.029   1_556 S
N853   H854    1.045   .     S
N853   H855    1.046   .     S
N856   H858    1.046   .     S
N856   H857    1.045   .     S
N859   H860    1.046   .     S
N859   H861    1.045   .     S
N862   H864    1.045   .     S
N862   H863    1.046   .     S
C865   C869    1.425   .     S
C865   O901    1.284   .     A
C865   O899    1.293   .     A
C866   O902    1.284   .     A
C866   C870    1.425   .     S
C866   O900    1.293   .     A
C867   H891    1.083   .     S
C867   C884    1.404   .     A
C867   C939    1.398   1_455 S
C868   H892    1.083   .     S
C868   C883    1.404   .     A
C868   C940    1.398   .     S
C870   C653    1.326   1_565 S
C870   H678    1.088   1_565 S
C871   C876    1.447   .     S
C871   O903    1.296   .     A
C871   O905    1.291   .     A
C872   C875    1.447   .     S
C872   O904    1.296   .     A
C872   O906    1.291   .     A
C873   C875    1.407   .     A
C873   N907    1.438   .     S
C873   C883    1.403   .     A
C874   N910    1.438   .     S
C874   C884    1.403   .     A
C874   C876    1.407   .     A
C875   C877    1.392   .     A
C876   C878    1.392   .     A
C877   C879    1.396   .     A
C877   H889    1.084   .     S
C878   H890    1.084   .     S
C878   C880    1.396   .     A
C879   C885    1.410   .     A
C879   C881    1.417   .     A
C880   C882    1.417   .     A
C880   C886    1.410   .     A
C881   C883    1.416   .     A
C881   C936    1.406   .     S
C882   C884    1.416   .     A
C882   C935    1.406   1_455 S
C885   N913    1.439   .     S
C885   C921    1.398   .     S
C886   N916    1.439   .     S
C886   C922    1.398   1_455 S
Cu887  O902    1.948   .     S
Cu887  Cu888   2.690   .     S
Cu887  N898    2.021   .     S
Cu887  O906    1.951   .     S
Cu887  O903    1.964   .     S
Cu887  O899    1.954   .     S
Cu888  N897    2.021   .     S
Cu888  O901    1.948   .     S
Cu888  O905    1.951   .     S
Cu888  O900    1.954   .     S
Cu888  O904    1.964   .     S
H893   C653    1.088   1_565 S
H895   N249    1.029   1_556 S
N898   N249    1.295   1_556 S
N898   H248    1.029   1_556 S
N907   H908    1.045   .     S
N907   H909    1.046   .     S
N910   H912    1.046   .     S
N910   H911    1.045   .     S
N913   H914    1.046   .     S
N913   H915    1.045   .     S
N916   H918    1.045   .     S
N916   H917    1.046   .     S
C919   C923    1.425   .     S
C919   O955    1.284   .     A
C919   O953    1.293   .     A
C920   O956    1.284   .     A
C920   C924    1.425   .     S
C920   O954    1.293   .     A
C921   H945    1.083   .     S
C921   C938    1.404   .     A
C922   H946    1.083   .     S
C922   C937    1.404   .     A
C922   C886    1.398   1_655 S
C924   C707    1.326   1_565 S
C924   H732    1.088   1_565 S
C925   C930    1.447   .     S
C925   O957    1.296   .     A
C925   O959    1.291   .     A
C926   C929    1.447   .     S
C926   O958    1.296   .     A
C926   O960    1.291   .     A
C927   C929    1.407   .     A
C927   N961    1.438   .     S
C927   C937    1.403   .     A
C928   N964    1.438   .     S
C928   C938    1.403   .     A
C928   C930    1.407   .     A
C929   C931    1.392   .     A
C930   C932    1.392   .     A
C931   C933    1.396   .     A
C931   H943    1.084   .     S
C932   H944    1.084   .     S
C932   C934    1.396   .     A
C933   C939    1.410   .     A
C933   C935    1.417   .     A
C934   C936    1.417   .     A
C934   C940    1.410   .     A
C935   C937    1.416   .     A
C935   C882    1.406   1_655 S
C936   C938    1.416   .     A
C939   N967    1.439   .     S
C939   C867    1.398   1_655 S
C940   N970    1.439   .     S
Cu941  O956    1.948   .     S
Cu941  Cu942   2.690   .     S
Cu941  N952    2.021   .     S
Cu941  O960    1.951   .     S
Cu941  O957    1.964   .     S
Cu941  O953    1.954   .     S
Cu942  N951    2.021   .     S
Cu942  O955    1.948   .     S
Cu942  O959    1.951   .     S
Cu942  O954    1.954   .     S
Cu942  O958    1.964   .     S
H947   C707    1.088   1_565 S
H949   N303    1.029   1_556 S
N952   N303    1.295   1_556 S
N952   H302    1.029   1_556 S
N961   H962    1.045   .     S
N961   H963    1.046   .     S
N964   H966    1.046   .     S
N964   H965    1.045   .     S
N967   H968    1.046   .     S
N967   H969    1.045   .     S
N970   H972    1.045   .     S
N970   H971    1.046   .     S
