data_str_m2_o2_o10_pcu_sym.191
_audit_creation_date              2020-01-03
_audit_creation_method            'Materials Studio'
_symmetry_space_group_name_H-M    'P1'
_symmetry_Int_Tables_number       1
_symmetry_cell_setting            triclinic
loop_
_symmetry_equiv_pos_as_xyz
  x,y,z
_cell_length_a                    26.2495
_cell_length_b                    30.2440
_cell_length_c                    27.9868
_cell_angle_alpha                 88.7640
_cell_angle_beta                  96.5816
_cell_angle_gamma                 92.7609
loop_
_atom_site_label
_atom_site_type_symbol
_atom_site_fract_x
_atom_site_fract_y
_atom_site_fract_z
_atom_site_U_iso_or_equiv
_atom_site_adp_type
_atom_site_occupancy
C1     C     0.16688   0.16490   0.25047   0.00000  Uiso   1.00
C2     C     0.16669   0.33488   0.24953   0.00000  Uiso   1.00
C3     C     0.18534   0.28841   0.05502   0.00000  Uiso   1.00
C4     C     0.12331   0.23396   0.44251   0.00000  Uiso   1.00
C5     C     0.18999   0.28511   0.10599   0.00000  Uiso   1.00
C6     C     0.12663   0.22931   0.39240   0.00000  Uiso   1.00
C7     C     0.14312   0.21608   0.10210   0.00000  Uiso   1.00
C8     C     0.20612   0.27062   0.39953   0.00000  Uiso   1.00
C9     C     0.14569   0.21523   0.05194   0.00000  Uiso   1.00
C10    C     0.20783   0.26839   0.45015   0.00000  Uiso   1.00
C11    C     0.16597   0.25176   0.02706   0.00000  Uiso   1.00
C12    C     0.16563   0.25149   0.47264   0.00000  Uiso   1.00
C13    C     0.06831   0.24848   0.23830   0.00000  Uiso   1.00
C14    C     0.26504   0.25181   0.26160   0.00000  Uiso   1.00
C15    C     0.01371   0.24048   0.23418   0.00000  Uiso   1.00
C16    C     0.31959   0.26044   0.26519   0.00000  Uiso   1.00
C17    C     0.15696   0.04427   0.28892   0.00000  Uiso   1.00
C18    C     0.14337   0.45309   0.21201   0.00000  Uiso   1.00
C19    C     0.15456   0.09020   0.29027   0.00000  Uiso   1.00
C20    C     0.14048   0.40690   0.21156   0.00000  Uiso   1.00
C21    C     0.16904   0.11640   0.25126   0.00000  Uiso   1.00
C22    C     0.16843   0.38312   0.24870   0.00000  Uiso   1.00
C23    C     0.18635   0.09584   0.21194   0.00000  Uiso   1.00
C24    C     0.19895   0.40568   0.28560   0.00000  Uiso   1.00
C25    C     0.18902   0.04990   0.21090   0.00000  Uiso   1.00
C26    C     0.20219   0.45185   0.28577   0.00000  Uiso   1.00
C27    C     0.17399   0.02404   0.24957   0.00000  Uiso   1.00
C28    C     0.17400   0.47563   0.24885   0.00000  Uiso   1.00
Cu29   Cu    0.16667   0.24999   0.29821   0.00000  Uiso   1.00
Cu30   Cu    0.16667   0.25000   0.20178   0.00000  Uiso   1.00
H31    H     0.14476   0.02422   0.31848   0.00000  Uiso   1.00
H32    H     0.12090   0.47143   0.18404   0.00000  Uiso   1.00
H33    H     0.19844   0.11541   0.18201   0.00000  Uiso   1.00
H34    H     0.22094   0.38743   0.31399   0.00000  Uiso   1.00
H35    H     0.13043   0.18607   0.03251   0.00000  Uiso   1.00
H36    H     0.24233   0.28056   0.47144   0.00000  Uiso   1.00
N37    N     0.16667   0.25001   0.12934   0.00000  Uiso   1.00
N38    N     0.16667   0.24999   0.37065   0.00000  Uiso   1.00
O39    O     0.16667   0.18572   0.29071   0.00000  Uiso   1.00
O40    O     0.16666   0.31427   0.20928   0.00000  Uiso   1.00
O41    O     0.16667   0.18573   0.20928   0.00000  Uiso   1.00
O42    O     0.16666   0.31427   0.29072   0.00000  Uiso   1.00
O43    O     0.09161   0.24999   0.28132   0.00000  Uiso   1.00
O44    O     0.24172   0.25000   0.21868   0.00000  Uiso   1.00
O45    O     0.09161   0.25000   0.19988   0.00000  Uiso   1.00
O46    O     0.24172   0.25000   0.30011   0.00000  Uiso   1.00
C47    C     0.32475   0.20495   0.19916   0.00000  Uiso   1.00
H48    H     0.02212   0.18649   0.18535   0.00000  Uiso   1.00
H49    H     0.30033   0.18029   0.21722   0.00000  Uiso   1.00
H50    H     0.30208   0.22017   0.16765   0.00000  Uiso   1.00
C51    C     0.00810   0.29804   0.29767   0.00000  Uiso   1.00
H52    H     0.31039   0.31747   0.30942   0.00000  Uiso   1.00
H53    H     0.03078   0.28515   0.33037   0.00000  Uiso   1.00
H54    H     0.03250   0.32151   0.27808   0.00000  Uiso   1.00
N55    N     0.13635   0.10972   0.33086   0.00000  Uiso   1.00
H56    H     0.16013   0.10069   0.36173   0.00000  Uiso   1.00
H57    H     0.09939   0.09634   0.33406   0.00000  Uiso   1.00
N58    N     0.10769   0.38429   0.17450   0.00000  Uiso   1.00
H59    H     0.07024   0.39416   0.17573   0.00000  Uiso   1.00
H60    H     0.11909   0.39463   0.14129   0.00000  Uiso   1.00
N61    N     0.20770   0.02958   0.17095   0.00000  Uiso   1.00
H62    H     0.24480   0.04276   0.16800   0.00000  Uiso   1.00
H63    H     0.18437   0.03842   0.13972   0.00000  Uiso   1.00
N64    N     0.23458   0.47458   0.32300   0.00000  Uiso   1.00
H65    H     0.27201   0.46440   0.32247   0.00000  Uiso   1.00
H66    H     0.22247   0.46464   0.35605   0.00000  Uiso   1.00
N67    N     0.19754   0.33046   0.03304   0.00000  Uiso   1.00
H68    H     0.23481   0.33091   0.02345   0.00000  Uiso   1.00
H69    H     0.17130   0.33638   0.00284   0.00000  Uiso   1.00
N70    N     0.07644   0.22224   0.46268   0.00000  Uiso   1.00
H71    H     0.06806   0.18827   0.45935   0.00000  Uiso   1.00
H72    H     0.04664   0.23942   0.44382   0.00000  Uiso   1.00
C73    C     0.22234   0.32134   0.13268   0.00000  Uiso   1.00
H74    H     0.24010   0.31077   0.16815   0.00000  Uiso   1.00
H75    H     0.25562   0.33157   0.11315   0.00000  Uiso   1.00
H76    H     0.19928   0.35077   0.13549   0.00000  Uiso   1.00
C77    C     0.08605   0.19925   0.36548   0.00000  Uiso   1.00
H78    H     0.09532   0.18901   0.33051   0.00000  Uiso   1.00
H79    H     0.08211   0.16757   0.38573   0.00000  Uiso   1.00
H80    H     0.04840   0.21482   0.36116   0.00000  Uiso   1.00
N81    N     0.11495   0.18121   0.12413   0.00000  Uiso   1.00
H82    H     0.07703   0.18066   0.10786   0.00000  Uiso   1.00
H83    H     0.13046   0.15119   0.11689   0.00000  Uiso   1.00
N84    N     0.24621   0.29497   0.37867   0.00000  Uiso   1.00
H85    H     0.28115   0.28162   0.39197   0.00000  Uiso   1.00
H86    H     0.24693   0.32767   0.39019   0.00000  Uiso   1.00
C87    C     0.50021   0.16490   0.25047   0.00000  Uiso   1.00
C88    C     0.50002   0.33488   0.24953   0.00000  Uiso   1.00
C89    C     0.51867   0.28841   0.05502   0.00000  Uiso   1.00
C90    C     0.45665   0.23396   0.44251   0.00000  Uiso   1.00
C91    C     0.52333   0.28511   0.10599   0.00000  Uiso   1.00
C92    C     0.45996   0.22931   0.39240   0.00000  Uiso   1.00
C93    C     0.47645   0.21608   0.10210   0.00000  Uiso   1.00
C94    C     0.53945   0.27062   0.39953   0.00000  Uiso   1.00
C95    C     0.47903   0.21523   0.05194   0.00000  Uiso   1.00
C96    C     0.54117   0.26839   0.45015   0.00000  Uiso   1.00
C97    C     0.49930   0.25176   0.02706   0.00000  Uiso   1.00
C98    C     0.49896   0.25149   0.47264   0.00000  Uiso   1.00
C99    C     0.40164   0.24848   0.23830   0.00000  Uiso   1.00
C100   C     0.59838   0.25181   0.26160   0.00000  Uiso   1.00
C101   C     0.34704   0.24048   0.23418   0.00000  Uiso   1.00
C102   C     0.65293   0.26044   0.26519   0.00000  Uiso   1.00
C103   C     0.49029   0.04427   0.28892   0.00000  Uiso   1.00
C104   C     0.47670   0.45309   0.21201   0.00000  Uiso   1.00
C105   C     0.48790   0.09020   0.29027   0.00000  Uiso   1.00
C106   C     0.47381   0.40690   0.21156   0.00000  Uiso   1.00
C107   C     0.50237   0.11640   0.25126   0.00000  Uiso   1.00
C108   C     0.50177   0.38312   0.24870   0.00000  Uiso   1.00
C109   C     0.51968   0.09584   0.21194   0.00000  Uiso   1.00
C110   C     0.53228   0.40568   0.28560   0.00000  Uiso   1.00
C111   C     0.52236   0.04990   0.21090   0.00000  Uiso   1.00
C112   C     0.53552   0.45185   0.28577   0.00000  Uiso   1.00
C113   C     0.50732   0.02404   0.24957   0.00000  Uiso   1.00
C114   C     0.50733   0.47563   0.24885   0.00000  Uiso   1.00
Cu115  Cu    0.50000   0.24999   0.29821   0.00000  Uiso   1.00
Cu116  Cu    0.50000   0.25000   0.20178   0.00000  Uiso   1.00
H117   H     0.47809   0.02422   0.31848   0.00000  Uiso   1.00
H118   H     0.45423   0.47143   0.18404   0.00000  Uiso   1.00
H119   H     0.53178   0.11541   0.18201   0.00000  Uiso   1.00
H120   H     0.55428   0.38743   0.31399   0.00000  Uiso   1.00
H121   H     0.46376   0.18607   0.03251   0.00000  Uiso   1.00
H122   H     0.57567   0.28056   0.47144   0.00000  Uiso   1.00
N123   N     0.50000   0.25001   0.12934   0.00000  Uiso   1.00
N124   N     0.50000   0.24999   0.37065   0.00000  Uiso   1.00
O125   O     0.50000   0.18572   0.29071   0.00000  Uiso   1.00
O126   O     0.50000   0.31427   0.20928   0.00000  Uiso   1.00
O127   O     0.50000   0.18573   0.20928   0.00000  Uiso   1.00
O128   O     0.50000   0.31427   0.29072   0.00000  Uiso   1.00
O129   O     0.42495   0.24999   0.28132   0.00000  Uiso   1.00
O130   O     0.57505   0.25000   0.21868   0.00000  Uiso   1.00
O131   O     0.42495   0.25000   0.19988   0.00000  Uiso   1.00
O132   O     0.57505   0.25000   0.30011   0.00000  Uiso   1.00
C133   C     0.65808   0.20495   0.19916   0.00000  Uiso   1.00
H134   H     0.35545   0.18649   0.18535   0.00000  Uiso   1.00
H135   H     0.63366   0.18029   0.21722   0.00000  Uiso   1.00
H136   H     0.63542   0.22017   0.16765   0.00000  Uiso   1.00
C137   C     0.34143   0.29804   0.29767   0.00000  Uiso   1.00
H138   H     0.64373   0.31747   0.30942   0.00000  Uiso   1.00
H139   H     0.36411   0.28515   0.33037   0.00000  Uiso   1.00
H140   H     0.36583   0.32151   0.27808   0.00000  Uiso   1.00
N141   N     0.46968   0.10972   0.33086   0.00000  Uiso   1.00
H142   H     0.49346   0.10069   0.36173   0.00000  Uiso   1.00
H143   H     0.43272   0.09634   0.33406   0.00000  Uiso   1.00
N144   N     0.44102   0.38429   0.17450   0.00000  Uiso   1.00
H145   H     0.40357   0.39416   0.17573   0.00000  Uiso   1.00
H146   H     0.45242   0.39463   0.14129   0.00000  Uiso   1.00
N147   N     0.54104   0.02958   0.17095   0.00000  Uiso   1.00
H148   H     0.57813   0.04276   0.16800   0.00000  Uiso   1.00
H149   H     0.51771   0.03842   0.13972   0.00000  Uiso   1.00
N150   N     0.56791   0.47458   0.32300   0.00000  Uiso   1.00
H151   H     0.60534   0.46440   0.32247   0.00000  Uiso   1.00
H152   H     0.55580   0.46464   0.35605   0.00000  Uiso   1.00
N153   N     0.53088   0.33046   0.03304   0.00000  Uiso   1.00
H154   H     0.56814   0.33091   0.02345   0.00000  Uiso   1.00
H155   H     0.50463   0.33638   0.00284   0.00000  Uiso   1.00
N156   N     0.40977   0.22224   0.46268   0.00000  Uiso   1.00
H157   H     0.40140   0.18827   0.45935   0.00000  Uiso   1.00
H158   H     0.37997   0.23942   0.44382   0.00000  Uiso   1.00
C159   C     0.55567   0.32134   0.13268   0.00000  Uiso   1.00
H160   H     0.57343   0.31077   0.16815   0.00000  Uiso   1.00
H161   H     0.58895   0.33157   0.11315   0.00000  Uiso   1.00
H162   H     0.53261   0.35077   0.13549   0.00000  Uiso   1.00
C163   C     0.41938   0.19925   0.36548   0.00000  Uiso   1.00
H164   H     0.42865   0.18901   0.33051   0.00000  Uiso   1.00
H165   H     0.41545   0.16757   0.38573   0.00000  Uiso   1.00
H166   H     0.38173   0.21482   0.36116   0.00000  Uiso   1.00
N167   N     0.44828   0.18121   0.12413   0.00000  Uiso   1.00
H168   H     0.41037   0.18066   0.10786   0.00000  Uiso   1.00
H169   H     0.46380   0.15119   0.11689   0.00000  Uiso   1.00
N170   N     0.57954   0.29497   0.37867   0.00000  Uiso   1.00
H171   H     0.61449   0.28162   0.39197   0.00000  Uiso   1.00
H172   H     0.58026   0.32767   0.39019   0.00000  Uiso   1.00
C173   C     0.83354   0.16490   0.25047   0.00000  Uiso   1.00
C174   C     0.83335   0.33488   0.24953   0.00000  Uiso   1.00
C175   C     0.85201   0.28841   0.05502   0.00000  Uiso   1.00
C176   C     0.78998   0.23396   0.44251   0.00000  Uiso   1.00
C177   C     0.85666   0.28511   0.10599   0.00000  Uiso   1.00
C178   C     0.79329   0.22931   0.39240   0.00000  Uiso   1.00
C179   C     0.80978   0.21608   0.10210   0.00000  Uiso   1.00
C180   C     0.87279   0.27062   0.39953   0.00000  Uiso   1.00
C181   C     0.81236   0.21523   0.05194   0.00000  Uiso   1.00
C182   C     0.87450   0.26839   0.45015   0.00000  Uiso   1.00
C183   C     0.83264   0.25176   0.02706   0.00000  Uiso   1.00
C184   C     0.83230   0.25149   0.47264   0.00000  Uiso   1.00
C185   C     0.73498   0.24848   0.23830   0.00000  Uiso   1.00
C186   C     0.93171   0.25181   0.26160   0.00000  Uiso   1.00
C187   C     0.68037   0.24048   0.23418   0.00000  Uiso   1.00
C188   C     0.98626   0.26044   0.26519   0.00000  Uiso   1.00
C189   C     0.82363   0.04427   0.28892   0.00000  Uiso   1.00
C190   C     0.81003   0.45309   0.21201   0.00000  Uiso   1.00
C191   C     0.82123   0.09020   0.29027   0.00000  Uiso   1.00
C192   C     0.80714   0.40690   0.21156   0.00000  Uiso   1.00
C193   C     0.83571   0.11640   0.25126   0.00000  Uiso   1.00
C194   C     0.83510   0.38312   0.24870   0.00000  Uiso   1.00
C195   C     0.85301   0.09584   0.21194   0.00000  Uiso   1.00
C196   C     0.86562   0.40568   0.28560   0.00000  Uiso   1.00
C197   C     0.85569   0.04990   0.21090   0.00000  Uiso   1.00
C198   C     0.86886   0.45185   0.28577   0.00000  Uiso   1.00
C199   C     0.84066   0.02404   0.24957   0.00000  Uiso   1.00
C200   C     0.84067   0.47563   0.24885   0.00000  Uiso   1.00
Cu201  Cu    0.83333   0.24999   0.29821   0.00000  Uiso   1.00
Cu202  Cu    0.83333   0.25000   0.20178   0.00000  Uiso   1.00
H203   H     0.81143   0.02422   0.31848   0.00000  Uiso   1.00
H204   H     0.78757   0.47143   0.18404   0.00000  Uiso   1.00
H205   H     0.86511   0.11541   0.18201   0.00000  Uiso   1.00
H206   H     0.88761   0.38743   0.31399   0.00000  Uiso   1.00
H207   H     0.79710   0.18607   0.03251   0.00000  Uiso   1.00
H208   H     0.90900   0.28056   0.47144   0.00000  Uiso   1.00
N209   N     0.83333   0.25001   0.12934   0.00000  Uiso   1.00
N210   N     0.83333   0.24999   0.37065   0.00000  Uiso   1.00
O211   O     0.83334   0.18572   0.29071   0.00000  Uiso   1.00
O212   O     0.83333   0.31427   0.20928   0.00000  Uiso   1.00
O213   O     0.83334   0.18573   0.20928   0.00000  Uiso   1.00
O214   O     0.83333   0.31427   0.29072   0.00000  Uiso   1.00
O215   O     0.75828   0.24999   0.28132   0.00000  Uiso   1.00
O216   O     0.90839   0.25000   0.21868   0.00000  Uiso   1.00
O217   O     0.75828   0.25000   0.19988   0.00000  Uiso   1.00
O218   O     0.90839   0.25000   0.30011   0.00000  Uiso   1.00
C219   C     0.99141   0.20495   0.19916   0.00000  Uiso   1.00
H220   H     0.68879   0.18649   0.18535   0.00000  Uiso   1.00
H221   H     0.96699   0.18029   0.21722   0.00000  Uiso   1.00
H222   H     0.96875   0.22017   0.16765   0.00000  Uiso   1.00
C223   C     0.67476   0.29804   0.29767   0.00000  Uiso   1.00
H224   H     0.97706   0.31747   0.30942   0.00000  Uiso   1.00
H225   H     0.69745   0.28515   0.33037   0.00000  Uiso   1.00
H226   H     0.69916   0.32151   0.27808   0.00000  Uiso   1.00
N227   N     0.80301   0.10972   0.33086   0.00000  Uiso   1.00
H228   H     0.82679   0.10069   0.36173   0.00000  Uiso   1.00
H229   H     0.76606   0.09634   0.33406   0.00000  Uiso   1.00
N230   N     0.77436   0.38429   0.17450   0.00000  Uiso   1.00
H231   H     0.73690   0.39416   0.17573   0.00000  Uiso   1.00
H232   H     0.78575   0.39463   0.14129   0.00000  Uiso   1.00
N233   N     0.87437   0.02958   0.17095   0.00000  Uiso   1.00
H234   H     0.91146   0.04276   0.16800   0.00000  Uiso   1.00
H235   H     0.85104   0.03842   0.13972   0.00000  Uiso   1.00
N236   N     0.90125   0.47458   0.32300   0.00000  Uiso   1.00
H237   H     0.93868   0.46440   0.32247   0.00000  Uiso   1.00
H238   H     0.88914   0.46464   0.35605   0.00000  Uiso   1.00
N239   N     0.86421   0.33046   0.03304   0.00000  Uiso   1.00
H240   H     0.90147   0.33091   0.02345   0.00000  Uiso   1.00
H241   H     0.83796   0.33638   0.00284   0.00000  Uiso   1.00
N242   N     0.74310   0.22224   0.46268   0.00000  Uiso   1.00
H243   H     0.73473   0.18827   0.45935   0.00000  Uiso   1.00
H244   H     0.71331   0.23942   0.44382   0.00000  Uiso   1.00
C245   C     0.88900   0.32134   0.13268   0.00000  Uiso   1.00
H246   H     0.90677   0.31077   0.16815   0.00000  Uiso   1.00
H247   H     0.92229   0.33157   0.11315   0.00000  Uiso   1.00
H248   H     0.86595   0.35077   0.13549   0.00000  Uiso   1.00
C249   C     0.75272   0.19925   0.36548   0.00000  Uiso   1.00
H250   H     0.76198   0.18901   0.33051   0.00000  Uiso   1.00
H251   H     0.74878   0.16757   0.38573   0.00000  Uiso   1.00
H252   H     0.71506   0.21482   0.36116   0.00000  Uiso   1.00
N253   N     0.78162   0.18121   0.12413   0.00000  Uiso   1.00
H254   H     0.74370   0.18066   0.10786   0.00000  Uiso   1.00
H255   H     0.79713   0.15119   0.11689   0.00000  Uiso   1.00
N256   N     0.91288   0.29497   0.37867   0.00000  Uiso   1.00
H257   H     0.94782   0.28162   0.39197   0.00000  Uiso   1.00
H258   H     0.91360   0.32767   0.39019   0.00000  Uiso   1.00
C259   C     0.16688   0.66490   0.25047   0.00000  Uiso   1.00
C260   C     0.16669   0.83488   0.24953   0.00000  Uiso   1.00
C261   C     0.18534   0.78841   0.05502   0.00000  Uiso   1.00
C262   C     0.12331   0.73396   0.44251   0.00000  Uiso   1.00
C263   C     0.18999   0.78511   0.10599   0.00000  Uiso   1.00
C264   C     0.12663   0.72931   0.39240   0.00000  Uiso   1.00
C265   C     0.14312   0.71608   0.10210   0.00000  Uiso   1.00
C266   C     0.20612   0.77062   0.39953   0.00000  Uiso   1.00
C267   C     0.14569   0.71523   0.05194   0.00000  Uiso   1.00
C268   C     0.20783   0.76839   0.45015   0.00000  Uiso   1.00
C269   C     0.16597   0.75176   0.02706   0.00000  Uiso   1.00
C270   C     0.16563   0.75149   0.47264   0.00000  Uiso   1.00
C271   C     0.06831   0.74848   0.23830   0.00000  Uiso   1.00
C272   C     0.26504   0.75181   0.26160   0.00000  Uiso   1.00
C273   C     0.01371   0.74048   0.23418   0.00000  Uiso   1.00
C274   C     0.31959   0.76044   0.26519   0.00000  Uiso   1.00
C275   C     0.15696   0.54427   0.28892   0.00000  Uiso   1.00
C276   C     0.14337   0.95309   0.21201   0.00000  Uiso   1.00
C277   C     0.15456   0.59020   0.29027   0.00000  Uiso   1.00
C278   C     0.14048   0.90690   0.21156   0.00000  Uiso   1.00
C279   C     0.16904   0.61640   0.25126   0.00000  Uiso   1.00
C280   C     0.16843   0.88312   0.24870   0.00000  Uiso   1.00
C281   C     0.18635   0.59584   0.21194   0.00000  Uiso   1.00
C282   C     0.19895   0.90568   0.28560   0.00000  Uiso   1.00
C283   C     0.18902   0.54990   0.21090   0.00000  Uiso   1.00
C284   C     0.20219   0.95185   0.28577   0.00000  Uiso   1.00
C285   C     0.17399   0.52404   0.24957   0.00000  Uiso   1.00
C286   C     0.17400   0.97563   0.24885   0.00000  Uiso   1.00
Cu287  Cu    0.16667   0.74999   0.29821   0.00000  Uiso   1.00
Cu288  Cu    0.16667   0.75000   0.20178   0.00000  Uiso   1.00
H289   H     0.14476   0.52422   0.31848   0.00000  Uiso   1.00
H290   H     0.12090   0.97143   0.18404   0.00000  Uiso   1.00
H291   H     0.19844   0.61541   0.18201   0.00000  Uiso   1.00
H292   H     0.22094   0.88743   0.31399   0.00000  Uiso   1.00
H293   H     0.13043   0.68607   0.03251   0.00000  Uiso   1.00
H294   H     0.24233   0.78056   0.47144   0.00000  Uiso   1.00
N295   N     0.16667   0.75001   0.12934   0.00000  Uiso   1.00
N296   N     0.16667   0.74999   0.37065   0.00000  Uiso   1.00
O297   O     0.16667   0.68572   0.29071   0.00000  Uiso   1.00
O298   O     0.16666   0.81427   0.20928   0.00000  Uiso   1.00
O299   O     0.16667   0.68573   0.20928   0.00000  Uiso   1.00
O300   O     0.16666   0.81427   0.29072   0.00000  Uiso   1.00
O301   O     0.09161   0.74999   0.28132   0.00000  Uiso   1.00
O302   O     0.24172   0.75000   0.21868   0.00000  Uiso   1.00
O303   O     0.09161   0.75000   0.19988   0.00000  Uiso   1.00
O304   O     0.24172   0.75000   0.30011   0.00000  Uiso   1.00
C305   C     0.32475   0.70495   0.19916   0.00000  Uiso   1.00
H306   H     0.02212   0.68649   0.18535   0.00000  Uiso   1.00
H307   H     0.30033   0.68029   0.21722   0.00000  Uiso   1.00
H308   H     0.30208   0.72017   0.16765   0.00000  Uiso   1.00
C309   C     0.00810   0.79804   0.29767   0.00000  Uiso   1.00
H310   H     0.31039   0.81747   0.30942   0.00000  Uiso   1.00
H311   H     0.03078   0.78515   0.33037   0.00000  Uiso   1.00
H312   H     0.03250   0.82151   0.27808   0.00000  Uiso   1.00
N313   N     0.13635   0.60972   0.33086   0.00000  Uiso   1.00
H314   H     0.16013   0.60069   0.36173   0.00000  Uiso   1.00
H315   H     0.09939   0.59634   0.33406   0.00000  Uiso   1.00
N316   N     0.10769   0.88429   0.17450   0.00000  Uiso   1.00
H317   H     0.07024   0.89416   0.17573   0.00000  Uiso   1.00
H318   H     0.11909   0.89463   0.14129   0.00000  Uiso   1.00
N319   N     0.20770   0.52958   0.17095   0.00000  Uiso   1.00
H320   H     0.24480   0.54276   0.16800   0.00000  Uiso   1.00
H321   H     0.18437   0.53842   0.13972   0.00000  Uiso   1.00
N322   N     0.23458   0.97458   0.32300   0.00000  Uiso   1.00
H323   H     0.27201   0.96440   0.32247   0.00000  Uiso   1.00
H324   H     0.22247   0.96464   0.35605   0.00000  Uiso   1.00
N325   N     0.19754   0.83046   0.03304   0.00000  Uiso   1.00
H326   H     0.23481   0.83091   0.02345   0.00000  Uiso   1.00
H327   H     0.17130   0.83638   0.00284   0.00000  Uiso   1.00
N328   N     0.07644   0.72224   0.46268   0.00000  Uiso   1.00
H329   H     0.06806   0.68827   0.45935   0.00000  Uiso   1.00
H330   H     0.04664   0.73942   0.44382   0.00000  Uiso   1.00
C331   C     0.22234   0.82134   0.13268   0.00000  Uiso   1.00
H332   H     0.24010   0.81077   0.16815   0.00000  Uiso   1.00
H333   H     0.25562   0.83157   0.11315   0.00000  Uiso   1.00
H334   H     0.19928   0.85077   0.13549   0.00000  Uiso   1.00
C335   C     0.08605   0.69925   0.36548   0.00000  Uiso   1.00
H336   H     0.09532   0.68901   0.33051   0.00000  Uiso   1.00
H337   H     0.08211   0.66757   0.38573   0.00000  Uiso   1.00
H338   H     0.04840   0.71482   0.36116   0.00000  Uiso   1.00
N339   N     0.11495   0.68121   0.12413   0.00000  Uiso   1.00
H340   H     0.07703   0.68066   0.10786   0.00000  Uiso   1.00
H341   H     0.13046   0.65119   0.11689   0.00000  Uiso   1.00
N342   N     0.24621   0.79497   0.37867   0.00000  Uiso   1.00
H343   H     0.28115   0.78162   0.39197   0.00000  Uiso   1.00
H344   H     0.24693   0.82767   0.39019   0.00000  Uiso   1.00
C345   C     0.50021   0.66490   0.25047   0.00000  Uiso   1.00
C346   C     0.50002   0.83488   0.24953   0.00000  Uiso   1.00
C347   C     0.51867   0.78841   0.05502   0.00000  Uiso   1.00
C348   C     0.45665   0.73396   0.44251   0.00000  Uiso   1.00
C349   C     0.52333   0.78511   0.10599   0.00000  Uiso   1.00
C350   C     0.45996   0.72931   0.39240   0.00000  Uiso   1.00
C351   C     0.47645   0.71608   0.10210   0.00000  Uiso   1.00
C352   C     0.53945   0.77062   0.39953   0.00000  Uiso   1.00
C353   C     0.47903   0.71523   0.05194   0.00000  Uiso   1.00
C354   C     0.54117   0.76839   0.45015   0.00000  Uiso   1.00
C355   C     0.49930   0.75176   0.02706   0.00000  Uiso   1.00
C356   C     0.49896   0.75149   0.47264   0.00000  Uiso   1.00
C357   C     0.40164   0.74848   0.23830   0.00000  Uiso   1.00
C358   C     0.59838   0.75181   0.26160   0.00000  Uiso   1.00
C359   C     0.34704   0.74048   0.23418   0.00000  Uiso   1.00
C360   C     0.65293   0.76044   0.26519   0.00000  Uiso   1.00
C361   C     0.49029   0.54427   0.28892   0.00000  Uiso   1.00
C362   C     0.47670   0.95309   0.21201   0.00000  Uiso   1.00
C363   C     0.48790   0.59020   0.29027   0.00000  Uiso   1.00
C364   C     0.47381   0.90690   0.21156   0.00000  Uiso   1.00
C365   C     0.50237   0.61640   0.25126   0.00000  Uiso   1.00
C366   C     0.50177   0.88312   0.24870   0.00000  Uiso   1.00
C367   C     0.51968   0.59584   0.21194   0.00000  Uiso   1.00
C368   C     0.53228   0.90568   0.28560   0.00000  Uiso   1.00
C369   C     0.52236   0.54990   0.21090   0.00000  Uiso   1.00
C370   C     0.53552   0.95185   0.28577   0.00000  Uiso   1.00
C371   C     0.50732   0.52404   0.24957   0.00000  Uiso   1.00
C372   C     0.50733   0.97563   0.24885   0.00000  Uiso   1.00
Cu373  Cu    0.50000   0.74999   0.29821   0.00000  Uiso   1.00
Cu374  Cu    0.50000   0.75000   0.20178   0.00000  Uiso   1.00
H375   H     0.47809   0.52422   0.31848   0.00000  Uiso   1.00
H376   H     0.45423   0.97143   0.18404   0.00000  Uiso   1.00
H377   H     0.53178   0.61541   0.18201   0.00000  Uiso   1.00
H378   H     0.55428   0.88743   0.31399   0.00000  Uiso   1.00
H379   H     0.46376   0.68607   0.03251   0.00000  Uiso   1.00
H380   H     0.57567   0.78056   0.47144   0.00000  Uiso   1.00
N381   N     0.50000   0.75001   0.12934   0.00000  Uiso   1.00
N382   N     0.50000   0.74999   0.37065   0.00000  Uiso   1.00
O383   O     0.50000   0.68572   0.29071   0.00000  Uiso   1.00
O384   O     0.50000   0.81427   0.20928   0.00000  Uiso   1.00
O385   O     0.50000   0.68573   0.20928   0.00000  Uiso   1.00
O386   O     0.50000   0.81427   0.29072   0.00000  Uiso   1.00
O387   O     0.42495   0.74999   0.28132   0.00000  Uiso   1.00
O388   O     0.57505   0.75000   0.21868   0.00000  Uiso   1.00
O389   O     0.42495   0.75000   0.19988   0.00000  Uiso   1.00
O390   O     0.57505   0.75000   0.30011   0.00000  Uiso   1.00
C391   C     0.65808   0.70495   0.19916   0.00000  Uiso   1.00
H392   H     0.35545   0.68649   0.18535   0.00000  Uiso   1.00
H393   H     0.63366   0.68029   0.21722   0.00000  Uiso   1.00
H394   H     0.63542   0.72017   0.16765   0.00000  Uiso   1.00
C395   C     0.34143   0.79804   0.29767   0.00000  Uiso   1.00
H396   H     0.64373   0.81747   0.30942   0.00000  Uiso   1.00
H397   H     0.36411   0.78515   0.33037   0.00000  Uiso   1.00
H398   H     0.36583   0.82151   0.27808   0.00000  Uiso   1.00
N399   N     0.46968   0.60972   0.33086   0.00000  Uiso   1.00
H400   H     0.49346   0.60069   0.36173   0.00000  Uiso   1.00
H401   H     0.43272   0.59634   0.33406   0.00000  Uiso   1.00
N402   N     0.44102   0.88429   0.17450   0.00000  Uiso   1.00
H403   H     0.40357   0.89416   0.17573   0.00000  Uiso   1.00
H404   H     0.45242   0.89463   0.14129   0.00000  Uiso   1.00
N405   N     0.54104   0.52958   0.17095   0.00000  Uiso   1.00
H406   H     0.57813   0.54276   0.16800   0.00000  Uiso   1.00
H407   H     0.51771   0.53842   0.13972   0.00000  Uiso   1.00
N408   N     0.56791   0.97458   0.32300   0.00000  Uiso   1.00
H409   H     0.60534   0.96440   0.32247   0.00000  Uiso   1.00
H410   H     0.55580   0.96464   0.35605   0.00000  Uiso   1.00
N411   N     0.53088   0.83046   0.03304   0.00000  Uiso   1.00
H412   H     0.56814   0.83091   0.02345   0.00000  Uiso   1.00
H413   H     0.50463   0.83638   0.00284   0.00000  Uiso   1.00
N414   N     0.40977   0.72224   0.46268   0.00000  Uiso   1.00
H415   H     0.40140   0.68827   0.45935   0.00000  Uiso   1.00
H416   H     0.37997   0.73942   0.44382   0.00000  Uiso   1.00
C417   C     0.55567   0.82134   0.13268   0.00000  Uiso   1.00
H418   H     0.57343   0.81077   0.16815   0.00000  Uiso   1.00
H419   H     0.58895   0.83157   0.11315   0.00000  Uiso   1.00
H420   H     0.53261   0.85077   0.13549   0.00000  Uiso   1.00
C421   C     0.41938   0.69925   0.36548   0.00000  Uiso   1.00
H422   H     0.42865   0.68901   0.33051   0.00000  Uiso   1.00
H423   H     0.41545   0.66757   0.38573   0.00000  Uiso   1.00
H424   H     0.38173   0.71482   0.36116   0.00000  Uiso   1.00
N425   N     0.44828   0.68121   0.12413   0.00000  Uiso   1.00
H426   H     0.41037   0.68066   0.10786   0.00000  Uiso   1.00
H427   H     0.46380   0.65119   0.11689   0.00000  Uiso   1.00
N428   N     0.57954   0.79497   0.37867   0.00000  Uiso   1.00
H429   H     0.61449   0.78162   0.39197   0.00000  Uiso   1.00
H430   H     0.58026   0.82767   0.39019   0.00000  Uiso   1.00
C431   C     0.83354   0.66490   0.25047   0.00000  Uiso   1.00
C432   C     0.83335   0.83488   0.24953   0.00000  Uiso   1.00
C433   C     0.85201   0.78841   0.05502   0.00000  Uiso   1.00
C434   C     0.78998   0.73396   0.44251   0.00000  Uiso   1.00
C435   C     0.85666   0.78511   0.10599   0.00000  Uiso   1.00
C436   C     0.79329   0.72931   0.39240   0.00000  Uiso   1.00
C437   C     0.80978   0.71608   0.10210   0.00000  Uiso   1.00
C438   C     0.87279   0.77062   0.39953   0.00000  Uiso   1.00
C439   C     0.81236   0.71523   0.05194   0.00000  Uiso   1.00
C440   C     0.87450   0.76839   0.45015   0.00000  Uiso   1.00
C441   C     0.83264   0.75176   0.02706   0.00000  Uiso   1.00
C442   C     0.83230   0.75149   0.47264   0.00000  Uiso   1.00
C443   C     0.73498   0.74848   0.23830   0.00000  Uiso   1.00
C444   C     0.93171   0.75181   0.26160   0.00000  Uiso   1.00
C445   C     0.68037   0.74048   0.23418   0.00000  Uiso   1.00
C446   C     0.98626   0.76044   0.26519   0.00000  Uiso   1.00
C447   C     0.82363   0.54427   0.28892   0.00000  Uiso   1.00
C448   C     0.81003   0.95309   0.21201   0.00000  Uiso   1.00
C449   C     0.82123   0.59020   0.29027   0.00000  Uiso   1.00
C450   C     0.80714   0.90690   0.21156   0.00000  Uiso   1.00
C451   C     0.83571   0.61640   0.25126   0.00000  Uiso   1.00
C452   C     0.83510   0.88312   0.24870   0.00000  Uiso   1.00
C453   C     0.85301   0.59584   0.21194   0.00000  Uiso   1.00
C454   C     0.86562   0.90568   0.28560   0.00000  Uiso   1.00
C455   C     0.85569   0.54990   0.21090   0.00000  Uiso   1.00
C456   C     0.86886   0.95185   0.28577   0.00000  Uiso   1.00
C457   C     0.84066   0.52404   0.24957   0.00000  Uiso   1.00
C458   C     0.84067   0.97563   0.24885   0.00000  Uiso   1.00
Cu459  Cu    0.83333   0.74999   0.29821   0.00000  Uiso   1.00
Cu460  Cu    0.83333   0.75000   0.20178   0.00000  Uiso   1.00
H461   H     0.81143   0.52422   0.31848   0.00000  Uiso   1.00
H462   H     0.78757   0.97143   0.18404   0.00000  Uiso   1.00
H463   H     0.86511   0.61541   0.18201   0.00000  Uiso   1.00
H464   H     0.88761   0.88743   0.31399   0.00000  Uiso   1.00
H465   H     0.79710   0.68607   0.03251   0.00000  Uiso   1.00
H466   H     0.90900   0.78056   0.47144   0.00000  Uiso   1.00
N467   N     0.83333   0.75001   0.12934   0.00000  Uiso   1.00
N468   N     0.83333   0.74999   0.37065   0.00000  Uiso   1.00
O469   O     0.83334   0.68572   0.29071   0.00000  Uiso   1.00
O470   O     0.83333   0.81427   0.20928   0.00000  Uiso   1.00
O471   O     0.83334   0.68573   0.20928   0.00000  Uiso   1.00
O472   O     0.83333   0.81427   0.29072   0.00000  Uiso   1.00
O473   O     0.75828   0.74999   0.28132   0.00000  Uiso   1.00
O474   O     0.90839   0.75000   0.21868   0.00000  Uiso   1.00
O475   O     0.75828   0.75000   0.19988   0.00000  Uiso   1.00
O476   O     0.90839   0.75000   0.30011   0.00000  Uiso   1.00
C477   C     0.99141   0.70495   0.19916   0.00000  Uiso   1.00
H478   H     0.68879   0.68649   0.18535   0.00000  Uiso   1.00
H479   H     0.96699   0.68029   0.21722   0.00000  Uiso   1.00
H480   H     0.96875   0.72017   0.16765   0.00000  Uiso   1.00
C481   C     0.67476   0.79804   0.29767   0.00000  Uiso   1.00
H482   H     0.97706   0.81747   0.30942   0.00000  Uiso   1.00
H483   H     0.69745   0.78515   0.33037   0.00000  Uiso   1.00
H484   H     0.69916   0.82151   0.27808   0.00000  Uiso   1.00
N485   N     0.80301   0.60972   0.33086   0.00000  Uiso   1.00
H486   H     0.82679   0.60069   0.36173   0.00000  Uiso   1.00
H487   H     0.76606   0.59634   0.33406   0.00000  Uiso   1.00
N488   N     0.77436   0.88429   0.17450   0.00000  Uiso   1.00
H489   H     0.73690   0.89416   0.17573   0.00000  Uiso   1.00
H490   H     0.78575   0.89463   0.14129   0.00000  Uiso   1.00
N491   N     0.87437   0.52958   0.17095   0.00000  Uiso   1.00
H492   H     0.91146   0.54276   0.16800   0.00000  Uiso   1.00
H493   H     0.85104   0.53842   0.13972   0.00000  Uiso   1.00
N494   N     0.90125   0.97458   0.32300   0.00000  Uiso   1.00
H495   H     0.93868   0.96440   0.32247   0.00000  Uiso   1.00
H496   H     0.88914   0.96464   0.35605   0.00000  Uiso   1.00
N497   N     0.86421   0.83046   0.03304   0.00000  Uiso   1.00
H498   H     0.90147   0.83091   0.02345   0.00000  Uiso   1.00
H499   H     0.83796   0.83638   0.00284   0.00000  Uiso   1.00
N500   N     0.74310   0.72224   0.46268   0.00000  Uiso   1.00
H501   H     0.73473   0.68827   0.45935   0.00000  Uiso   1.00
H502   H     0.71331   0.73942   0.44382   0.00000  Uiso   1.00
C503   C     0.88900   0.82134   0.13268   0.00000  Uiso   1.00
H504   H     0.90677   0.81077   0.16815   0.00000  Uiso   1.00
H505   H     0.92229   0.83157   0.11315   0.00000  Uiso   1.00
H506   H     0.86595   0.85077   0.13549   0.00000  Uiso   1.00
C507   C     0.75272   0.69925   0.36548   0.00000  Uiso   1.00
H508   H     0.76198   0.68901   0.33051   0.00000  Uiso   1.00
H509   H     0.74878   0.66757   0.38573   0.00000  Uiso   1.00
H510   H     0.71506   0.71482   0.36116   0.00000  Uiso   1.00
N511   N     0.78162   0.68121   0.12413   0.00000  Uiso   1.00
H512   H     0.74370   0.68066   0.10786   0.00000  Uiso   1.00
H513   H     0.79713   0.65119   0.11689   0.00000  Uiso   1.00
N514   N     0.91288   0.79497   0.37867   0.00000  Uiso   1.00
H515   H     0.94782   0.78162   0.39197   0.00000  Uiso   1.00
H516   H     0.91360   0.82767   0.39019   0.00000  Uiso   1.00
C517   C     0.16688   0.16490   0.75047   0.00000  Uiso   1.00
C518   C     0.16669   0.33488   0.74953   0.00000  Uiso   1.00
C519   C     0.18534   0.28841   0.55502   0.00000  Uiso   1.00
C520   C     0.12331   0.23396   0.94251   0.00000  Uiso   1.00
C521   C     0.18999   0.28511   0.60599   0.00000  Uiso   1.00
C522   C     0.12663   0.22931   0.89240   0.00000  Uiso   1.00
C523   C     0.14312   0.21608   0.60210   0.00000  Uiso   1.00
C524   C     0.20612   0.27062   0.89953   0.00000  Uiso   1.00
C525   C     0.14569   0.21523   0.55194   0.00000  Uiso   1.00
C526   C     0.20783   0.26839   0.95015   0.00000  Uiso   1.00
C527   C     0.16597   0.25176   0.52706   0.00000  Uiso   1.00
C528   C     0.16563   0.25149   0.97264   0.00000  Uiso   1.00
C529   C     0.06831   0.24848   0.73830   0.00000  Uiso   1.00
C530   C     0.26504   0.25181   0.76160   0.00000  Uiso   1.00
C531   C     0.01371   0.24048   0.73418   0.00000  Uiso   1.00
C532   C     0.31959   0.26044   0.76519   0.00000  Uiso   1.00
C533   C     0.15696   0.04427   0.78892   0.00000  Uiso   1.00
C534   C     0.14337   0.45309   0.71201   0.00000  Uiso   1.00
C535   C     0.15456   0.09020   0.79027   0.00000  Uiso   1.00
C536   C     0.14048   0.40690   0.71156   0.00000  Uiso   1.00
C537   C     0.16904   0.11640   0.75126   0.00000  Uiso   1.00
C538   C     0.16843   0.38312   0.74870   0.00000  Uiso   1.00
C539   C     0.18635   0.09584   0.71194   0.00000  Uiso   1.00
C540   C     0.19895   0.40568   0.78560   0.00000  Uiso   1.00
C541   C     0.18902   0.04990   0.71090   0.00000  Uiso   1.00
C542   C     0.20219   0.45185   0.78577   0.00000  Uiso   1.00
C543   C     0.17399   0.02404   0.74957   0.00000  Uiso   1.00
C544   C     0.17400   0.47563   0.74885   0.00000  Uiso   1.00
Cu545  Cu    0.16667   0.24999   0.79821   0.00000  Uiso   1.00
Cu546  Cu    0.16667   0.25000   0.70178   0.00000  Uiso   1.00
H547   H     0.14476   0.02422   0.81848   0.00000  Uiso   1.00
H548   H     0.12090   0.47143   0.68404   0.00000  Uiso   1.00
H549   H     0.19844   0.11541   0.68201   0.00000  Uiso   1.00
H550   H     0.22094   0.38743   0.81399   0.00000  Uiso   1.00
H551   H     0.13043   0.18607   0.53251   0.00000  Uiso   1.00
H552   H     0.24233   0.28056   0.97144   0.00000  Uiso   1.00
N553   N     0.16667   0.25001   0.62934   0.00000  Uiso   1.00
N554   N     0.16667   0.24999   0.87065   0.00000  Uiso   1.00
O555   O     0.16667   0.18572   0.79071   0.00000  Uiso   1.00
O556   O     0.16666   0.31427   0.70928   0.00000  Uiso   1.00
O557   O     0.16667   0.18573   0.70928   0.00000  Uiso   1.00
O558   O     0.16666   0.31427   0.79072   0.00000  Uiso   1.00
O559   O     0.09161   0.24999   0.78132   0.00000  Uiso   1.00
O560   O     0.24172   0.25000   0.71868   0.00000  Uiso   1.00
O561   O     0.09161   0.25000   0.69988   0.00000  Uiso   1.00
O562   O     0.24172   0.25000   0.80011   0.00000  Uiso   1.00
C563   C     0.32475   0.20495   0.69916   0.00000  Uiso   1.00
H564   H     0.02212   0.18649   0.68535   0.00000  Uiso   1.00
H565   H     0.30033   0.18029   0.71722   0.00000  Uiso   1.00
H566   H     0.30208   0.22017   0.66765   0.00000  Uiso   1.00
C567   C     0.00810   0.29804   0.79767   0.00000  Uiso   1.00
H568   H     0.31039   0.31747   0.80942   0.00000  Uiso   1.00
H569   H     0.03078   0.28515   0.83037   0.00000  Uiso   1.00
H570   H     0.03250   0.32151   0.77808   0.00000  Uiso   1.00
N571   N     0.13635   0.10972   0.83086   0.00000  Uiso   1.00
H572   H     0.16013   0.10069   0.86173   0.00000  Uiso   1.00
H573   H     0.09939   0.09634   0.83406   0.00000  Uiso   1.00
N574   N     0.10769   0.38429   0.67450   0.00000  Uiso   1.00
H575   H     0.07024   0.39416   0.67573   0.00000  Uiso   1.00
H576   H     0.11909   0.39463   0.64129   0.00000  Uiso   1.00
N577   N     0.20770   0.02958   0.67095   0.00000  Uiso   1.00
H578   H     0.24480   0.04276   0.66800   0.00000  Uiso   1.00
H579   H     0.18437   0.03842   0.63972   0.00000  Uiso   1.00
N580   N     0.23458   0.47458   0.82300   0.00000  Uiso   1.00
H581   H     0.27201   0.46440   0.82247   0.00000  Uiso   1.00
H582   H     0.22247   0.46464   0.85605   0.00000  Uiso   1.00
N583   N     0.19754   0.33046   0.53304   0.00000  Uiso   1.00
H584   H     0.23481   0.33091   0.52345   0.00000  Uiso   1.00
H585   H     0.17130   0.33638   0.50284   0.00000  Uiso   1.00
N586   N     0.07644   0.22224   0.96268   0.00000  Uiso   1.00
H587   H     0.06806   0.18827   0.95935   0.00000  Uiso   1.00
H588   H     0.04664   0.23942   0.94382   0.00000  Uiso   1.00
C589   C     0.22234   0.32134   0.63268   0.00000  Uiso   1.00
H590   H     0.24010   0.31077   0.66815   0.00000  Uiso   1.00
H591   H     0.25562   0.33157   0.61315   0.00000  Uiso   1.00
H592   H     0.19928   0.35077   0.63549   0.00000  Uiso   1.00
C593   C     0.08605   0.19925   0.86548   0.00000  Uiso   1.00
H594   H     0.09532   0.18901   0.83051   0.00000  Uiso   1.00
H595   H     0.08211   0.16757   0.88573   0.00000  Uiso   1.00
H596   H     0.04840   0.21482   0.86116   0.00000  Uiso   1.00
N597   N     0.11495   0.18121   0.62413   0.00000  Uiso   1.00
H598   H     0.07703   0.18066   0.60786   0.00000  Uiso   1.00
H599   H     0.13046   0.15119   0.61689   0.00000  Uiso   1.00
N600   N     0.24621   0.29497   0.87867   0.00000  Uiso   1.00
H601   H     0.28115   0.28162   0.89197   0.00000  Uiso   1.00
H602   H     0.24693   0.32767   0.89019   0.00000  Uiso   1.00
C603   C     0.50021   0.16490   0.75047   0.00000  Uiso   1.00
C604   C     0.50002   0.33488   0.74953   0.00000  Uiso   1.00
C605   C     0.51867   0.28841   0.55502   0.00000  Uiso   1.00
C606   C     0.45665   0.23396   0.94251   0.00000  Uiso   1.00
C607   C     0.52333   0.28511   0.60599   0.00000  Uiso   1.00
C608   C     0.45996   0.22931   0.89240   0.00000  Uiso   1.00
C609   C     0.47645   0.21608   0.60210   0.00000  Uiso   1.00
C610   C     0.53945   0.27062   0.89953   0.00000  Uiso   1.00
C611   C     0.47903   0.21523   0.55194   0.00000  Uiso   1.00
C612   C     0.54117   0.26839   0.95015   0.00000  Uiso   1.00
C613   C     0.49930   0.25176   0.52706   0.00000  Uiso   1.00
C614   C     0.49896   0.25149   0.97264   0.00000  Uiso   1.00
C615   C     0.40164   0.24848   0.73830   0.00000  Uiso   1.00
C616   C     0.59838   0.25181   0.76160   0.00000  Uiso   1.00
C617   C     0.34704   0.24048   0.73418   0.00000  Uiso   1.00
C618   C     0.65293   0.26044   0.76519   0.00000  Uiso   1.00
C619   C     0.49029   0.04427   0.78892   0.00000  Uiso   1.00
C620   C     0.47670   0.45309   0.71201   0.00000  Uiso   1.00
C621   C     0.48790   0.09020   0.79027   0.00000  Uiso   1.00
C622   C     0.47381   0.40690   0.71156   0.00000  Uiso   1.00
C623   C     0.50237   0.11640   0.75126   0.00000  Uiso   1.00
C624   C     0.50177   0.38312   0.74870   0.00000  Uiso   1.00
C625   C     0.51968   0.09584   0.71194   0.00000  Uiso   1.00
C626   C     0.53228   0.40568   0.78560   0.00000  Uiso   1.00
C627   C     0.52236   0.04990   0.71090   0.00000  Uiso   1.00
C628   C     0.53552   0.45185   0.78577   0.00000  Uiso   1.00
C629   C     0.50732   0.02404   0.74957   0.00000  Uiso   1.00
C630   C     0.50733   0.47563   0.74885   0.00000  Uiso   1.00
Cu631  Cu    0.50000   0.24999   0.79821   0.00000  Uiso   1.00
Cu632  Cu    0.50000   0.25000   0.70178   0.00000  Uiso   1.00
H633   H     0.47809   0.02422   0.81848   0.00000  Uiso   1.00
H634   H     0.45423   0.47143   0.68404   0.00000  Uiso   1.00
H635   H     0.53178   0.11541   0.68201   0.00000  Uiso   1.00
H636   H     0.55428   0.38743   0.81399   0.00000  Uiso   1.00
H637   H     0.46376   0.18607   0.53251   0.00000  Uiso   1.00
H638   H     0.57567   0.28056   0.97144   0.00000  Uiso   1.00
N639   N     0.50000   0.25001   0.62934   0.00000  Uiso   1.00
N640   N     0.50000   0.24999   0.87065   0.00000  Uiso   1.00
O641   O     0.50000   0.18572   0.79071   0.00000  Uiso   1.00
O642   O     0.50000   0.31427   0.70928   0.00000  Uiso   1.00
O643   O     0.50000   0.18573   0.70928   0.00000  Uiso   1.00
O644   O     0.50000   0.31427   0.79072   0.00000  Uiso   1.00
O645   O     0.42495   0.24999   0.78132   0.00000  Uiso   1.00
O646   O     0.57505   0.25000   0.71868   0.00000  Uiso   1.00
O647   O     0.42495   0.25000   0.69988   0.00000  Uiso   1.00
O648   O     0.57505   0.25000   0.80011   0.00000  Uiso   1.00
C649   C     0.65808   0.20495   0.69916   0.00000  Uiso   1.00
H650   H     0.35545   0.18649   0.68535   0.00000  Uiso   1.00
H651   H     0.63366   0.18029   0.71722   0.00000  Uiso   1.00
H652   H     0.63542   0.22017   0.66765   0.00000  Uiso   1.00
C653   C     0.34143   0.29804   0.79767   0.00000  Uiso   1.00
H654   H     0.64373   0.31747   0.80942   0.00000  Uiso   1.00
H655   H     0.36411   0.28515   0.83037   0.00000  Uiso   1.00
H656   H     0.36583   0.32151   0.77808   0.00000  Uiso   1.00
N657   N     0.46968   0.10972   0.83086   0.00000  Uiso   1.00
H658   H     0.49346   0.10069   0.86173   0.00000  Uiso   1.00
H659   H     0.43272   0.09634   0.83406   0.00000  Uiso   1.00
N660   N     0.44102   0.38429   0.67450   0.00000  Uiso   1.00
H661   H     0.40357   0.39416   0.67573   0.00000  Uiso   1.00
H662   H     0.45242   0.39463   0.64129   0.00000  Uiso   1.00
N663   N     0.54104   0.02958   0.67095   0.00000  Uiso   1.00
H664   H     0.57813   0.04276   0.66800   0.00000  Uiso   1.00
H665   H     0.51771   0.03842   0.63972   0.00000  Uiso   1.00
N666   N     0.56791   0.47458   0.82300   0.00000  Uiso   1.00
H667   H     0.60534   0.46440   0.82247   0.00000  Uiso   1.00
H668   H     0.55580   0.46464   0.85605   0.00000  Uiso   1.00
N669   N     0.53088   0.33046   0.53304   0.00000  Uiso   1.00
H670   H     0.56814   0.33091   0.52345   0.00000  Uiso   1.00
H671   H     0.50463   0.33638   0.50284   0.00000  Uiso   1.00
N672   N     0.40977   0.22224   0.96268   0.00000  Uiso   1.00
H673   H     0.40140   0.18827   0.95935   0.00000  Uiso   1.00
H674   H     0.37997   0.23942   0.94382   0.00000  Uiso   1.00
C675   C     0.55567   0.32134   0.63268   0.00000  Uiso   1.00
H676   H     0.57343   0.31077   0.66815   0.00000  Uiso   1.00
H677   H     0.58895   0.33157   0.61315   0.00000  Uiso   1.00
H678   H     0.53261   0.35077   0.63549   0.00000  Uiso   1.00
C679   C     0.41938   0.19925   0.86548   0.00000  Uiso   1.00
H680   H     0.42865   0.18901   0.83051   0.00000  Uiso   1.00
H681   H     0.41545   0.16757   0.88573   0.00000  Uiso   1.00
H682   H     0.38173   0.21482   0.86116   0.00000  Uiso   1.00
N683   N     0.44828   0.18121   0.62413   0.00000  Uiso   1.00
H684   H     0.41037   0.18066   0.60786   0.00000  Uiso   1.00
H685   H     0.46380   0.15119   0.61689   0.00000  Uiso   1.00
N686   N     0.57954   0.29497   0.87867   0.00000  Uiso   1.00
H687   H     0.61449   0.28162   0.89197   0.00000  Uiso   1.00
H688   H     0.58026   0.32767   0.89019   0.00000  Uiso   1.00
C689   C     0.83354   0.16490   0.75047   0.00000  Uiso   1.00
C690   C     0.83335   0.33488   0.74953   0.00000  Uiso   1.00
C691   C     0.85201   0.28841   0.55502   0.00000  Uiso   1.00
C692   C     0.78998   0.23396   0.94251   0.00000  Uiso   1.00
C693   C     0.85666   0.28511   0.60599   0.00000  Uiso   1.00
C694   C     0.79329   0.22931   0.89240   0.00000  Uiso   1.00
C695   C     0.80978   0.21608   0.60210   0.00000  Uiso   1.00
C696   C     0.87279   0.27062   0.89953   0.00000  Uiso   1.00
C697   C     0.81236   0.21523   0.55194   0.00000  Uiso   1.00
C698   C     0.87450   0.26839   0.95015   0.00000  Uiso   1.00
C699   C     0.83264   0.25176   0.52706   0.00000  Uiso   1.00
C700   C     0.83230   0.25149   0.97264   0.00000  Uiso   1.00
C701   C     0.73498   0.24848   0.73830   0.00000  Uiso   1.00
C702   C     0.93171   0.25181   0.76160   0.00000  Uiso   1.00
C703   C     0.68037   0.24048   0.73418   0.00000  Uiso   1.00
C704   C     0.98626   0.26044   0.76519   0.00000  Uiso   1.00
C705   C     0.82363   0.04427   0.78892   0.00000  Uiso   1.00
C706   C     0.81003   0.45309   0.71201   0.00000  Uiso   1.00
C707   C     0.82123   0.09020   0.79027   0.00000  Uiso   1.00
C708   C     0.80714   0.40690   0.71156   0.00000  Uiso   1.00
C709   C     0.83571   0.11640   0.75126   0.00000  Uiso   1.00
C710   C     0.83510   0.38312   0.74870   0.00000  Uiso   1.00
C711   C     0.85301   0.09584   0.71194   0.00000  Uiso   1.00
C712   C     0.86562   0.40568   0.78560   0.00000  Uiso   1.00
C713   C     0.85569   0.04990   0.71090   0.00000  Uiso   1.00
C714   C     0.86886   0.45185   0.78577   0.00000  Uiso   1.00
C715   C     0.84066   0.02404   0.74957   0.00000  Uiso   1.00
C716   C     0.84067   0.47563   0.74885   0.00000  Uiso   1.00
Cu717  Cu    0.83333   0.24999   0.79821   0.00000  Uiso   1.00
Cu718  Cu    0.83333   0.25000   0.70178   0.00000  Uiso   1.00
H719   H     0.81143   0.02422   0.81848   0.00000  Uiso   1.00
H720   H     0.78757   0.47143   0.68404   0.00000  Uiso   1.00
H721   H     0.86511   0.11541   0.68201   0.00000  Uiso   1.00
H722   H     0.88761   0.38743   0.81399   0.00000  Uiso   1.00
H723   H     0.79710   0.18607   0.53251   0.00000  Uiso   1.00
H724   H     0.90900   0.28056   0.97144   0.00000  Uiso   1.00
N725   N     0.83333   0.25001   0.62934   0.00000  Uiso   1.00
N726   N     0.83333   0.24999   0.87065   0.00000  Uiso   1.00
O727   O     0.83334   0.18572   0.79071   0.00000  Uiso   1.00
O728   O     0.83333   0.31427   0.70928   0.00000  Uiso   1.00
O729   O     0.83334   0.18573   0.70928   0.00000  Uiso   1.00
O730   O     0.83333   0.31427   0.79072   0.00000  Uiso   1.00
O731   O     0.75828   0.24999   0.78132   0.00000  Uiso   1.00
O732   O     0.90839   0.25000   0.71868   0.00000  Uiso   1.00
O733   O     0.75828   0.25000   0.69988   0.00000  Uiso   1.00
O734   O     0.90839   0.25000   0.80011   0.00000  Uiso   1.00
C735   C     0.99141   0.20495   0.69916   0.00000  Uiso   1.00
H736   H     0.68879   0.18649   0.68535   0.00000  Uiso   1.00
H737   H     0.96699   0.18029   0.71722   0.00000  Uiso   1.00
H738   H     0.96875   0.22017   0.66765   0.00000  Uiso   1.00
C739   C     0.67476   0.29804   0.79767   0.00000  Uiso   1.00
H740   H     0.97706   0.31747   0.80942   0.00000  Uiso   1.00
H741   H     0.69745   0.28515   0.83037   0.00000  Uiso   1.00
H742   H     0.69916   0.32151   0.77808   0.00000  Uiso   1.00
N743   N     0.80301   0.10972   0.83086   0.00000  Uiso   1.00
H744   H     0.82679   0.10069   0.86173   0.00000  Uiso   1.00
H745   H     0.76606   0.09634   0.83406   0.00000  Uiso   1.00
N746   N     0.77436   0.38429   0.67450   0.00000  Uiso   1.00
H747   H     0.73690   0.39416   0.67573   0.00000  Uiso   1.00
H748   H     0.78575   0.39463   0.64129   0.00000  Uiso   1.00
N749   N     0.87437   0.02958   0.67095   0.00000  Uiso   1.00
H750   H     0.91146   0.04276   0.66800   0.00000  Uiso   1.00
H751   H     0.85104   0.03842   0.63972   0.00000  Uiso   1.00
N752   N     0.90125   0.47458   0.82300   0.00000  Uiso   1.00
H753   H     0.93868   0.46440   0.82247   0.00000  Uiso   1.00
H754   H     0.88914   0.46464   0.85605   0.00000  Uiso   1.00
N755   N     0.86421   0.33046   0.53304   0.00000  Uiso   1.00
H756   H     0.90147   0.33091   0.52345   0.00000  Uiso   1.00
H757   H     0.83796   0.33638   0.50284   0.00000  Uiso   1.00
N758   N     0.74310   0.22224   0.96268   0.00000  Uiso   1.00
H759   H     0.73473   0.18827   0.95935   0.00000  Uiso   1.00
H760   H     0.71331   0.23942   0.94382   0.00000  Uiso   1.00
C761   C     0.88900   0.32134   0.63268   0.00000  Uiso   1.00
H762   H     0.90677   0.31077   0.66815   0.00000  Uiso   1.00
H763   H     0.92229   0.33157   0.61315   0.00000  Uiso   1.00
H764   H     0.86595   0.35077   0.63549   0.00000  Uiso   1.00
C765   C     0.75272   0.19925   0.86548   0.00000  Uiso   1.00
H766   H     0.76198   0.18901   0.83051   0.00000  Uiso   1.00
H767   H     0.74878   0.16757   0.88573   0.00000  Uiso   1.00
H768   H     0.71506   0.21482   0.86116   0.00000  Uiso   1.00
N769   N     0.78162   0.18121   0.62413   0.00000  Uiso   1.00
H770   H     0.74370   0.18066   0.60786   0.00000  Uiso   1.00
H771   H     0.79713   0.15119   0.61689   0.00000  Uiso   1.00
N772   N     0.91288   0.29497   0.87867   0.00000  Uiso   1.00
H773   H     0.94782   0.28162   0.89197   0.00000  Uiso   1.00
H774   H     0.91360   0.32767   0.89019   0.00000  Uiso   1.00
C775   C     0.16688   0.66490   0.75047   0.00000  Uiso   1.00
C776   C     0.16669   0.83488   0.74953   0.00000  Uiso   1.00
C777   C     0.18534   0.78841   0.55502   0.00000  Uiso   1.00
C778   C     0.12331   0.73396   0.94251   0.00000  Uiso   1.00
C779   C     0.18999   0.78511   0.60599   0.00000  Uiso   1.00
C780   C     0.12663   0.72931   0.89240   0.00000  Uiso   1.00
C781   C     0.14312   0.71608   0.60210   0.00000  Uiso   1.00
C782   C     0.20612   0.77062   0.89953   0.00000  Uiso   1.00
C783   C     0.14569   0.71523   0.55194   0.00000  Uiso   1.00
C784   C     0.20783   0.76839   0.95015   0.00000  Uiso   1.00
C785   C     0.16597   0.75176   0.52706   0.00000  Uiso   1.00
C786   C     0.16563   0.75149   0.97264   0.00000  Uiso   1.00
C787   C     0.06831   0.74848   0.73830   0.00000  Uiso   1.00
C788   C     0.26504   0.75181   0.76160   0.00000  Uiso   1.00
C789   C     0.01371   0.74048   0.73418   0.00000  Uiso   1.00
C790   C     0.31959   0.76044   0.76519   0.00000  Uiso   1.00
C791   C     0.15696   0.54427   0.78892   0.00000  Uiso   1.00
C792   C     0.14337   0.95309   0.71201   0.00000  Uiso   1.00
C793   C     0.15456   0.59020   0.79027   0.00000  Uiso   1.00
C794   C     0.14048   0.90690   0.71156   0.00000  Uiso   1.00
C795   C     0.16904   0.61640   0.75126   0.00000  Uiso   1.00
C796   C     0.16843   0.88312   0.74870   0.00000  Uiso   1.00
C797   C     0.18635   0.59584   0.71194   0.00000  Uiso   1.00
C798   C     0.19895   0.90568   0.78560   0.00000  Uiso   1.00
C799   C     0.18902   0.54990   0.71090   0.00000  Uiso   1.00
C800   C     0.20219   0.95185   0.78577   0.00000  Uiso   1.00
C801   C     0.17399   0.52404   0.74957   0.00000  Uiso   1.00
C802   C     0.17400   0.97563   0.74885   0.00000  Uiso   1.00
Cu803  Cu    0.16667   0.74999   0.79821   0.00000  Uiso   1.00
Cu804  Cu    0.16667   0.75000   0.70178   0.00000  Uiso   1.00
H805   H     0.14476   0.52422   0.81848   0.00000  Uiso   1.00
H806   H     0.12090   0.97143   0.68404   0.00000  Uiso   1.00
H807   H     0.19844   0.61541   0.68201   0.00000  Uiso   1.00
H808   H     0.22094   0.88743   0.81399   0.00000  Uiso   1.00
H809   H     0.13043   0.68607   0.53251   0.00000  Uiso   1.00
H810   H     0.24233   0.78056   0.97144   0.00000  Uiso   1.00
N811   N     0.16667   0.75001   0.62934   0.00000  Uiso   1.00
N812   N     0.16667   0.74999   0.87065   0.00000  Uiso   1.00
O813   O     0.16667   0.68572   0.79071   0.00000  Uiso   1.00
O814   O     0.16666   0.81427   0.70928   0.00000  Uiso   1.00
O815   O     0.16667   0.68573   0.70928   0.00000  Uiso   1.00
O816   O     0.16666   0.81427   0.79072   0.00000  Uiso   1.00
O817   O     0.09161   0.74999   0.78132   0.00000  Uiso   1.00
O818   O     0.24172   0.75000   0.71868   0.00000  Uiso   1.00
O819   O     0.09161   0.75000   0.69988   0.00000  Uiso   1.00
O820   O     0.24172   0.75000   0.80011   0.00000  Uiso   1.00
C821   C     0.32475   0.70495   0.69916   0.00000  Uiso   1.00
H822   H     0.02212   0.68649   0.68535   0.00000  Uiso   1.00
H823   H     0.30033   0.68029   0.71722   0.00000  Uiso   1.00
H824   H     0.30208   0.72017   0.66765   0.00000  Uiso   1.00
C825   C     0.00810   0.79804   0.79767   0.00000  Uiso   1.00
H826   H     0.31039   0.81747   0.80942   0.00000  Uiso   1.00
H827   H     0.03078   0.78515   0.83037   0.00000  Uiso   1.00
H828   H     0.03250   0.82151   0.77808   0.00000  Uiso   1.00
N829   N     0.13635   0.60972   0.83086   0.00000  Uiso   1.00
H830   H     0.16013   0.60069   0.86173   0.00000  Uiso   1.00
H831   H     0.09939   0.59634   0.83406   0.00000  Uiso   1.00
N832   N     0.10769   0.88429   0.67450   0.00000  Uiso   1.00
H833   H     0.07024   0.89416   0.67573   0.00000  Uiso   1.00
H834   H     0.11909   0.89463   0.64129   0.00000  Uiso   1.00
N835   N     0.20770   0.52958   0.67095   0.00000  Uiso   1.00
H836   H     0.24480   0.54276   0.66800   0.00000  Uiso   1.00
H837   H     0.18437   0.53842   0.63972   0.00000  Uiso   1.00
N838   N     0.23458   0.97458   0.82300   0.00000  Uiso   1.00
H839   H     0.27201   0.96440   0.82247   0.00000  Uiso   1.00
H840   H     0.22247   0.96464   0.85605   0.00000  Uiso   1.00
N841   N     0.19754   0.83046   0.53304   0.00000  Uiso   1.00
H842   H     0.23481   0.83091   0.52345   0.00000  Uiso   1.00
H843   H     0.17130   0.83638   0.50284   0.00000  Uiso   1.00
N844   N     0.07644   0.72224   0.96268   0.00000  Uiso   1.00
H845   H     0.06806   0.68827   0.95935   0.00000  Uiso   1.00
H846   H     0.04664   0.73942   0.94382   0.00000  Uiso   1.00
C847   C     0.22234   0.82134   0.63268   0.00000  Uiso   1.00
H848   H     0.24010   0.81077   0.66815   0.00000  Uiso   1.00
H849   H     0.25562   0.83157   0.61315   0.00000  Uiso   1.00
H850   H     0.19928   0.85077   0.63549   0.00000  Uiso   1.00
C851   C     0.08605   0.69925   0.86548   0.00000  Uiso   1.00
H852   H     0.09532   0.68901   0.83051   0.00000  Uiso   1.00
H853   H     0.08211   0.66757   0.88573   0.00000  Uiso   1.00
H854   H     0.04840   0.71482   0.86116   0.00000  Uiso   1.00
N855   N     0.11495   0.68121   0.62413   0.00000  Uiso   1.00
H856   H     0.07703   0.68066   0.60786   0.00000  Uiso   1.00
H857   H     0.13046   0.65119   0.61689   0.00000  Uiso   1.00
N858   N     0.24621   0.79497   0.87867   0.00000  Uiso   1.00
H859   H     0.28115   0.78162   0.89197   0.00000  Uiso   1.00
H860   H     0.24693   0.82767   0.89019   0.00000  Uiso   1.00
C861   C     0.50021   0.66490   0.75047   0.00000  Uiso   1.00
C862   C     0.50002   0.83488   0.74953   0.00000  Uiso   1.00
C863   C     0.51867   0.78841   0.55502   0.00000  Uiso   1.00
C864   C     0.45665   0.73396   0.94251   0.00000  Uiso   1.00
C865   C     0.52333   0.78511   0.60599   0.00000  Uiso   1.00
C866   C     0.45996   0.72931   0.89240   0.00000  Uiso   1.00
C867   C     0.47645   0.71608   0.60210   0.00000  Uiso   1.00
C868   C     0.53945   0.77062   0.89953   0.00000  Uiso   1.00
C869   C     0.47903   0.71523   0.55194   0.00000  Uiso   1.00
C870   C     0.54117   0.76839   0.95015   0.00000  Uiso   1.00
C871   C     0.49930   0.75176   0.52706   0.00000  Uiso   1.00
C872   C     0.49896   0.75149   0.97264   0.00000  Uiso   1.00
C873   C     0.40164   0.74848   0.73830   0.00000  Uiso   1.00
C874   C     0.59838   0.75181   0.76160   0.00000  Uiso   1.00
C875   C     0.34704   0.74048   0.73418   0.00000  Uiso   1.00
C876   C     0.65293   0.76044   0.76519   0.00000  Uiso   1.00
C877   C     0.49029   0.54427   0.78892   0.00000  Uiso   1.00
C878   C     0.47670   0.95309   0.71201   0.00000  Uiso   1.00
C879   C     0.48790   0.59020   0.79027   0.00000  Uiso   1.00
C880   C     0.47381   0.90690   0.71156   0.00000  Uiso   1.00
C881   C     0.50237   0.61640   0.75126   0.00000  Uiso   1.00
C882   C     0.50177   0.88312   0.74870   0.00000  Uiso   1.00
C883   C     0.51968   0.59584   0.71194   0.00000  Uiso   1.00
C884   C     0.53228   0.90568   0.78560   0.00000  Uiso   1.00
C885   C     0.52236   0.54990   0.71090   0.00000  Uiso   1.00
C886   C     0.53552   0.95185   0.78577   0.00000  Uiso   1.00
C887   C     0.50732   0.52404   0.74957   0.00000  Uiso   1.00
C888   C     0.50733   0.97563   0.74885   0.00000  Uiso   1.00
Cu889  Cu    0.50000   0.74999   0.79821   0.00000  Uiso   1.00
Cu890  Cu    0.50000   0.75000   0.70178   0.00000  Uiso   1.00
H891   H     0.47809   0.52422   0.81848   0.00000  Uiso   1.00
H892   H     0.45423   0.97143   0.68404   0.00000  Uiso   1.00
H893   H     0.53178   0.61541   0.68201   0.00000  Uiso   1.00
H894   H     0.55428   0.88743   0.81399   0.00000  Uiso   1.00
H895   H     0.46376   0.68607   0.53251   0.00000  Uiso   1.00
H896   H     0.57567   0.78056   0.97144   0.00000  Uiso   1.00
N897   N     0.50000   0.75001   0.62934   0.00000  Uiso   1.00
N898   N     0.50000   0.74999   0.87065   0.00000  Uiso   1.00
O899   O     0.50000   0.68572   0.79071   0.00000  Uiso   1.00
O900   O     0.50000   0.81427   0.70928   0.00000  Uiso   1.00
O901   O     0.50000   0.68573   0.70928   0.00000  Uiso   1.00
O902   O     0.50000   0.81427   0.79072   0.00000  Uiso   1.00
O903   O     0.42495   0.74999   0.78132   0.00000  Uiso   1.00
O904   O     0.57505   0.75000   0.71868   0.00000  Uiso   1.00
O905   O     0.42495   0.75000   0.69988   0.00000  Uiso   1.00
O906   O     0.57505   0.75000   0.80011   0.00000  Uiso   1.00
C907   C     0.65808   0.70495   0.69916   0.00000  Uiso   1.00
H908   H     0.35545   0.68649   0.68535   0.00000  Uiso   1.00
H909   H     0.63366   0.68029   0.71722   0.00000  Uiso   1.00
H910   H     0.63542   0.72017   0.66765   0.00000  Uiso   1.00
C911   C     0.34143   0.79804   0.79767   0.00000  Uiso   1.00
H912   H     0.64373   0.81747   0.80942   0.00000  Uiso   1.00
H913   H     0.36411   0.78515   0.83037   0.00000  Uiso   1.00
H914   H     0.36583   0.82151   0.77808   0.00000  Uiso   1.00
N915   N     0.46968   0.60972   0.83086   0.00000  Uiso   1.00
H916   H     0.49346   0.60069   0.86173   0.00000  Uiso   1.00
H917   H     0.43272   0.59634   0.83406   0.00000  Uiso   1.00
N918   N     0.44102   0.88429   0.67450   0.00000  Uiso   1.00
H919   H     0.40357   0.89416   0.67573   0.00000  Uiso   1.00
H920   H     0.45242   0.89463   0.64129   0.00000  Uiso   1.00
N921   N     0.54104   0.52958   0.67095   0.00000  Uiso   1.00
H922   H     0.57813   0.54276   0.66800   0.00000  Uiso   1.00
H923   H     0.51771   0.53842   0.63972   0.00000  Uiso   1.00
N924   N     0.56791   0.97458   0.82300   0.00000  Uiso   1.00
H925   H     0.60534   0.96440   0.82247   0.00000  Uiso   1.00
H926   H     0.55580   0.96464   0.85605   0.00000  Uiso   1.00
N927   N     0.53088   0.83046   0.53304   0.00000  Uiso   1.00
H928   H     0.56814   0.83091   0.52345   0.00000  Uiso   1.00
H929   H     0.50463   0.83638   0.50284   0.00000  Uiso   1.00
N930   N     0.40977   0.72224   0.96268   0.00000  Uiso   1.00
H931   H     0.40140   0.68827   0.95935   0.00000  Uiso   1.00
H932   H     0.37997   0.73942   0.94382   0.00000  Uiso   1.00
C933   C     0.55567   0.82134   0.63268   0.00000  Uiso   1.00
H934   H     0.57343   0.81077   0.66815   0.00000  Uiso   1.00
H935   H     0.58895   0.83157   0.61315   0.00000  Uiso   1.00
H936   H     0.53261   0.85077   0.63549   0.00000  Uiso   1.00
C937   C     0.41938   0.69925   0.86548   0.00000  Uiso   1.00
H938   H     0.42865   0.68901   0.83051   0.00000  Uiso   1.00
H939   H     0.41545   0.66757   0.88573   0.00000  Uiso   1.00
H940   H     0.38173   0.71482   0.86116   0.00000  Uiso   1.00
N941   N     0.44828   0.68121   0.62413   0.00000  Uiso   1.00
H942   H     0.41037   0.68066   0.60786   0.00000  Uiso   1.00
H943   H     0.46380   0.65119   0.61689   0.00000  Uiso   1.00
N944   N     0.57954   0.79497   0.87867   0.00000  Uiso   1.00
H945   H     0.61449   0.78162   0.89197   0.00000  Uiso   1.00
H946   H     0.58026   0.82767   0.89019   0.00000  Uiso   1.00
C947   C     0.83354   0.66490   0.75047   0.00000  Uiso   1.00
C948   C     0.83335   0.83488   0.74953   0.00000  Uiso   1.00
C949   C     0.85201   0.78841   0.55502   0.00000  Uiso   1.00
C950   C     0.78998   0.73396   0.94251   0.00000  Uiso   1.00
C951   C     0.85666   0.78511   0.60599   0.00000  Uiso   1.00
C952   C     0.79329   0.72931   0.89240   0.00000  Uiso   1.00
C953   C     0.80978   0.71608   0.60210   0.00000  Uiso   1.00
C954   C     0.87279   0.77062   0.89953   0.00000  Uiso   1.00
C955   C     0.81236   0.71523   0.55194   0.00000  Uiso   1.00
C956   C     0.87450   0.76839   0.95015   0.00000  Uiso   1.00
C957   C     0.83264   0.75176   0.52706   0.00000  Uiso   1.00
C958   C     0.83230   0.75149   0.97264   0.00000  Uiso   1.00
C959   C     0.73498   0.74848   0.73830   0.00000  Uiso   1.00
C960   C     0.93171   0.75181   0.76160   0.00000  Uiso   1.00
C961   C     0.68037   0.74048   0.73418   0.00000  Uiso   1.00
C962   C     0.98626   0.76044   0.76519   0.00000  Uiso   1.00
C963   C     0.82363   0.54427   0.78892   0.00000  Uiso   1.00
C964   C     0.81003   0.95309   0.71201   0.00000  Uiso   1.00
C965   C     0.82123   0.59020   0.79027   0.00000  Uiso   1.00
C966   C     0.80714   0.90690   0.71156   0.00000  Uiso   1.00
C967   C     0.83571   0.61640   0.75126   0.00000  Uiso   1.00
C968   C     0.83510   0.88312   0.74870   0.00000  Uiso   1.00
C969   C     0.85301   0.59584   0.71194   0.00000  Uiso   1.00
C970   C     0.86562   0.90568   0.78560   0.00000  Uiso   1.00
C971   C     0.85569   0.54990   0.71090   0.00000  Uiso   1.00
C972   C     0.86886   0.95185   0.78577   0.00000  Uiso   1.00
C973   C     0.84066   0.52404   0.74957   0.00000  Uiso   1.00
C974   C     0.84067   0.97563   0.74885   0.00000  Uiso   1.00
Cu975  Cu    0.83333   0.74999   0.79821   0.00000  Uiso   1.00
Cu976  Cu    0.83333   0.75000   0.70178   0.00000  Uiso   1.00
H977   H     0.81143   0.52422   0.81848   0.00000  Uiso   1.00
H978   H     0.78757   0.97143   0.68404   0.00000  Uiso   1.00
H979   H     0.86511   0.61541   0.68201   0.00000  Uiso   1.00
H980   H     0.88761   0.88743   0.81399   0.00000  Uiso   1.00
H981   H     0.79710   0.68607   0.53251   0.00000  Uiso   1.00
H982   H     0.90900   0.78056   0.97144   0.00000  Uiso   1.00
N983   N     0.83333   0.75001   0.62934   0.00000  Uiso   1.00
N984   N     0.83333   0.74999   0.87065   0.00000  Uiso   1.00
O985   O     0.83334   0.68572   0.79071   0.00000  Uiso   1.00
O986   O     0.83333   0.81427   0.70928   0.00000  Uiso   1.00
O987   O     0.83334   0.68573   0.70928   0.00000  Uiso   1.00
O988   O     0.83333   0.81427   0.79072   0.00000  Uiso   1.00
O989   O     0.75828   0.74999   0.78132   0.00000  Uiso   1.00
O990   O     0.90839   0.75000   0.71868   0.00000  Uiso   1.00
O991   O     0.75828   0.75000   0.69988   0.00000  Uiso   1.00
O992   O     0.90839   0.75000   0.80011   0.00000  Uiso   1.00
C993   C     0.99141   0.70495   0.69916   0.00000  Uiso   1.00
H994   H     0.68879   0.68649   0.68535   0.00000  Uiso   1.00
H995   H     0.96699   0.68029   0.71722   0.00000  Uiso   1.00
H996   H     0.96875   0.72017   0.66765   0.00000  Uiso   1.00
C997   C     0.67476   0.79804   0.79767   0.00000  Uiso   1.00
H998   H     0.97706   0.81747   0.80942   0.00000  Uiso   1.00
H999   H     0.69745   0.78515   0.83037   0.00000  Uiso   1.00
H1000  H     0.69916   0.82151   0.77808   0.00000  Uiso   1.00
N1001  N     0.80301   0.60972   0.83086   0.00000  Uiso   1.00
H1002  H     0.82679   0.60069   0.86173   0.00000  Uiso   1.00
H1003  H     0.76606   0.59634   0.83406   0.00000  Uiso   1.00
N1004  N     0.77436   0.88429   0.67450   0.00000  Uiso   1.00
H1005  H     0.73690   0.89416   0.67573   0.00000  Uiso   1.00
H1006  H     0.78575   0.89463   0.64129   0.00000  Uiso   1.00
N1007  N     0.87437   0.52958   0.67095   0.00000  Uiso   1.00
H1008  H     0.91146   0.54276   0.66800   0.00000  Uiso   1.00
H1009  H     0.85104   0.53842   0.63972   0.00000  Uiso   1.00
N1010  N     0.90125   0.97458   0.82300   0.00000  Uiso   1.00
H1011  H     0.93868   0.96440   0.82247   0.00000  Uiso   1.00
H1012  H     0.88914   0.96464   0.85605   0.00000  Uiso   1.00
N1013  N     0.86421   0.83046   0.53304   0.00000  Uiso   1.00
H1014  H     0.90147   0.83091   0.52345   0.00000  Uiso   1.00
H1015  H     0.83796   0.83638   0.50284   0.00000  Uiso   1.00
N1016  N     0.74310   0.72224   0.96268   0.00000  Uiso   1.00
H1017  H     0.73473   0.68827   0.95935   0.00000  Uiso   1.00
H1018  H     0.71331   0.73942   0.94382   0.00000  Uiso   1.00
C1019  C     0.88900   0.82134   0.63268   0.00000  Uiso   1.00
H1020  H     0.90677   0.81077   0.66815   0.00000  Uiso   1.00
H1021  H     0.92229   0.83157   0.61315   0.00000  Uiso   1.00
H1022  H     0.86595   0.85077   0.63549   0.00000  Uiso   1.00
C1023  C     0.75272   0.69925   0.86548   0.00000  Uiso   1.00
H1024  H     0.76198   0.68901   0.83051   0.00000  Uiso   1.00
H1025  H     0.74878   0.66757   0.88573   0.00000  Uiso   1.00
H1026  H     0.71506   0.71482   0.86116   0.00000  Uiso   1.00
N1027  N     0.78162   0.68121   0.62413   0.00000  Uiso   1.00
H1028  H     0.74370   0.68066   0.60786   0.00000  Uiso   1.00
H1029  H     0.79713   0.65119   0.61689   0.00000  Uiso   1.00
N1030  N     0.91288   0.79497   0.87867   0.00000  Uiso   1.00
H1031  H     0.94782   0.78162   0.89197   0.00000  Uiso   1.00
H1032  H     0.91360   0.82767   0.89019   0.00000  Uiso   1.00
loop_
_geom_bond_atom_site_label_1
_geom_bond_atom_site_label_2
_geom_bond_distance
_geom_bond_site_symmetry_2
_ccdc_geom_bond_type
C1     C21     1.470   .     S
C1     O41     1.301   .     A
C1     O39     1.303   .     A
C2     C22     1.457   .     S
C2     O42     1.299   .     A
C2     O40     1.299   .     A
C3     N67     1.439   .     S
C3     C5      1.419   .     A
C3     C11     1.411   .     A
C4     N70     1.438   .     S
C4     C12     1.405   .     A
C4     C6      1.426   .     A
C5     N37     1.389   .     A
C5     C73     1.510   .     S
C6     N38     1.390   .     A
C6     C77     1.510   .     S
C7     N37     1.372   .     A
C7     N81     1.428   .     S
C7     C9      1.414   .     A
C8     N38     1.372   .     A
C8     N84     1.428   .     S
C8     C10     1.413   .     A
C9     C11     1.409   .     A
C9     H35     1.082   .     S
C10    C12     1.406   .     A
C10    H36     1.079   .     S
C11    C528    1.522   1_554 S
C12    C527    1.522   .     S
C13    O43     1.287   .     A
C13    C15     1.434   .     S
C13    O45     1.296   .     A
C14    O46     1.298   .     A
C14    C16     1.436   .     S
C14    O44     1.285   .     A
C15    C188    1.358   1_455 S
C15    C219    1.520   1_455 S
C16    C101    1.358   .     S
C16    C137    1.520   .     S
C17    C27     1.398   .     A
C17    H31     1.084   .     S
C17    C19     1.395   .     A
C18    C20     1.396   .     A
C18    C28     1.401   .     A
C18    H32     1.084   .     S
C19    C21     1.412   .     A
C19    N55     1.431   .     S
C20    C22     1.407   .     A
C20    N58     1.433   .     S
C21    C23     1.405   .     A
C22    C24     1.401   .     A
C23    H33     1.084   .     S
C23    C25     1.396   .     A
C24    C26     1.395   .     A
C24    H34     1.084   .     S
C25    N61     1.433   .     S
C25    C27     1.404   .     A
C26    N64     1.433   .     S
C26    C28     1.406   .     A
C27    C286    1.465   1_545 S
C28    C285    1.465   .     S
Cu29   O42     1.951   .     S
Cu29   N38     2.027   .     S
Cu29   O43     1.973   .     S
Cu29   Cu30    2.699   .     S
Cu29   O39     1.960   .     S
Cu29   O46     1.965   .     S
Cu30   O45     1.965   .     S
Cu30   O41     1.951   .     S
Cu30   O44     1.973   .     S
Cu30   N37     2.027   .     S
Cu30   O40     1.960   .     S
C47    H49     1.111   .     S
C47    H50     1.110   .     S
C47    C101    1.520   .     S
C47    H134    1.111   .     S
H48    C219    1.111   1_455 S
C51    H53     1.107   .     S
C51    H54     1.111   .     S
C51    C188    1.520   1_455 S
C51    H224    1.111   1_455 S
H52    C137    1.111   .     S
N55    H56     1.046   .     S
N55    H57     1.046   .     S
N58    H60     1.046   .     S
N58    H59     1.046   .     S
N61    H63     1.046   .     S
N61    H62     1.046   .     S
N64    H66     1.046   .     S
N64    H65     1.046   .     S
N67    H68     1.043   .     S
N67    H69     1.045   .     S
N70    H71     1.044   .     S
N70    H72     1.045   .     S
C73    H74     1.095   .     S
C73    H75     1.111   .     S
C73    H76     1.109   .     S
C77    H78     1.090   .     S
C77    H79     1.109   .     S
C77    H80     1.108   .     S
N81    H82     1.046   .     S
N81    H83     1.046   .     S
N84    H85     1.046   .     S
N84    H86     1.046   .     S
C87    C107    1.470   .     S
C87    O127    1.301   .     A
C87    O125    1.303   .     A
C88    C108    1.457   .     S
C88    O128    1.299   .     A
C88    O126    1.299   .     A
C89    N153    1.439   .     S
C89    C91     1.419   .     A
C89    C97     1.411   .     A
C90    N156    1.438   .     S
C90    C98     1.405   .     A
C90    C92     1.426   .     A
C91    N123    1.389   .     A
C91    C159    1.510   .     S
C92    N124    1.390   .     A
C92    C163    1.510   .     S
C93    N123    1.372   .     A
C93    N167    1.428   .     S
C93    C95     1.414   .     A
C94    N124    1.372   .     A
C94    N170    1.428   .     S
C94    C96     1.413   .     A
C95    C97     1.409   .     A
C95    H121    1.082   .     S
C96    C98     1.406   .     A
C96    H122    1.079   .     S
C97    C614    1.522   1_554 S
C98    C613    1.522   .     S
C99    O129    1.287   .     A
C99    C101    1.434   .     S
C99    O131    1.296   .     A
C100   O132    1.298   .     A
C100   C102    1.436   .     S
C100   O130    1.285   .     A
C102   C187    1.358   .     S
C102   C223    1.520   .     S
C103   C113    1.398   .     A
C103   H117    1.084   .     S
C103   C105    1.395   .     A
C104   C106    1.396   .     A
C104   C114    1.401   .     A
C104   H118    1.084   .     S
C105   C107    1.412   .     A
C105   N141    1.431   .     S
C106   C108    1.407   .     A
C106   N144    1.433   .     S
C107   C109    1.405   .     A
C108   C110    1.401   .     A
C109   H119    1.084   .     S
C109   C111    1.396   .     A
C110   C112    1.395   .     A
C110   H120    1.084   .     S
C111   N147    1.433   .     S
C111   C113    1.404   .     A
C112   N150    1.433   .     S
C112   C114    1.406   .     A
C113   C372    1.465   1_545 S
C114   C371    1.465   .     S
Cu115  O128    1.951   .     S
Cu115  N124    2.027   .     S
Cu115  O129    1.973   .     S
Cu115  Cu116   2.699   .     S
Cu115  O125    1.960   .     S
Cu115  O132    1.965   .     S
Cu116  O131    1.965   .     S
Cu116  O127    1.951   .     S
Cu116  O130    1.973   .     S
Cu116  N123    2.027   .     S
Cu116  O126    1.960   .     S
C133   H135    1.111   .     S
C133   H136    1.110   .     S
C133   C187    1.520   .     S
C133   H220    1.111   .     S
C137   H139    1.107   .     S
C137   H140    1.111   .     S
H138   C223    1.111   .     S
N141   H142    1.046   .     S
N141   H143    1.046   .     S
N144   H146    1.046   .     S
N144   H145    1.046   .     S
N147   H149    1.046   .     S
N147   H148    1.046   .     S
N150   H152    1.046   .     S
N150   H151    1.046   .     S
N153   H154    1.043   .     S
N153   H155    1.045   .     S
N156   H157    1.044   .     S
N156   H158    1.045   .     S
C159   H160    1.095   .     S
C159   H161    1.111   .     S
C159   H162    1.109   .     S
C163   H164    1.090   .     S
C163   H165    1.109   .     S
C163   H166    1.108   .     S
N167   H168    1.046   .     S
N167   H169    1.046   .     S
N170   H171    1.046   .     S
N170   H172    1.046   .     S
C173   C193    1.470   .     S
C173   O213    1.301   .     A
C173   O211    1.303   .     A
C174   C194    1.457   .     S
C174   O214    1.299   .     A
C174   O212    1.299   .     A
C175   N239    1.439   .     S
C175   C177    1.419   .     A
C175   C183    1.411   .     A
C176   N242    1.438   .     S
C176   C184    1.405   .     A
C176   C178    1.426   .     A
C177   N209    1.389   .     A
C177   C245    1.510   .     S
C178   N210    1.390   .     A
C178   C249    1.510   .     S
C179   N209    1.372   .     A
C179   N253    1.428   .     S
C179   C181    1.414   .     A
C180   N210    1.372   .     A
C180   N256    1.428   .     S
C180   C182    1.413   .     A
C181   C183    1.409   .     A
C181   H207    1.082   .     S
C182   C184    1.406   .     A
C182   H208    1.079   .     S
C183   C700    1.522   1_554 S
C184   C699    1.522   .     S
C185   O215    1.287   .     A
C185   C187    1.434   .     S
C185   O217    1.296   .     A
C186   O218    1.298   .     A
C186   C188    1.436   .     S
C186   O216    1.285   .     A
C188   C15     1.358   1_655 S
C188   C51     1.520   1_655 S
C189   C199    1.398   .     A
C189   H203    1.084   .     S
C189   C191    1.395   .     A
C190   C192    1.396   .     A
C190   C200    1.401   .     A
C190   H204    1.084   .     S
C191   C193    1.412   .     A
C191   N227    1.431   .     S
C192   C194    1.407   .     A
C192   N230    1.433   .     S
C193   C195    1.405   .     A
C194   C196    1.401   .     A
C195   H205    1.084   .     S
C195   C197    1.396   .     A
C196   C198    1.395   .     A
C196   H206    1.084   .     S
C197   N233    1.433   .     S
C197   C199    1.404   .     A
C198   N236    1.433   .     S
C198   C200    1.406   .     A
C199   C458    1.465   1_545 S
C200   C457    1.465   .     S
Cu201  O214    1.951   .     S
Cu201  N210    2.027   .     S
Cu201  O215    1.973   .     S
Cu201  Cu202   2.699   .     S
Cu201  O211    1.960   .     S
Cu201  O218    1.965   .     S
Cu202  O217    1.965   .     S
Cu202  O213    1.951   .     S
Cu202  O216    1.973   .     S
Cu202  N209    2.027   .     S
Cu202  O212    1.960   .     S
C219   H221    1.111   .     S
C219   H222    1.110   .     S
C219   C15     1.520   1_655 S
C219   H48     1.111   1_655 S
C223   H225    1.107   .     S
C223   H226    1.111   .     S
H224   C51     1.111   1_655 S
N227   H228    1.046   .     S
N227   H229    1.046   .     S
N230   H232    1.046   .     S
N230   H231    1.046   .     S
N233   H235    1.046   .     S
N233   H234    1.046   .     S
N236   H238    1.046   .     S
N236   H237    1.046   .     S
N239   H240    1.043   .     S
N239   H241    1.045   .     S
N242   H243    1.044   .     S
N242   H244    1.045   .     S
C245   H246    1.095   .     S
C245   H247    1.111   .     S
C245   H248    1.109   .     S
C249   H250    1.090   .     S
C249   H251    1.109   .     S
C249   H252    1.108   .     S
N253   H254    1.046   .     S
N253   H255    1.046   .     S
N256   H257    1.046   .     S
N256   H258    1.046   .     S
C259   C279    1.470   .     S
C259   O299    1.301   .     A
C259   O297    1.303   .     A
C260   C280    1.457   .     S
C260   O300    1.299   .     A
C260   O298    1.299   .     A
C261   N325    1.439   .     S
C261   C263    1.419   .     A
C261   C269    1.411   .     A
C262   N328    1.438   .     S
C262   C270    1.405   .     A
C262   C264    1.426   .     A
C263   N295    1.389   .     A
C263   C331    1.510   .     S
C264   N296    1.390   .     A
C264   C335    1.510   .     S
C265   N295    1.372   .     A
C265   N339    1.428   .     S
C265   C267    1.414   .     A
C266   N296    1.372   .     A
C266   N342    1.428   .     S
C266   C268    1.413   .     A
C267   C269    1.409   .     A
C267   H293    1.082   .     S
C268   C270    1.406   .     A
C268   H294    1.079   .     S
C269   C786    1.522   1_554 S
C270   C785    1.522   .     S
C271   O301    1.287   .     A
C271   C273    1.434   .     S
C271   O303    1.296   .     A
C272   O304    1.298   .     A
C272   C274    1.436   .     S
C272   O302    1.285   .     A
C273   C446    1.358   1_455 S
C273   C477    1.520   1_455 S
C274   C359    1.358   .     S
C274   C395    1.520   .     S
C275   C285    1.398   .     A
C275   H289    1.084   .     S
C275   C277    1.395   .     A
C276   C278    1.396   .     A
C276   C286    1.401   .     A
C276   H290    1.084   .     S
C277   C279    1.412   .     A
C277   N313    1.431   .     S
C278   C280    1.407   .     A
C278   N316    1.433   .     S
C279   C281    1.405   .     A
C280   C282    1.401   .     A
C281   H291    1.084   .     S
C281   C283    1.396   .     A
C282   C284    1.395   .     A
C282   H292    1.084   .     S
C283   N319    1.433   .     S
C283   C285    1.404   .     A
C284   N322    1.433   .     S
C284   C286    1.406   .     A
C286   C27     1.465   1_565 S
Cu287  O300    1.951   .     S
Cu287  N296    2.027   .     S
Cu287  O301    1.973   .     S
Cu287  Cu288   2.699   .     S
Cu287  O297    1.960   .     S
Cu287  O304    1.965   .     S
Cu288  O303    1.965   .     S
Cu288  O299    1.951   .     S
Cu288  O302    1.973   .     S
Cu288  N295    2.027   .     S
Cu288  O298    1.960   .     S
C305   H307    1.111   .     S
C305   H308    1.110   .     S
C305   C359    1.520   .     S
C305   H392    1.111   .     S
H306   C477    1.111   1_455 S
C309   H311    1.107   .     S
C309   H312    1.111   .     S
C309   C446    1.520   1_455 S
C309   H482    1.111   1_455 S
H310   C395    1.111   .     S
N313   H314    1.046   .     S
N313   H315    1.046   .     S
N316   H318    1.046   .     S
N316   H317    1.046   .     S
N319   H321    1.046   .     S
N319   H320    1.046   .     S
N322   H324    1.046   .     S
N322   H323    1.046   .     S
N325   H326    1.043   .     S
N325   H327    1.045   .     S
N328   H329    1.044   .     S
N328   H330    1.045   .     S
C331   H332    1.095   .     S
C331   H333    1.111   .     S
C331   H334    1.109   .     S
C335   H336    1.090   .     S
C335   H337    1.109   .     S
C335   H338    1.108   .     S
N339   H340    1.046   .     S
N339   H341    1.046   .     S
N342   H343    1.046   .     S
N342   H344    1.046   .     S
C345   C365    1.470   .     S
C345   O385    1.301   .     A
C345   O383    1.303   .     A
C346   C366    1.457   .     S
C346   O386    1.299   .     A
C346   O384    1.299   .     A
C347   N411    1.439   .     S
C347   C349    1.419   .     A
C347   C355    1.411   .     A
C348   N414    1.438   .     S
C348   C356    1.405   .     A
C348   C350    1.426   .     A
C349   N381    1.389   .     A
C349   C417    1.510   .     S
C350   N382    1.390   .     A
C350   C421    1.510   .     S
C351   N381    1.372   .     A
C351   N425    1.428   .     S
C351   C353    1.414   .     A
C352   N382    1.372   .     A
C352   N428    1.428   .     S
C352   C354    1.413   .     A
C353   C355    1.409   .     A
C353   H379    1.082   .     S
C354   C356    1.406   .     A
C354   H380    1.079   .     S
C355   C872    1.522   1_554 S
C356   C871    1.522   .     S
C357   O387    1.287   .     A
C357   C359    1.434   .     S
C357   O389    1.296   .     A
C358   O390    1.298   .     A
C358   C360    1.436   .     S
C358   O388    1.285   .     A
C360   C445    1.358   .     S
C360   C481    1.520   .     S
C361   C371    1.398   .     A
C361   H375    1.084   .     S
C361   C363    1.395   .     A
C362   C364    1.396   .     A
C362   C372    1.401   .     A
C362   H376    1.084   .     S
C363   C365    1.412   .     A
C363   N399    1.431   .     S
C364   C366    1.407   .     A
C364   N402    1.433   .     S
C365   C367    1.405   .     A
C366   C368    1.401   .     A
C367   H377    1.084   .     S
C367   C369    1.396   .     A
C368   C370    1.395   .     A
C368   H378    1.084   .     S
C369   N405    1.433   .     S
C369   C371    1.404   .     A
C370   N408    1.433   .     S
C370   C372    1.406   .     A
C372   C113    1.465   1_565 S
Cu373  O386    1.951   .     S
Cu373  N382    2.027   .     S
Cu373  O387    1.973   .     S
Cu373  Cu374   2.699   .     S
Cu373  O383    1.960   .     S
Cu373  O390    1.965   .     S
Cu374  O389    1.965   .     S
Cu374  O385    1.951   .     S
Cu374  O388    1.973   .     S
Cu374  N381    2.027   .     S
Cu374  O384    1.960   .     S
C391   H393    1.111   .     S
C391   H394    1.110   .     S
C391   C445    1.520   .     S
C391   H478    1.111   .     S
C395   H397    1.107   .     S
C395   H398    1.111   .     S
H396   C481    1.111   .     S
N399   H400    1.046   .     S
N399   H401    1.046   .     S
N402   H404    1.046   .     S
N402   H403    1.046   .     S
N405   H407    1.046   .     S
N405   H406    1.046   .     S
N408   H410    1.046   .     S
N408   H409    1.046   .     S
N411   H412    1.043   .     S
N411   H413    1.045   .     S
N414   H415    1.044   .     S
N414   H416    1.045   .     S
C417   H418    1.095   .     S
C417   H419    1.111   .     S
C417   H420    1.109   .     S
C421   H422    1.090   .     S
C421   H423    1.109   .     S
C421   H424    1.108   .     S
N425   H426    1.046   .     S
N425   H427    1.046   .     S
N428   H429    1.046   .     S
N428   H430    1.046   .     S
C431   C451    1.470   .     S
C431   O471    1.301   .     A
C431   O469    1.303   .     A
C432   C452    1.457   .     S
C432   O472    1.299   .     A
C432   O470    1.299   .     A
C433   N497    1.439   .     S
C433   C435    1.419   .     A
C433   C441    1.411   .     A
C434   N500    1.438   .     S
C434   C442    1.405   .     A
C434   C436    1.426   .     A
C435   N467    1.389   .     A
C435   C503    1.510   .     S
C436   N468    1.390   .     A
C436   C507    1.510   .     S
C437   N467    1.372   .     A
C437   N511    1.428   .     S
C437   C439    1.414   .     A
C438   N468    1.372   .     A
C438   N514    1.428   .     S
C438   C440    1.413   .     A
C439   C441    1.409   .     A
C439   H465    1.082   .     S
C440   C442    1.406   .     A
C440   H466    1.079   .     S
C441   C958    1.522   1_554 S
C442   C957    1.522   .     S
C443   O473    1.287   .     A
C443   C445    1.434   .     S
C443   O475    1.296   .     A
C444   O476    1.298   .     A
C444   C446    1.436   .     S
C444   O474    1.285   .     A
C446   C273    1.358   1_655 S
C446   C309    1.520   1_655 S
C447   C457    1.398   .     A
C447   H461    1.084   .     S
C447   C449    1.395   .     A
C448   C450    1.396   .     A
C448   C458    1.401   .     A
C448   H462    1.084   .     S
C449   C451    1.412   .     A
C449   N485    1.431   .     S
C450   C452    1.407   .     A
C450   N488    1.433   .     S
C451   C453    1.405   .     A
C452   C454    1.401   .     A
C453   H463    1.084   .     S
C453   C455    1.396   .     A
C454   C456    1.395   .     A
C454   H464    1.084   .     S
C455   N491    1.433   .     S
C455   C457    1.404   .     A
C456   N494    1.433   .     S
C456   C458    1.406   .     A
C458   C199    1.465   1_565 S
Cu459  O472    1.951   .     S
Cu459  N468    2.027   .     S
Cu459  O473    1.973   .     S
Cu459  Cu460   2.699   .     S
Cu459  O469    1.960   .     S
Cu459  O476    1.965   .     S
Cu460  O475    1.965   .     S
Cu460  O471    1.951   .     S
Cu460  O474    1.973   .     S
Cu460  N467    2.027   .     S
Cu460  O470    1.960   .     S
C477   H479    1.111   .     S
C477   H480    1.110   .     S
C477   C273    1.520   1_655 S
C477   H306    1.111   1_655 S
C481   H483    1.107   .     S
C481   H484    1.111   .     S
H482   C309    1.111   1_655 S
N485   H486    1.046   .     S
N485   H487    1.046   .     S
N488   H490    1.046   .     S
N488   H489    1.046   .     S
N491   H493    1.046   .     S
N491   H492    1.046   .     S
N494   H496    1.046   .     S
N494   H495    1.046   .     S
N497   H498    1.043   .     S
N497   H499    1.045   .     S
N500   H501    1.044   .     S
N500   H502    1.045   .     S
C503   H504    1.095   .     S
C503   H505    1.111   .     S
C503   H506    1.109   .     S
C507   H508    1.090   .     S
C507   H509    1.109   .     S
C507   H510    1.108   .     S
N511   H512    1.046   .     S
N511   H513    1.046   .     S
N514   H515    1.046   .     S
N514   H516    1.046   .     S
C517   C537    1.470   .     S
C517   O557    1.301   .     A
C517   O555    1.303   .     A
C518   C538    1.457   .     S
C518   O558    1.299   .     A
C518   O556    1.299   .     A
C519   N583    1.439   .     S
C519   C521    1.419   .     A
C519   C527    1.411   .     A
C520   N586    1.438   .     S
C520   C528    1.405   .     A
C520   C522    1.426   .     A
C521   N553    1.389   .     A
C521   C589    1.510   .     S
C522   N554    1.390   .     A
C522   C593    1.510   .     S
C523   N553    1.372   .     A
C523   N597    1.428   .     S
C523   C525    1.414   .     A
C524   N554    1.372   .     A
C524   N600    1.428   .     S
C524   C526    1.413   .     A
C525   C527    1.409   .     A
C525   H551    1.082   .     S
C526   C528    1.406   .     A
C526   H552    1.079   .     S
C528   C11     1.522   1_556 S
C529   O559    1.287   .     A
C529   C531    1.434   .     S
C529   O561    1.296   .     A
C530   O562    1.298   .     A
C530   C532    1.436   .     S
C530   O560    1.285   .     A
C531   C704    1.358   1_455 S
C531   C735    1.520   1_455 S
C532   C617    1.358   .     S
C532   C653    1.520   .     S
C533   C543    1.398   .     A
C533   H547    1.084   .     S
C533   C535    1.395   .     A
C534   C536    1.396   .     A
C534   C544    1.401   .     A
C534   H548    1.084   .     S
C535   C537    1.412   .     A
C535   N571    1.431   .     S
C536   C538    1.407   .     A
C536   N574    1.433   .     S
C537   C539    1.405   .     A
C538   C540    1.401   .     A
C539   H549    1.084   .     S
C539   C541    1.396   .     A
C540   C542    1.395   .     A
C540   H550    1.084   .     S
C541   N577    1.433   .     S
C541   C543    1.404   .     A
C542   N580    1.433   .     S
C542   C544    1.406   .     A
C543   C802    1.465   1_545 S
C544   C801    1.465   .     S
Cu545  O558    1.951   .     S
Cu545  N554    2.027   .     S
Cu545  O559    1.973   .     S
Cu545  Cu546   2.699   .     S
Cu545  O555    1.960   .     S
Cu545  O562    1.965   .     S
Cu546  O561    1.965   .     S
Cu546  O557    1.951   .     S
Cu546  O560    1.973   .     S
Cu546  N553    2.027   .     S
Cu546  O556    1.960   .     S
C563   H565    1.111   .     S
C563   H566    1.110   .     S
C563   C617    1.520   .     S
C563   H650    1.111   .     S
H564   C735    1.111   1_455 S
C567   H569    1.107   .     S
C567   H570    1.111   .     S
C567   C704    1.520   1_455 S
C567   H740    1.111   1_455 S
H568   C653    1.111   .     S
N571   H572    1.046   .     S
N571   H573    1.046   .     S
N574   H576    1.046   .     S
N574   H575    1.046   .     S
N577   H579    1.046   .     S
N577   H578    1.046   .     S
N580   H582    1.046   .     S
N580   H581    1.046   .     S
N583   H584    1.043   .     S
N583   H585    1.045   .     S
N586   H587    1.044   .     S
N586   H588    1.045   .     S
C589   H590    1.095   .     S
C589   H591    1.111   .     S
C589   H592    1.109   .     S
C593   H594    1.090   .     S
C593   H595    1.109   .     S
C593   H596    1.108   .     S
N597   H598    1.046   .     S
N597   H599    1.046   .     S
N600   H601    1.046   .     S
N600   H602    1.046   .     S
C603   C623    1.470   .     S
C603   O643    1.301   .     A
C603   O641    1.303   .     A
C604   C624    1.457   .     S
C604   O644    1.299   .     A
C604   O642    1.299   .     A
C605   N669    1.439   .     S
C605   C607    1.419   .     A
C605   C613    1.411   .     A
C606   N672    1.438   .     S
C606   C614    1.405   .     A
C606   C608    1.426   .     A
C607   N639    1.389   .     A
C607   C675    1.510   .     S
C608   N640    1.390   .     A
C608   C679    1.510   .     S
C609   N639    1.372   .     A
C609   N683    1.428   .     S
C609   C611    1.414   .     A
C610   N640    1.372   .     A
C610   N686    1.428   .     S
C610   C612    1.413   .     A
C611   C613    1.409   .     A
C611   H637    1.082   .     S
C612   C614    1.406   .     A
C612   H638    1.079   .     S
C614   C97     1.522   1_556 S
C615   O645    1.287   .     A
C615   C617    1.434   .     S
C615   O647    1.296   .     A
C616   O648    1.298   .     A
C616   C618    1.436   .     S
C616   O646    1.285   .     A
C618   C703    1.358   .     S
C618   C739    1.520   .     S
C619   C629    1.398   .     A
C619   H633    1.084   .     S
C619   C621    1.395   .     A
C620   C622    1.396   .     A
C620   C630    1.401   .     A
C620   H634    1.084   .     S
C621   C623    1.412   .     A
C621   N657    1.431   .     S
C622   C624    1.407   .     A
C622   N660    1.433   .     S
C623   C625    1.405   .     A
C624   C626    1.401   .     A
C625   H635    1.084   .     S
C625   C627    1.396   .     A
C626   C628    1.395   .     A
C626   H636    1.084   .     S
C627   N663    1.433   .     S
C627   C629    1.404   .     A
C628   N666    1.433   .     S
C628   C630    1.406   .     A
C629   C888    1.465   1_545 S
C630   C887    1.465   .     S
Cu631  O644    1.951   .     S
Cu631  N640    2.027   .     S
Cu631  O645    1.973   .     S
Cu631  Cu632   2.699   .     S
Cu631  O641    1.960   .     S
Cu631  O648    1.965   .     S
Cu632  O647    1.965   .     S
Cu632  O643    1.951   .     S
Cu632  O646    1.973   .     S
Cu632  N639    2.027   .     S
Cu632  O642    1.960   .     S
C649   H651    1.111   .     S
C649   H652    1.110   .     S
C649   C703    1.520   .     S
C649   H736    1.111   .     S
C653   H655    1.107   .     S
C653   H656    1.111   .     S
H654   C739    1.111   .     S
N657   H658    1.046   .     S
N657   H659    1.046   .     S
N660   H662    1.046   .     S
N660   H661    1.046   .     S
N663   H665    1.046   .     S
N663   H664    1.046   .     S
N666   H668    1.046   .     S
N666   H667    1.046   .     S
N669   H670    1.043   .     S
N669   H671    1.045   .     S
N672   H673    1.044   .     S
N672   H674    1.045   .     S
C675   H676    1.095   .     S
C675   H677    1.111   .     S
C675   H678    1.109   .     S
C679   H680    1.090   .     S
C679   H681    1.109   .     S
C679   H682    1.108   .     S
N683   H684    1.046   .     S
N683   H685    1.046   .     S
N686   H687    1.046   .     S
N686   H688    1.046   .     S
C689   C709    1.470   .     S
C689   O729    1.301   .     A
C689   O727    1.303   .     A
C690   C710    1.457   .     S
C690   O730    1.299   .     A
C690   O728    1.299   .     A
C691   N755    1.439   .     S
C691   C693    1.419   .     A
C691   C699    1.411   .     A
C692   N758    1.438   .     S
C692   C700    1.405   .     A
C692   C694    1.426   .     A
C693   N725    1.389   .     A
C693   C761    1.510   .     S
C694   N726    1.390   .     A
C694   C765    1.510   .     S
C695   N725    1.372   .     A
C695   N769    1.428   .     S
C695   C697    1.414   .     A
C696   N726    1.372   .     A
C696   N772    1.428   .     S
C696   C698    1.413   .     A
C697   C699    1.409   .     A
C697   H723    1.082   .     S
C698   C700    1.406   .     A
C698   H724    1.079   .     S
C700   C183    1.522   1_556 S
C701   O731    1.287   .     A
C701   C703    1.434   .     S
C701   O733    1.296   .     A
C702   O734    1.298   .     A
C702   C704    1.436   .     S
C702   O732    1.285   .     A
C704   C531    1.358   1_655 S
C704   C567    1.520   1_655 S
C705   C715    1.398   .     A
C705   H719    1.084   .     S
C705   C707    1.395   .     A
C706   C708    1.396   .     A
C706   C716    1.401   .     A
C706   H720    1.084   .     S
C707   C709    1.412   .     A
C707   N743    1.431   .     S
C708   C710    1.407   .     A
C708   N746    1.433   .     S
C709   C711    1.405   .     A
C710   C712    1.401   .     A
C711   H721    1.084   .     S
C711   C713    1.396   .     A
C712   C714    1.395   .     A
C712   H722    1.084   .     S
C713   N749    1.433   .     S
C713   C715    1.404   .     A
C714   N752    1.433   .     S
C714   C716    1.406   .     A
C715   C974    1.465   1_545 S
C716   C973    1.465   .     S
Cu717  O730    1.951   .     S
Cu717  N726    2.027   .     S
Cu717  O731    1.973   .     S
Cu717  Cu718   2.699   .     S
Cu717  O727    1.960   .     S
Cu717  O734    1.965   .     S
Cu718  O733    1.965   .     S
Cu718  O729    1.951   .     S
Cu718  O732    1.973   .     S
Cu718  N725    2.027   .     S
Cu718  O728    1.960   .     S
C735   H737    1.111   .     S
C735   H738    1.110   .     S
C735   C531    1.520   1_655 S
C735   H564    1.111   1_655 S
C739   H741    1.107   .     S
C739   H742    1.111   .     S
H740   C567    1.111   1_655 S
N743   H744    1.046   .     S
N743   H745    1.046   .     S
N746   H748    1.046   .     S
N746   H747    1.046   .     S
N749   H751    1.046   .     S
N749   H750    1.046   .     S
N752   H754    1.046   .     S
N752   H753    1.046   .     S
N755   H756    1.043   .     S
N755   H757    1.045   .     S
N758   H759    1.044   .     S
N758   H760    1.045   .     S
C761   H762    1.095   .     S
C761   H763    1.111   .     S
C761   H764    1.109   .     S
C765   H766    1.090   .     S
C765   H767    1.109   .     S
C765   H768    1.108   .     S
N769   H770    1.046   .     S
N769   H771    1.046   .     S
N772   H773    1.046   .     S
N772   H774    1.046   .     S
C775   C795    1.470   .     S
C775   O815    1.301   .     A
C775   O813    1.303   .     A
C776   C796    1.457   .     S
C776   O816    1.299   .     A
C776   O814    1.299   .     A
C777   N841    1.439   .     S
C777   C779    1.419   .     A
C777   C785    1.411   .     A
C778   N844    1.438   .     S
C778   C786    1.405   .     A
C778   C780    1.426   .     A
C779   N811    1.389   .     A
C779   C847    1.510   .     S
C780   N812    1.390   .     A
C780   C851    1.510   .     S
C781   N811    1.372   .     A
C781   N855    1.428   .     S
C781   C783    1.414   .     A
C782   N812    1.372   .     A
C782   N858    1.428   .     S
C782   C784    1.413   .     A
C783   C785    1.409   .     A
C783   H809    1.082   .     S
C784   C786    1.406   .     A
C784   H810    1.079   .     S
C786   C269    1.522   1_556 S
C787   O817    1.287   .     A
C787   C789    1.434   .     S
C787   O819    1.296   .     A
C788   O820    1.298   .     A
C788   C790    1.436   .     S
C788   O818    1.285   .     A
C789   C962    1.358   1_455 S
C789   C993    1.520   1_455 S
C790   C875    1.358   .     S
C790   C911    1.520   .     S
C791   C801    1.398   .     A
C791   H805    1.084   .     S
C791   C793    1.395   .     A
C792   C794    1.396   .     A
C792   C802    1.401   .     A
C792   H806    1.084   .     S
C793   C795    1.412   .     A
C793   N829    1.431   .     S
C794   C796    1.407   .     A
C794   N832    1.433   .     S
C795   C797    1.405   .     A
C796   C798    1.401   .     A
C797   H807    1.084   .     S
C797   C799    1.396   .     A
C798   C800    1.395   .     A
C798   H808    1.084   .     S
C799   N835    1.433   .     S
C799   C801    1.404   .     A
C800   N838    1.433   .     S
C800   C802    1.406   .     A
C802   C543    1.465   1_565 S
Cu803  O816    1.951   .     S
Cu803  N812    2.027   .     S
Cu803  O817    1.973   .     S
Cu803  Cu804   2.699   .     S
Cu803  O813    1.960   .     S
Cu803  O820    1.965   .     S
Cu804  O819    1.965   .     S
Cu804  O815    1.951   .     S
Cu804  O818    1.973   .     S
Cu804  N811    2.027   .     S
Cu804  O814    1.960   .     S
C821   H823    1.111   .     S
C821   H824    1.110   .     S
C821   C875    1.520   .     S
C821   H908    1.111   .     S
H822   C993    1.111   1_455 S
C825   H827    1.107   .     S
C825   H828    1.111   .     S
C825   C962    1.520   1_455 S
C825   H998    1.111   1_455 S
H826   C911    1.111   .     S
N829   H830    1.046   .     S
N829   H831    1.046   .     S
N832   H834    1.046   .     S
N832   H833    1.046   .     S
N835   H837    1.046   .     S
N835   H836    1.046   .     S
N838   H840    1.046   .     S
N838   H839    1.046   .     S
N841   H842    1.043   .     S
N841   H843    1.045   .     S
N844   H845    1.044   .     S
N844   H846    1.045   .     S
C847   H848    1.095   .     S
C847   H849    1.111   .     S
C847   H850    1.109   .     S
C851   H852    1.090   .     S
C851   H853    1.109   .     S
C851   H854    1.108   .     S
N855   H856    1.046   .     S
N855   H857    1.046   .     S
N858   H859    1.046   .     S
N858   H860    1.046   .     S
C861   C881    1.470   .     S
C861   O901    1.301   .     A
C861   O899    1.303   .     A
C862   C882    1.457   .     S
C862   O902    1.299   .     A
C862   O900    1.299   .     A
C863   N927    1.439   .     S
C863   C865    1.419   .     A
C863   C871    1.411   .     A
C864   N930    1.438   .     S
C864   C872    1.405   .     A
C864   C866    1.426   .     A
C865   N897    1.389   .     A
C865   C933    1.510   .     S
C866   N898    1.390   .     A
C866   C937    1.510   .     S
C867   N897    1.372   .     A
C867   N941    1.428   .     S
C867   C869    1.414   .     A
C868   N898    1.372   .     A
C868   N944    1.428   .     S
C868   C870    1.413   .     A
C869   C871    1.409   .     A
C869   H895    1.082   .     S
C870   C872    1.406   .     A
C870   H896    1.079   .     S
C872   C355    1.522   1_556 S
C873   O903    1.287   .     A
C873   C875    1.434   .     S
C873   O905    1.296   .     A
C874   O906    1.298   .     A
C874   C876    1.436   .     S
C874   O904    1.285   .     A
C876   C961    1.358   .     S
C876   C997    1.520   .     S
C877   C887    1.398   .     A
C877   H891    1.084   .     S
C877   C879    1.395   .     A
C878   C880    1.396   .     A
C878   C888    1.401   .     A
C878   H892    1.084   .     S
C879   C881    1.412   .     A
C879   N915    1.431   .     S
C880   C882    1.407   .     A
C880   N918    1.433   .     S
C881   C883    1.405   .     A
C882   C884    1.401   .     A
C883   H893    1.084   .     S
C883   C885    1.396   .     A
C884   C886    1.395   .     A
C884   H894    1.084   .     S
C885   N921    1.433   .     S
C885   C887    1.404   .     A
C886   N924    1.433   .     S
C886   C888    1.406   .     A
C888   C629    1.465   1_565 S
Cu889  O902    1.951   .     S
Cu889  N898    2.027   .     S
Cu889  O903    1.973   .     S
Cu889  Cu890   2.699   .     S
Cu889  O899    1.960   .     S
Cu889  O906    1.965   .     S
Cu890  O905    1.965   .     S
Cu890  O901    1.951   .     S
Cu890  O904    1.973   .     S
Cu890  N897    2.027   .     S
Cu890  O900    1.960   .     S
C907   H909    1.111   .     S
C907   H910    1.110   .     S
C907   C961    1.520   .     S
C907   H994    1.111   .     S
C911   H913    1.107   .     S
C911   H914    1.111   .     S
H912   C997    1.111   .     S
N915   H916    1.046   .     S
N915   H917    1.046   .     S
N918   H920    1.046   .     S
N918   H919    1.046   .     S
N921   H923    1.046   .     S
N921   H922    1.046   .     S
N924   H926    1.046   .     S
N924   H925    1.046   .     S
N927   H928    1.043   .     S
N927   H929    1.045   .     S
N930   H931    1.044   .     S
N930   H932    1.045   .     S
C933   H934    1.095   .     S
C933   H935    1.111   .     S
C933   H936    1.109   .     S
C937   H938    1.090   .     S
C937   H939    1.109   .     S
C937   H940    1.108   .     S
N941   H942    1.046   .     S
N941   H943    1.046   .     S
N944   H945    1.046   .     S
N944   H946    1.046   .     S
C947   C967    1.470   .     S
C947   O987    1.301   .     A
C947   O985    1.303   .     A
C948   C968    1.457   .     S
C948   O988    1.299   .     A
C948   O986    1.299   .     A
C949   N1013   1.439   .     S
C949   C951    1.419   .     A
C949   C957    1.411   .     A
C950   N1016   1.438   .     S
C950   C958    1.405   .     A
C950   C952    1.426   .     A
C951   N983    1.389   .     A
C951   C1019   1.510   .     S
C952   N984    1.390   .     A
C952   C1023   1.510   .     S
C953   N983    1.372   .     A
C953   N1027   1.428   .     S
C953   C955    1.414   .     A
C954   N984    1.372   .     A
C954   N1030   1.428   .     S
C954   C956    1.413   .     A
C955   C957    1.409   .     A
C955   H981    1.082   .     S
C956   C958    1.406   .     A
C956   H982    1.079   .     S
C958   C441    1.522   1_556 S
C959   O989    1.287   .     A
C959   C961    1.434   .     S
C959   O991    1.296   .     A
C960   O992    1.298   .     A
C960   C962    1.436   .     S
C960   O990    1.285   .     A
C962   C789    1.358   1_655 S
C962   C825    1.520   1_655 S
C963   C973    1.398   .     A
C963   H977    1.084   .     S
C963   C965    1.395   .     A
C964   C966    1.396   .     A
C964   C974    1.401   .     A
C964   H978    1.084   .     S
C965   C967    1.412   .     A
C965   N1001   1.431   .     S
C966   C968    1.407   .     A
C966   N1004   1.433   .     S
C967   C969    1.405   .     A
C968   C970    1.401   .     A
C969   H979    1.084   .     S
C969   C971    1.396   .     A
C970   C972    1.395   .     A
C970   H980    1.084   .     S
C971   N1007   1.433   .     S
C971   C973    1.404   .     A
C972   N1010   1.433   .     S
C972   C974    1.406   .     A
C974   C715    1.465   1_565 S
Cu975  O988    1.951   .     S
Cu975  N984    2.027   .     S
Cu975  O989    1.973   .     S
Cu975  Cu976   2.699   .     S
Cu975  O985    1.960   .     S
Cu975  O992    1.965   .     S
Cu976  O991    1.965   .     S
Cu976  O987    1.951   .     S
Cu976  O990    1.973   .     S
Cu976  N983    2.027   .     S
Cu976  O986    1.960   .     S
C993   H995    1.111   .     S
C993   H996    1.110   .     S
C993   C789    1.520   1_655 S
C993   H822    1.111   1_655 S
C997   H999    1.107   .     S
C997   H1000   1.111   .     S
H998   C825    1.111   1_655 S
N1001  H1002   1.046   .     S
N1001  H1003   1.046   .     S
N1004  H1006   1.046   .     S
N1004  H1005   1.046   .     S
N1007  H1009   1.046   .     S
N1007  H1008   1.046   .     S
N1010  H1012   1.046   .     S
N1010  H1011   1.046   .     S
N1013  H1014   1.043   .     S
N1013  H1015   1.045   .     S
N1016  H1017   1.044   .     S
N1016  H1018   1.045   .     S
C1019  H1020   1.095   .     S
C1019  H1021   1.111   .     S
C1019  H1022   1.109   .     S
C1023  H1024   1.090   .     S
C1023  H1025   1.109   .     S
C1023  H1026   1.108   .     S
N1027  H1028   1.046   .     S
N1027  H1029   1.046   .     S
N1030  H1031   1.046   .     S
N1030  H1032   1.046   .     S
