data_str_m2_o1_o10_pcu_sym.157
_audit_creation_date              2020-01-03
_audit_creation_method            'Materials Studio'
_symmetry_space_group_name_H-M    'P1'
_symmetry_Int_Tables_number       1
_symmetry_cell_setting            triclinic
loop_
_symmetry_equiv_pos_as_xyz
  x,y,z
_cell_length_a                    26.3946
_cell_length_b                    32.7901
_cell_length_c                    28.7745
_cell_angle_alpha                 89.7063
_cell_angle_beta                  98.0267
_cell_angle_gamma                 92.8556
loop_
_atom_site_label
_atom_site_type_symbol
_atom_site_fract_x
_atom_site_fract_y
_atom_site_fract_z
_atom_site_U_iso_or_equiv
_atom_site_adp_type
_atom_site_occupancy
C1     C     0.17018   0.08760   0.16733   0.00000  Uiso   1.00
C2     C     0.16316   0.24573   0.16600   0.00000  Uiso   1.00
C3     C     0.06806   0.16603   0.15483   0.00000  Uiso   1.00
C4     C     0.26527   0.16730   0.17850   0.00000  Uiso   1.00
C5     C     0.01310   0.16011   0.14969   0.00000  Uiso   1.00
C6     C     0.32023   0.17323   0.18364   0.00000  Uiso   1.00
C7     C     0.17527   0.02142   0.12596   0.00000  Uiso   1.00
C8     C     0.15806   0.31191   0.20737   0.00000  Uiso   1.00
C9     C     0.16457   0.31276   0.12359   0.00000  Uiso   1.00
C10    C     0.16876   0.02058   0.20974   0.00000  Uiso   1.00
C11    C     0.16015   0.29052   0.16522   0.00000  Uiso   1.00
C12    C     0.17319   0.04281   0.16811   0.00000  Uiso   1.00
C13    C     0.13355   0.14093   0.02030   0.00000  Uiso   1.00
C14    C     0.19978   0.19240   0.31304   0.00000  Uiso   1.00
C15    C     0.13320   0.14142   0.30417   0.00000  Uiso   1.00
C16    C     0.20013   0.19192   0.02916   0.00000  Uiso   1.00
Cu17   Cu    0.16667   0.16667   0.21355   0.00000  Uiso   1.00
Cu18   Cu    0.16667   0.16666   0.11978   0.00000  Uiso   1.00
N19    N     0.16668   0.16668   0.28403   0.00000  Uiso   1.00
N20    N     0.16665   0.16666   0.04931   0.00000  Uiso   1.00
O21    O     0.16666   0.10655   0.20625   0.00000  Uiso   1.00
O22    O     0.16667   0.22678   0.12709   0.00000  Uiso   1.00
O23    O     0.16666   0.10654   0.12706   0.00000  Uiso   1.00
O24    O     0.16667   0.22679   0.20628   0.00000  Uiso   1.00
O25    O     0.09161   0.16667   0.19712   0.00000  Uiso   1.00
O26    O     0.24172   0.16666   0.13621   0.00000  Uiso   1.00
O27    O     0.09161   0.16666   0.11793   0.00000  Uiso   1.00
O28    O     0.24172   0.16667   0.21540   0.00000  Uiso   1.00
Br29   Br    0.31646   0.12513   0.09802   0.00000  Uiso   1.00
Br30   Br    0.01687   0.20820   0.23532   0.00000  Uiso   1.00
C31    C     0.19302   0.04133   0.08569   0.00000  Uiso   1.00
N32    N     0.20764   0.05718   0.05374   0.00000  Uiso   1.00
C33    C     0.14032   0.29200   0.24765   0.00000  Uiso   1.00
N34    N     0.12569   0.27615   0.27960   0.00000  Uiso   1.00
Br35   Br    0.14851   0.28906   0.06134   0.00000  Uiso   1.00
Br36   Br    0.18482   0.04427   0.27199   0.00000  Uiso   1.00
Br37   Br    0.08779   0.10187   0.04523   0.00000  Uiso   1.00
Br38   Br    0.24554   0.23146   0.28810   0.00000  Uiso   1.00
C39    C     0.09665   0.11513   0.27492   0.00000  Uiso   1.00
N40    N     0.06712   0.09390   0.25178   0.00000  Uiso   1.00
C41    C     0.23668   0.21821   0.05842   0.00000  Uiso   1.00
N42    N     0.26621   0.23943   0.08156   0.00000  Uiso   1.00
C43    C     0.50351   0.08760   0.16733   0.00000  Uiso   1.00
C44    C     0.49649   0.24573   0.16600   0.00000  Uiso   1.00
C45    C     0.40140   0.16603   0.15483   0.00000  Uiso   1.00
C46    C     0.59860   0.16730   0.17850   0.00000  Uiso   1.00
C47    C     0.34644   0.16011   0.14969   0.00000  Uiso   1.00
C48    C     0.65356   0.17323   0.18364   0.00000  Uiso   1.00
C49    C     0.50860   0.02142   0.12596   0.00000  Uiso   1.00
C50    C     0.49140   0.31191   0.20737   0.00000  Uiso   1.00
C51    C     0.49790   0.31276   0.12359   0.00000  Uiso   1.00
C52    C     0.50210   0.02058   0.20974   0.00000  Uiso   1.00
C53    C     0.49348   0.29052   0.16522   0.00000  Uiso   1.00
C54    C     0.50652   0.04281   0.16811   0.00000  Uiso   1.00
C55    C     0.46689   0.14093   0.02030   0.00000  Uiso   1.00
C56    C     0.53311   0.19240   0.31304   0.00000  Uiso   1.00
C57    C     0.46653   0.14142   0.30417   0.00000  Uiso   1.00
C58    C     0.53347   0.19192   0.02916   0.00000  Uiso   1.00
Cu59   Cu    0.50000   0.16667   0.21355   0.00000  Uiso   1.00
Cu60   Cu    0.50000   0.16666   0.11978   0.00000  Uiso   1.00
N61    N     0.50001   0.16668   0.28403   0.00000  Uiso   1.00
N62    N     0.49999   0.16666   0.04931   0.00000  Uiso   1.00
O63    O     0.50000   0.10655   0.20625   0.00000  Uiso   1.00
O64    O     0.50000   0.22678   0.12709   0.00000  Uiso   1.00
O65    O     0.50000   0.10654   0.12706   0.00000  Uiso   1.00
O66    O     0.50000   0.22679   0.20628   0.00000  Uiso   1.00
O67    O     0.42495   0.16667   0.19712   0.00000  Uiso   1.00
O68    O     0.57505   0.16666   0.13621   0.00000  Uiso   1.00
O69    O     0.42494   0.16666   0.11793   0.00000  Uiso   1.00
O70    O     0.57506   0.16667   0.21540   0.00000  Uiso   1.00
Br71   Br    0.64980   0.12513   0.09802   0.00000  Uiso   1.00
Br72   Br    0.35020   0.20820   0.23532   0.00000  Uiso   1.00
C73    C     0.52635   0.04133   0.08569   0.00000  Uiso   1.00
N74    N     0.54098   0.05718   0.05374   0.00000  Uiso   1.00
C75    C     0.47365   0.29200   0.24765   0.00000  Uiso   1.00
N76    N     0.45902   0.27615   0.27960   0.00000  Uiso   1.00
Br77   Br    0.48184   0.28906   0.06134   0.00000  Uiso   1.00
Br78   Br    0.51816   0.04427   0.27199   0.00000  Uiso   1.00
Br79   Br    0.42113   0.10187   0.04523   0.00000  Uiso   1.00
Br80   Br    0.57887   0.23146   0.28810   0.00000  Uiso   1.00
C81    C     0.42998   0.11513   0.27492   0.00000  Uiso   1.00
N82    N     0.40045   0.09390   0.25178   0.00000  Uiso   1.00
C83    C     0.57002   0.21821   0.05842   0.00000  Uiso   1.00
N84    N     0.59954   0.23943   0.08156   0.00000  Uiso   1.00
C85    C     0.83684   0.08760   0.16733   0.00000  Uiso   1.00
C86    C     0.82982   0.24573   0.16600   0.00000  Uiso   1.00
C87    C     0.73473   0.16603   0.15483   0.00000  Uiso   1.00
C88    C     0.93194   0.16730   0.17850   0.00000  Uiso   1.00
C89    C     0.67977   0.16011   0.14969   0.00000  Uiso   1.00
C90    C     0.98689   0.17323   0.18364   0.00000  Uiso   1.00
C91    C     0.84194   0.02142   0.12596   0.00000  Uiso   1.00
C92    C     0.82473   0.31191   0.20737   0.00000  Uiso   1.00
C93    C     0.83124   0.31276   0.12359   0.00000  Uiso   1.00
C94    C     0.83543   0.02058   0.20974   0.00000  Uiso   1.00
C95    C     0.82681   0.29052   0.16522   0.00000  Uiso   1.00
C96    C     0.83985   0.04281   0.16811   0.00000  Uiso   1.00
C97    C     0.80022   0.14093   0.02030   0.00000  Uiso   1.00
C98    C     0.86645   0.19240   0.31304   0.00000  Uiso   1.00
C99    C     0.79987   0.14142   0.30417   0.00000  Uiso   1.00
C100   C     0.86680   0.19192   0.02916   0.00000  Uiso   1.00
Cu101  Cu    0.83333   0.16667   0.21355   0.00000  Uiso   1.00
Cu102  Cu    0.83333   0.16666   0.11978   0.00000  Uiso   1.00
N103   N     0.83335   0.16668   0.28403   0.00000  Uiso   1.00
N104   N     0.83332   0.16666   0.04931   0.00000  Uiso   1.00
O105   O     0.83333   0.10655   0.20625   0.00000  Uiso   1.00
O106   O     0.83334   0.22678   0.12709   0.00000  Uiso   1.00
O107   O     0.83333   0.10654   0.12706   0.00000  Uiso   1.00
O108   O     0.83334   0.22679   0.20628   0.00000  Uiso   1.00
O109   O     0.75828   0.16667   0.19712   0.00000  Uiso   1.00
O110   O     0.90839   0.16666   0.13621   0.00000  Uiso   1.00
O111   O     0.75828   0.16666   0.11793   0.00000  Uiso   1.00
O112   O     0.90839   0.16667   0.21540   0.00000  Uiso   1.00
Br113  Br    0.98313   0.12513   0.09802   0.00000  Uiso   1.00
Br114  Br    0.68354   0.20820   0.23532   0.00000  Uiso   1.00
C115   C     0.85968   0.04133   0.08569   0.00000  Uiso   1.00
N116   N     0.87431   0.05718   0.05374   0.00000  Uiso   1.00
C117   C     0.80698   0.29200   0.24765   0.00000  Uiso   1.00
N118   N     0.79236   0.27615   0.27960   0.00000  Uiso   1.00
Br119  Br    0.81518   0.28906   0.06134   0.00000  Uiso   1.00
Br120  Br    0.85149   0.04427   0.27199   0.00000  Uiso   1.00
Br121  Br    0.75446   0.10187   0.04523   0.00000  Uiso   1.00
Br122  Br    0.91221   0.23146   0.28810   0.00000  Uiso   1.00
C123   C     0.76332   0.11513   0.27492   0.00000  Uiso   1.00
N124   N     0.73379   0.09390   0.25178   0.00000  Uiso   1.00
C125   C     0.90335   0.21821   0.05842   0.00000  Uiso   1.00
N126   N     0.93288   0.23943   0.08156   0.00000  Uiso   1.00
C127   C     0.17018   0.42093   0.16733   0.00000  Uiso   1.00
C128   C     0.16316   0.57906   0.16600   0.00000  Uiso   1.00
C129   C     0.06806   0.49936   0.15483   0.00000  Uiso   1.00
C130   C     0.26527   0.50064   0.17850   0.00000  Uiso   1.00
C131   C     0.01310   0.49344   0.14969   0.00000  Uiso   1.00
C132   C     0.32023   0.50656   0.18364   0.00000  Uiso   1.00
C133   C     0.17527   0.35476   0.12596   0.00000  Uiso   1.00
C134   C     0.15806   0.64524   0.20737   0.00000  Uiso   1.00
C135   C     0.16457   0.64609   0.12359   0.00000  Uiso   1.00
C136   C     0.16876   0.35391   0.20974   0.00000  Uiso   1.00
C137   C     0.16015   0.62385   0.16522   0.00000  Uiso   1.00
C138   C     0.17319   0.37615   0.16811   0.00000  Uiso   1.00
C139   C     0.13355   0.47427   0.02030   0.00000  Uiso   1.00
C140   C     0.19978   0.52573   0.31304   0.00000  Uiso   1.00
C141   C     0.13320   0.47475   0.30417   0.00000  Uiso   1.00
C142   C     0.20013   0.52525   0.02916   0.00000  Uiso   1.00
Cu143  Cu    0.16667   0.50001   0.21355   0.00000  Uiso   1.00
Cu144  Cu    0.16667   0.49999   0.11978   0.00000  Uiso   1.00
N145   N     0.16668   0.50001   0.28403   0.00000  Uiso   1.00
N146   N     0.16665   0.49999   0.04931   0.00000  Uiso   1.00
O147   O     0.16666   0.43989   0.20625   0.00000  Uiso   1.00
O148   O     0.16667   0.56011   0.12709   0.00000  Uiso   1.00
O149   O     0.16666   0.43988   0.12706   0.00000  Uiso   1.00
O150   O     0.16667   0.56012   0.20628   0.00000  Uiso   1.00
O151   O     0.09161   0.50000   0.19712   0.00000  Uiso   1.00
O152   O     0.24172   0.50000   0.13621   0.00000  Uiso   1.00
O153   O     0.09161   0.49999   0.11793   0.00000  Uiso   1.00
O154   O     0.24172   0.50001   0.21540   0.00000  Uiso   1.00
Br155  Br    0.31646   0.45846   0.09802   0.00000  Uiso   1.00
Br156  Br    0.01687   0.54154   0.23532   0.00000  Uiso   1.00
C157   C     0.19302   0.37466   0.08569   0.00000  Uiso   1.00
N158   N     0.20764   0.39051   0.05374   0.00000  Uiso   1.00
C159   C     0.14032   0.62534   0.24765   0.00000  Uiso   1.00
N160   N     0.12569   0.60948   0.27960   0.00000  Uiso   1.00
Br161  Br    0.14851   0.62239   0.06134   0.00000  Uiso   1.00
Br162  Br    0.18482   0.37761   0.27199   0.00000  Uiso   1.00
Br163  Br    0.08779   0.43521   0.04523   0.00000  Uiso   1.00
Br164  Br    0.24554   0.56479   0.28810   0.00000  Uiso   1.00
C165   C     0.09665   0.44846   0.27492   0.00000  Uiso   1.00
N166   N     0.06712   0.42724   0.25178   0.00000  Uiso   1.00
C167   C     0.23668   0.55154   0.05842   0.00000  Uiso   1.00
N168   N     0.26621   0.57276   0.08156   0.00000  Uiso   1.00
C169   C     0.50351   0.42093   0.16733   0.00000  Uiso   1.00
C170   C     0.49649   0.57906   0.16600   0.00000  Uiso   1.00
C171   C     0.40140   0.49936   0.15483   0.00000  Uiso   1.00
C172   C     0.59860   0.50064   0.17850   0.00000  Uiso   1.00
C173   C     0.34644   0.49344   0.14969   0.00000  Uiso   1.00
C174   C     0.65356   0.50656   0.18364   0.00000  Uiso   1.00
C175   C     0.50860   0.35476   0.12596   0.00000  Uiso   1.00
C176   C     0.49140   0.64524   0.20737   0.00000  Uiso   1.00
C177   C     0.49790   0.64609   0.12359   0.00000  Uiso   1.00
C178   C     0.50210   0.35391   0.20974   0.00000  Uiso   1.00
C179   C     0.49348   0.62385   0.16522   0.00000  Uiso   1.00
C180   C     0.50652   0.37615   0.16811   0.00000  Uiso   1.00
C181   C     0.46689   0.47427   0.02030   0.00000  Uiso   1.00
C182   C     0.53311   0.52573   0.31304   0.00000  Uiso   1.00
C183   C     0.46653   0.47475   0.30417   0.00000  Uiso   1.00
C184   C     0.53347   0.52525   0.02916   0.00000  Uiso   1.00
Cu185  Cu    0.50000   0.50001   0.21355   0.00000  Uiso   1.00
Cu186  Cu    0.50000   0.49999   0.11978   0.00000  Uiso   1.00
N187   N     0.50001   0.50001   0.28403   0.00000  Uiso   1.00
N188   N     0.49999   0.49999   0.04931   0.00000  Uiso   1.00
O189   O     0.50000   0.43989   0.20625   0.00000  Uiso   1.00
O190   O     0.50000   0.56011   0.12709   0.00000  Uiso   1.00
O191   O     0.50000   0.43988   0.12706   0.00000  Uiso   1.00
O192   O     0.50000   0.56012   0.20628   0.00000  Uiso   1.00
O193   O     0.42495   0.50000   0.19712   0.00000  Uiso   1.00
O194   O     0.57505   0.50000   0.13621   0.00000  Uiso   1.00
O195   O     0.42494   0.49999   0.11793   0.00000  Uiso   1.00
O196   O     0.57506   0.50001   0.21540   0.00000  Uiso   1.00
Br197  Br    0.64980   0.45846   0.09802   0.00000  Uiso   1.00
Br198  Br    0.35020   0.54154   0.23532   0.00000  Uiso   1.00
C199   C     0.52635   0.37466   0.08569   0.00000  Uiso   1.00
N200   N     0.54098   0.39051   0.05374   0.00000  Uiso   1.00
C201   C     0.47365   0.62534   0.24765   0.00000  Uiso   1.00
N202   N     0.45902   0.60948   0.27960   0.00000  Uiso   1.00
Br203  Br    0.48184   0.62239   0.06134   0.00000  Uiso   1.00
Br204  Br    0.51816   0.37761   0.27199   0.00000  Uiso   1.00
Br205  Br    0.42113   0.43521   0.04523   0.00000  Uiso   1.00
Br206  Br    0.57887   0.56479   0.28810   0.00000  Uiso   1.00
C207   C     0.42998   0.44846   0.27492   0.00000  Uiso   1.00
N208   N     0.40045   0.42724   0.25178   0.00000  Uiso   1.00
C209   C     0.57002   0.55154   0.05842   0.00000  Uiso   1.00
N210   N     0.59954   0.57276   0.08156   0.00000  Uiso   1.00
C211   C     0.83684   0.42093   0.16733   0.00000  Uiso   1.00
C212   C     0.82982   0.57906   0.16600   0.00000  Uiso   1.00
C213   C     0.73473   0.49936   0.15483   0.00000  Uiso   1.00
C214   C     0.93194   0.50064   0.17850   0.00000  Uiso   1.00
C215   C     0.67977   0.49344   0.14969   0.00000  Uiso   1.00
C216   C     0.98689   0.50656   0.18364   0.00000  Uiso   1.00
C217   C     0.84194   0.35476   0.12596   0.00000  Uiso   1.00
C218   C     0.82473   0.64524   0.20737   0.00000  Uiso   1.00
C219   C     0.83124   0.64609   0.12359   0.00000  Uiso   1.00
C220   C     0.83543   0.35391   0.20974   0.00000  Uiso   1.00
C221   C     0.82681   0.62385   0.16522   0.00000  Uiso   1.00
C222   C     0.83985   0.37615   0.16811   0.00000  Uiso   1.00
C223   C     0.80022   0.47427   0.02030   0.00000  Uiso   1.00
C224   C     0.86645   0.52573   0.31304   0.00000  Uiso   1.00
C225   C     0.79987   0.47475   0.30417   0.00000  Uiso   1.00
C226   C     0.86680   0.52525   0.02916   0.00000  Uiso   1.00
Cu227  Cu    0.83333   0.50001   0.21355   0.00000  Uiso   1.00
Cu228  Cu    0.83333   0.49999   0.11978   0.00000  Uiso   1.00
N229   N     0.83335   0.50001   0.28403   0.00000  Uiso   1.00
N230   N     0.83332   0.49999   0.04931   0.00000  Uiso   1.00
O231   O     0.83333   0.43989   0.20625   0.00000  Uiso   1.00
O232   O     0.83334   0.56011   0.12709   0.00000  Uiso   1.00
O233   O     0.83333   0.43988   0.12706   0.00000  Uiso   1.00
O234   O     0.83334   0.56012   0.20628   0.00000  Uiso   1.00
O235   O     0.75828   0.50000   0.19712   0.00000  Uiso   1.00
O236   O     0.90839   0.50000   0.13621   0.00000  Uiso   1.00
O237   O     0.75828   0.49999   0.11793   0.00000  Uiso   1.00
O238   O     0.90839   0.50001   0.21540   0.00000  Uiso   1.00
Br239  Br    0.98313   0.45846   0.09802   0.00000  Uiso   1.00
Br240  Br    0.68354   0.54154   0.23532   0.00000  Uiso   1.00
C241   C     0.85968   0.37466   0.08569   0.00000  Uiso   1.00
N242   N     0.87431   0.39051   0.05374   0.00000  Uiso   1.00
C243   C     0.80698   0.62534   0.24765   0.00000  Uiso   1.00
N244   N     0.79236   0.60948   0.27960   0.00000  Uiso   1.00
Br245  Br    0.81518   0.62239   0.06134   0.00000  Uiso   1.00
Br246  Br    0.85149   0.37761   0.27199   0.00000  Uiso   1.00
Br247  Br    0.75446   0.43521   0.04523   0.00000  Uiso   1.00
Br248  Br    0.91221   0.56479   0.28810   0.00000  Uiso   1.00
C249   C     0.76332   0.44846   0.27492   0.00000  Uiso   1.00
N250   N     0.73379   0.42724   0.25178   0.00000  Uiso   1.00
C251   C     0.90335   0.55154   0.05842   0.00000  Uiso   1.00
N252   N     0.93288   0.57276   0.08156   0.00000  Uiso   1.00
C253   C     0.17018   0.75427   0.16733   0.00000  Uiso   1.00
C254   C     0.16316   0.91240   0.16600   0.00000  Uiso   1.00
C255   C     0.06806   0.83269   0.15483   0.00000  Uiso   1.00
C256   C     0.26527   0.83397   0.17850   0.00000  Uiso   1.00
C257   C     0.01310   0.82677   0.14969   0.00000  Uiso   1.00
C258   C     0.32023   0.83989   0.18364   0.00000  Uiso   1.00
C259   C     0.17527   0.68809   0.12596   0.00000  Uiso   1.00
C260   C     0.15806   0.97858   0.20737   0.00000  Uiso   1.00
C261   C     0.16457   0.97942   0.12359   0.00000  Uiso   1.00
C262   C     0.16876   0.68724   0.20974   0.00000  Uiso   1.00
C263   C     0.16015   0.95719   0.16522   0.00000  Uiso   1.00
C264   C     0.17319   0.70948   0.16811   0.00000  Uiso   1.00
C265   C     0.13355   0.80760   0.02030   0.00000  Uiso   1.00
C266   C     0.19978   0.85906   0.31304   0.00000  Uiso   1.00
C267   C     0.13320   0.80808   0.30417   0.00000  Uiso   1.00
C268   C     0.20013   0.85858   0.02916   0.00000  Uiso   1.00
Cu269  Cu    0.16667   0.83334   0.21355   0.00000  Uiso   1.00
Cu270  Cu    0.16667   0.83333   0.11978   0.00000  Uiso   1.00
N271   N     0.16668   0.83334   0.28403   0.00000  Uiso   1.00
N272   N     0.16665   0.83332   0.04931   0.00000  Uiso   1.00
O273   O     0.16666   0.77322   0.20625   0.00000  Uiso   1.00
O274   O     0.16667   0.89345   0.12709   0.00000  Uiso   1.00
O275   O     0.16666   0.77321   0.12706   0.00000  Uiso   1.00
O276   O     0.16667   0.89346   0.20628   0.00000  Uiso   1.00
O277   O     0.09161   0.83334   0.19712   0.00000  Uiso   1.00
O278   O     0.24172   0.83333   0.13621   0.00000  Uiso   1.00
O279   O     0.09161   0.83333   0.11793   0.00000  Uiso   1.00
O280   O     0.24172   0.83334   0.21540   0.00000  Uiso   1.00
Br281  Br    0.31646   0.79180   0.09802   0.00000  Uiso   1.00
Br282  Br    0.01687   0.87487   0.23532   0.00000  Uiso   1.00
C283   C     0.19302   0.70800   0.08569   0.00000  Uiso   1.00
N284   N     0.20764   0.72385   0.05374   0.00000  Uiso   1.00
C285   C     0.14032   0.95867   0.24765   0.00000  Uiso   1.00
N286   N     0.12569   0.94282   0.27960   0.00000  Uiso   1.00
Br287  Br    0.14851   0.95573   0.06134   0.00000  Uiso   1.00
Br288  Br    0.18482   0.71094   0.27199   0.00000  Uiso   1.00
Br289  Br    0.08779   0.76854   0.04523   0.00000  Uiso   1.00
Br290  Br    0.24554   0.89813   0.28810   0.00000  Uiso   1.00
C291   C     0.09665   0.78179   0.27492   0.00000  Uiso   1.00
N292   N     0.06712   0.76057   0.25178   0.00000  Uiso   1.00
C293   C     0.23668   0.88487   0.05842   0.00000  Uiso   1.00
N294   N     0.26621   0.90609   0.08156   0.00000  Uiso   1.00
C295   C     0.50351   0.75427   0.16733   0.00000  Uiso   1.00
C296   C     0.49649   0.91240   0.16600   0.00000  Uiso   1.00
C297   C     0.40140   0.83269   0.15483   0.00000  Uiso   1.00
C298   C     0.59860   0.83397   0.17850   0.00000  Uiso   1.00
C299   C     0.34644   0.82677   0.14969   0.00000  Uiso   1.00
C300   C     0.65356   0.83989   0.18364   0.00000  Uiso   1.00
C301   C     0.50860   0.68809   0.12596   0.00000  Uiso   1.00
C302   C     0.49140   0.97858   0.20737   0.00000  Uiso   1.00
C303   C     0.49790   0.97942   0.12359   0.00000  Uiso   1.00
C304   C     0.50210   0.68724   0.20974   0.00000  Uiso   1.00
C305   C     0.49348   0.95719   0.16522   0.00000  Uiso   1.00
C306   C     0.50652   0.70948   0.16811   0.00000  Uiso   1.00
C307   C     0.46689   0.80760   0.02030   0.00000  Uiso   1.00
C308   C     0.53311   0.85906   0.31304   0.00000  Uiso   1.00
C309   C     0.46653   0.80808   0.30417   0.00000  Uiso   1.00
C310   C     0.53347   0.85858   0.02916   0.00000  Uiso   1.00
Cu311  Cu    0.50000   0.83334   0.21355   0.00000  Uiso   1.00
Cu312  Cu    0.50000   0.83333   0.11978   0.00000  Uiso   1.00
N313   N     0.50001   0.83334   0.28403   0.00000  Uiso   1.00
N314   N     0.49999   0.83332   0.04931   0.00000  Uiso   1.00
O315   O     0.50000   0.77322   0.20625   0.00000  Uiso   1.00
O316   O     0.50000   0.89345   0.12709   0.00000  Uiso   1.00
O317   O     0.50000   0.77321   0.12706   0.00000  Uiso   1.00
O318   O     0.50000   0.89346   0.20628   0.00000  Uiso   1.00
O319   O     0.42495   0.83334   0.19712   0.00000  Uiso   1.00
O320   O     0.57505   0.83333   0.13621   0.00000  Uiso   1.00
O321   O     0.42494   0.83333   0.11793   0.00000  Uiso   1.00
O322   O     0.57506   0.83334   0.21540   0.00000  Uiso   1.00
Br323  Br    0.64980   0.79180   0.09802   0.00000  Uiso   1.00
Br324  Br    0.35020   0.87487   0.23532   0.00000  Uiso   1.00
C325   C     0.52635   0.70800   0.08569   0.00000  Uiso   1.00
N326   N     0.54098   0.72385   0.05374   0.00000  Uiso   1.00
C327   C     0.47365   0.95867   0.24765   0.00000  Uiso   1.00
N328   N     0.45902   0.94282   0.27960   0.00000  Uiso   1.00
Br329  Br    0.48184   0.95573   0.06134   0.00000  Uiso   1.00
Br330  Br    0.51816   0.71094   0.27199   0.00000  Uiso   1.00
Br331  Br    0.42113   0.76854   0.04523   0.00000  Uiso   1.00
Br332  Br    0.57887   0.89813   0.28810   0.00000  Uiso   1.00
C333   C     0.42998   0.78179   0.27492   0.00000  Uiso   1.00
N334   N     0.40045   0.76057   0.25178   0.00000  Uiso   1.00
C335   C     0.57002   0.88487   0.05842   0.00000  Uiso   1.00
N336   N     0.59954   0.90609   0.08156   0.00000  Uiso   1.00
C337   C     0.83684   0.75427   0.16733   0.00000  Uiso   1.00
C338   C     0.82982   0.91240   0.16600   0.00000  Uiso   1.00
C339   C     0.73473   0.83269   0.15483   0.00000  Uiso   1.00
C340   C     0.93194   0.83397   0.17850   0.00000  Uiso   1.00
C341   C     0.67977   0.82677   0.14969   0.00000  Uiso   1.00
C342   C     0.98689   0.83989   0.18364   0.00000  Uiso   1.00
C343   C     0.84194   0.68809   0.12596   0.00000  Uiso   1.00
C344   C     0.82473   0.97858   0.20737   0.00000  Uiso   1.00
C345   C     0.83124   0.97942   0.12359   0.00000  Uiso   1.00
C346   C     0.83543   0.68724   0.20974   0.00000  Uiso   1.00
C347   C     0.82681   0.95719   0.16522   0.00000  Uiso   1.00
C348   C     0.83985   0.70948   0.16811   0.00000  Uiso   1.00
C349   C     0.80022   0.80760   0.02030   0.00000  Uiso   1.00
C350   C     0.86645   0.85906   0.31304   0.00000  Uiso   1.00
C351   C     0.79987   0.80808   0.30417   0.00000  Uiso   1.00
C352   C     0.86680   0.85858   0.02916   0.00000  Uiso   1.00
Cu353  Cu    0.83333   0.83334   0.21355   0.00000  Uiso   1.00
Cu354  Cu    0.83333   0.83333   0.11978   0.00000  Uiso   1.00
N355   N     0.83335   0.83334   0.28403   0.00000  Uiso   1.00
N356   N     0.83332   0.83332   0.04931   0.00000  Uiso   1.00
O357   O     0.83333   0.77322   0.20625   0.00000  Uiso   1.00
O358   O     0.83334   0.89345   0.12709   0.00000  Uiso   1.00
O359   O     0.83333   0.77321   0.12706   0.00000  Uiso   1.00
O360   O     0.83334   0.89346   0.20628   0.00000  Uiso   1.00
O361   O     0.75828   0.83334   0.19712   0.00000  Uiso   1.00
O362   O     0.90839   0.83333   0.13621   0.00000  Uiso   1.00
O363   O     0.75828   0.83333   0.11793   0.00000  Uiso   1.00
O364   O     0.90839   0.83334   0.21540   0.00000  Uiso   1.00
Br365  Br    0.98313   0.79180   0.09802   0.00000  Uiso   1.00
Br366  Br    0.68354   0.87487   0.23532   0.00000  Uiso   1.00
C367   C     0.85968   0.70800   0.08569   0.00000  Uiso   1.00
N368   N     0.87431   0.72385   0.05374   0.00000  Uiso   1.00
C369   C     0.80698   0.95867   0.24765   0.00000  Uiso   1.00
N370   N     0.79236   0.94282   0.27960   0.00000  Uiso   1.00
Br371  Br    0.81518   0.95573   0.06134   0.00000  Uiso   1.00
Br372  Br    0.85149   0.71094   0.27199   0.00000  Uiso   1.00
Br373  Br    0.75446   0.76854   0.04523   0.00000  Uiso   1.00
Br374  Br    0.91221   0.89813   0.28810   0.00000  Uiso   1.00
C375   C     0.76332   0.78179   0.27492   0.00000  Uiso   1.00
N376   N     0.73379   0.76057   0.25178   0.00000  Uiso   1.00
C377   C     0.90335   0.88487   0.05842   0.00000  Uiso   1.00
N378   N     0.93288   0.90609   0.08156   0.00000  Uiso   1.00
C379   C     0.17018   0.08760   0.50066   0.00000  Uiso   1.00
C380   C     0.16316   0.24573   0.49934   0.00000  Uiso   1.00
C381   C     0.06806   0.16603   0.48816   0.00000  Uiso   1.00
C382   C     0.26527   0.16730   0.51184   0.00000  Uiso   1.00
C383   C     0.01310   0.16011   0.48302   0.00000  Uiso   1.00
C384   C     0.32023   0.17323   0.51698   0.00000  Uiso   1.00
C385   C     0.17527   0.02142   0.45929   0.00000  Uiso   1.00
C386   C     0.15806   0.31191   0.54071   0.00000  Uiso   1.00
C387   C     0.16457   0.31276   0.45692   0.00000  Uiso   1.00
C388   C     0.16876   0.02058   0.54308   0.00000  Uiso   1.00
C389   C     0.16015   0.29052   0.49855   0.00000  Uiso   1.00
C390   C     0.17319   0.04281   0.50145   0.00000  Uiso   1.00
C391   C     0.13355   0.14093   0.35363   0.00000  Uiso   1.00
C392   C     0.19978   0.19240   0.64637   0.00000  Uiso   1.00
C393   C     0.13320   0.14142   0.63751   0.00000  Uiso   1.00
C394   C     0.20013   0.19192   0.36249   0.00000  Uiso   1.00
Cu395  Cu    0.16667   0.16667   0.54689   0.00000  Uiso   1.00
Cu396  Cu    0.16667   0.16666   0.45311   0.00000  Uiso   1.00
N397   N     0.16668   0.16668   0.61736   0.00000  Uiso   1.00
N398   N     0.16665   0.16666   0.38264   0.00000  Uiso   1.00
O399   O     0.16666   0.10655   0.53958   0.00000  Uiso   1.00
O400   O     0.16667   0.22678   0.46042   0.00000  Uiso   1.00
O401   O     0.16666   0.10654   0.46039   0.00000  Uiso   1.00
O402   O     0.16667   0.22679   0.53961   0.00000  Uiso   1.00
O403   O     0.09161   0.16667   0.53046   0.00000  Uiso   1.00
O404   O     0.24172   0.16666   0.46954   0.00000  Uiso   1.00
O405   O     0.09161   0.16666   0.45127   0.00000  Uiso   1.00
O406   O     0.24172   0.16667   0.54873   0.00000  Uiso   1.00
Br407  Br    0.31646   0.12513   0.43135   0.00000  Uiso   1.00
Br408  Br    0.01687   0.20820   0.56865   0.00000  Uiso   1.00
C409   C     0.19302   0.04133   0.41902   0.00000  Uiso   1.00
N410   N     0.20764   0.05718   0.38707   0.00000  Uiso   1.00
C411   C     0.14032   0.29200   0.58098   0.00000  Uiso   1.00
N412   N     0.12569   0.27615   0.61293   0.00000  Uiso   1.00
Br413  Br    0.14851   0.28906   0.39468   0.00000  Uiso   1.00
Br414  Br    0.18482   0.04427   0.60532   0.00000  Uiso   1.00
Br415  Br    0.08779   0.10187   0.37857   0.00000  Uiso   1.00
Br416  Br    0.24554   0.23146   0.62143   0.00000  Uiso   1.00
C417   C     0.09665   0.11513   0.60825   0.00000  Uiso   1.00
N418   N     0.06712   0.09390   0.58511   0.00000  Uiso   1.00
C419   C     0.23668   0.21821   0.39175   0.00000  Uiso   1.00
N420   N     0.26621   0.23943   0.41489   0.00000  Uiso   1.00
C421   C     0.50351   0.08760   0.50066   0.00000  Uiso   1.00
C422   C     0.49649   0.24573   0.49934   0.00000  Uiso   1.00
C423   C     0.40140   0.16603   0.48816   0.00000  Uiso   1.00
C424   C     0.59860   0.16730   0.51184   0.00000  Uiso   1.00
C425   C     0.34644   0.16011   0.48302   0.00000  Uiso   1.00
C426   C     0.65356   0.17323   0.51698   0.00000  Uiso   1.00
C427   C     0.50860   0.02142   0.45929   0.00000  Uiso   1.00
C428   C     0.49140   0.31191   0.54071   0.00000  Uiso   1.00
C429   C     0.49790   0.31276   0.45692   0.00000  Uiso   1.00
C430   C     0.50210   0.02058   0.54308   0.00000  Uiso   1.00
C431   C     0.49348   0.29052   0.49855   0.00000  Uiso   1.00
C432   C     0.50652   0.04281   0.50145   0.00000  Uiso   1.00
C433   C     0.46689   0.14093   0.35363   0.00000  Uiso   1.00
C434   C     0.53311   0.19240   0.64637   0.00000  Uiso   1.00
C435   C     0.46653   0.14142   0.63751   0.00000  Uiso   1.00
C436   C     0.53347   0.19192   0.36249   0.00000  Uiso   1.00
Cu437  Cu    0.50000   0.16667   0.54689   0.00000  Uiso   1.00
Cu438  Cu    0.50000   0.16666   0.45311   0.00000  Uiso   1.00
N439   N     0.50001   0.16668   0.61736   0.00000  Uiso   1.00
N440   N     0.49999   0.16666   0.38264   0.00000  Uiso   1.00
O441   O     0.50000   0.10655   0.53958   0.00000  Uiso   1.00
O442   O     0.50000   0.22678   0.46042   0.00000  Uiso   1.00
O443   O     0.50000   0.10654   0.46039   0.00000  Uiso   1.00
O444   O     0.50000   0.22679   0.53961   0.00000  Uiso   1.00
O445   O     0.42495   0.16667   0.53046   0.00000  Uiso   1.00
O446   O     0.57505   0.16666   0.46954   0.00000  Uiso   1.00
O447   O     0.42494   0.16666   0.45127   0.00000  Uiso   1.00
O448   O     0.57506   0.16667   0.54873   0.00000  Uiso   1.00
Br449  Br    0.64980   0.12513   0.43135   0.00000  Uiso   1.00
Br450  Br    0.35020   0.20820   0.56865   0.00000  Uiso   1.00
C451   C     0.52635   0.04133   0.41902   0.00000  Uiso   1.00
N452   N     0.54098   0.05718   0.38707   0.00000  Uiso   1.00
C453   C     0.47365   0.29200   0.58098   0.00000  Uiso   1.00
N454   N     0.45902   0.27615   0.61293   0.00000  Uiso   1.00
Br455  Br    0.48184   0.28906   0.39468   0.00000  Uiso   1.00
Br456  Br    0.51816   0.04427   0.60532   0.00000  Uiso   1.00
Br457  Br    0.42113   0.10187   0.37857   0.00000  Uiso   1.00
Br458  Br    0.57887   0.23146   0.62143   0.00000  Uiso   1.00
C459   C     0.42998   0.11513   0.60825   0.00000  Uiso   1.00
N460   N     0.40045   0.09390   0.58511   0.00000  Uiso   1.00
C461   C     0.57002   0.21821   0.39175   0.00000  Uiso   1.00
N462   N     0.59954   0.23943   0.41489   0.00000  Uiso   1.00
C463   C     0.83684   0.08760   0.50066   0.00000  Uiso   1.00
C464   C     0.82982   0.24573   0.49934   0.00000  Uiso   1.00
C465   C     0.73473   0.16603   0.48816   0.00000  Uiso   1.00
C466   C     0.93194   0.16730   0.51184   0.00000  Uiso   1.00
C467   C     0.67977   0.16011   0.48302   0.00000  Uiso   1.00
C468   C     0.98689   0.17323   0.51698   0.00000  Uiso   1.00
C469   C     0.84194   0.02142   0.45929   0.00000  Uiso   1.00
C470   C     0.82473   0.31191   0.54071   0.00000  Uiso   1.00
C471   C     0.83124   0.31276   0.45692   0.00000  Uiso   1.00
C472   C     0.83543   0.02058   0.54308   0.00000  Uiso   1.00
C473   C     0.82681   0.29052   0.49855   0.00000  Uiso   1.00
C474   C     0.83985   0.04281   0.50145   0.00000  Uiso   1.00
C475   C     0.80022   0.14093   0.35363   0.00000  Uiso   1.00
C476   C     0.86645   0.19240   0.64637   0.00000  Uiso   1.00
C477   C     0.79987   0.14142   0.63751   0.00000  Uiso   1.00
C478   C     0.86680   0.19192   0.36249   0.00000  Uiso   1.00
Cu479  Cu    0.83333   0.16667   0.54689   0.00000  Uiso   1.00
Cu480  Cu    0.83333   0.16666   0.45311   0.00000  Uiso   1.00
N481   N     0.83335   0.16668   0.61736   0.00000  Uiso   1.00
N482   N     0.83332   0.16666   0.38264   0.00000  Uiso   1.00
O483   O     0.83333   0.10655   0.53958   0.00000  Uiso   1.00
O484   O     0.83334   0.22678   0.46042   0.00000  Uiso   1.00
O485   O     0.83333   0.10654   0.46039   0.00000  Uiso   1.00
O486   O     0.83334   0.22679   0.53961   0.00000  Uiso   1.00
O487   O     0.75828   0.16667   0.53046   0.00000  Uiso   1.00
O488   O     0.90839   0.16666   0.46954   0.00000  Uiso   1.00
O489   O     0.75828   0.16666   0.45127   0.00000  Uiso   1.00
O490   O     0.90839   0.16667   0.54873   0.00000  Uiso   1.00
Br491  Br    0.98313   0.12513   0.43135   0.00000  Uiso   1.00
Br492  Br    0.68354   0.20820   0.56865   0.00000  Uiso   1.00
C493   C     0.85968   0.04133   0.41902   0.00000  Uiso   1.00
N494   N     0.87431   0.05718   0.38707   0.00000  Uiso   1.00
C495   C     0.80698   0.29200   0.58098   0.00000  Uiso   1.00
N496   N     0.79236   0.27615   0.61293   0.00000  Uiso   1.00
Br497  Br    0.81518   0.28906   0.39468   0.00000  Uiso   1.00
Br498  Br    0.85149   0.04427   0.60532   0.00000  Uiso   1.00
Br499  Br    0.75446   0.10187   0.37857   0.00000  Uiso   1.00
Br500  Br    0.91221   0.23146   0.62143   0.00000  Uiso   1.00
C501   C     0.76332   0.11513   0.60825   0.00000  Uiso   1.00
N502   N     0.73379   0.09390   0.58511   0.00000  Uiso   1.00
C503   C     0.90335   0.21821   0.39175   0.00000  Uiso   1.00
N504   N     0.93288   0.23943   0.41489   0.00000  Uiso   1.00
C505   C     0.17018   0.42093   0.50066   0.00000  Uiso   1.00
C506   C     0.16316   0.57906   0.49934   0.00000  Uiso   1.00
C507   C     0.06806   0.49936   0.48816   0.00000  Uiso   1.00
C508   C     0.26527   0.50064   0.51184   0.00000  Uiso   1.00
C509   C     0.01310   0.49344   0.48302   0.00000  Uiso   1.00
C510   C     0.32023   0.50656   0.51698   0.00000  Uiso   1.00
C511   C     0.17527   0.35476   0.45929   0.00000  Uiso   1.00
C512   C     0.15806   0.64524   0.54071   0.00000  Uiso   1.00
C513   C     0.16457   0.64609   0.45692   0.00000  Uiso   1.00
C514   C     0.16876   0.35391   0.54308   0.00000  Uiso   1.00
C515   C     0.16015   0.62385   0.49855   0.00000  Uiso   1.00
C516   C     0.17319   0.37615   0.50145   0.00000  Uiso   1.00
C517   C     0.13355   0.47427   0.35363   0.00000  Uiso   1.00
C518   C     0.19978   0.52573   0.64637   0.00000  Uiso   1.00
C519   C     0.13320   0.47475   0.63751   0.00000  Uiso   1.00
C520   C     0.20013   0.52525   0.36249   0.00000  Uiso   1.00
Cu521  Cu    0.16667   0.50001   0.54689   0.00000  Uiso   1.00
Cu522  Cu    0.16667   0.49999   0.45311   0.00000  Uiso   1.00
N523   N     0.16668   0.50001   0.61736   0.00000  Uiso   1.00
N524   N     0.16665   0.49999   0.38264   0.00000  Uiso   1.00
O525   O     0.16666   0.43989   0.53958   0.00000  Uiso   1.00
O526   O     0.16667   0.56011   0.46042   0.00000  Uiso   1.00
O527   O     0.16666   0.43988   0.46039   0.00000  Uiso   1.00
O528   O     0.16667   0.56012   0.53961   0.00000  Uiso   1.00
O529   O     0.09161   0.50000   0.53046   0.00000  Uiso   1.00
O530   O     0.24172   0.50000   0.46954   0.00000  Uiso   1.00
O531   O     0.09161   0.49999   0.45127   0.00000  Uiso   1.00
O532   O     0.24172   0.50001   0.54873   0.00000  Uiso   1.00
Br533  Br    0.31646   0.45846   0.43135   0.00000  Uiso   1.00
Br534  Br    0.01687   0.54154   0.56865   0.00000  Uiso   1.00
C535   C     0.19302   0.37466   0.41902   0.00000  Uiso   1.00
N536   N     0.20764   0.39051   0.38707   0.00000  Uiso   1.00
C537   C     0.14032   0.62534   0.58098   0.00000  Uiso   1.00
N538   N     0.12569   0.60948   0.61293   0.00000  Uiso   1.00
Br539  Br    0.14851   0.62239   0.39468   0.00000  Uiso   1.00
Br540  Br    0.18482   0.37761   0.60532   0.00000  Uiso   1.00
Br541  Br    0.08779   0.43521   0.37857   0.00000  Uiso   1.00
Br542  Br    0.24554   0.56479   0.62143   0.00000  Uiso   1.00
C543   C     0.09665   0.44846   0.60825   0.00000  Uiso   1.00
N544   N     0.06712   0.42724   0.58511   0.00000  Uiso   1.00
C545   C     0.23668   0.55154   0.39175   0.00000  Uiso   1.00
N546   N     0.26621   0.57276   0.41489   0.00000  Uiso   1.00
C547   C     0.50351   0.42093   0.50066   0.00000  Uiso   1.00
C548   C     0.49649   0.57906   0.49934   0.00000  Uiso   1.00
C549   C     0.40140   0.49936   0.48816   0.00000  Uiso   1.00
C550   C     0.59860   0.50064   0.51184   0.00000  Uiso   1.00
C551   C     0.34644   0.49344   0.48302   0.00000  Uiso   1.00
C552   C     0.65356   0.50656   0.51698   0.00000  Uiso   1.00
C553   C     0.50860   0.35476   0.45929   0.00000  Uiso   1.00
C554   C     0.49140   0.64524   0.54071   0.00000  Uiso   1.00
C555   C     0.49790   0.64609   0.45692   0.00000  Uiso   1.00
C556   C     0.50210   0.35391   0.54308   0.00000  Uiso   1.00
C557   C     0.49348   0.62385   0.49855   0.00000  Uiso   1.00
C558   C     0.50652   0.37615   0.50145   0.00000  Uiso   1.00
C559   C     0.46689   0.47427   0.35363   0.00000  Uiso   1.00
C560   C     0.53311   0.52573   0.64637   0.00000  Uiso   1.00
C561   C     0.46653   0.47475   0.63751   0.00000  Uiso   1.00
C562   C     0.53347   0.52525   0.36249   0.00000  Uiso   1.00
Cu563  Cu    0.50000   0.50001   0.54689   0.00000  Uiso   1.00
Cu564  Cu    0.50000   0.49999   0.45311   0.00000  Uiso   1.00
N565   N     0.50001   0.50001   0.61736   0.00000  Uiso   1.00
N566   N     0.49999   0.49999   0.38264   0.00000  Uiso   1.00
O567   O     0.50000   0.43989   0.53958   0.00000  Uiso   1.00
O568   O     0.50000   0.56011   0.46042   0.00000  Uiso   1.00
O569   O     0.50000   0.43988   0.46039   0.00000  Uiso   1.00
O570   O     0.50000   0.56012   0.53961   0.00000  Uiso   1.00
O571   O     0.42495   0.50000   0.53046   0.00000  Uiso   1.00
O572   O     0.57505   0.50000   0.46954   0.00000  Uiso   1.00
O573   O     0.42494   0.49999   0.45127   0.00000  Uiso   1.00
O574   O     0.57506   0.50001   0.54873   0.00000  Uiso   1.00
Br575  Br    0.64980   0.45846   0.43135   0.00000  Uiso   1.00
Br576  Br    0.35020   0.54154   0.56865   0.00000  Uiso   1.00
C577   C     0.52635   0.37466   0.41902   0.00000  Uiso   1.00
N578   N     0.54098   0.39051   0.38707   0.00000  Uiso   1.00
C579   C     0.47365   0.62534   0.58098   0.00000  Uiso   1.00
N580   N     0.45902   0.60948   0.61293   0.00000  Uiso   1.00
Br581  Br    0.48184   0.62239   0.39468   0.00000  Uiso   1.00
Br582  Br    0.51816   0.37761   0.60532   0.00000  Uiso   1.00
Br583  Br    0.42113   0.43521   0.37857   0.00000  Uiso   1.00
Br584  Br    0.57887   0.56479   0.62143   0.00000  Uiso   1.00
C585   C     0.42998   0.44846   0.60825   0.00000  Uiso   1.00
N586   N     0.40045   0.42724   0.58511   0.00000  Uiso   1.00
C587   C     0.57002   0.55154   0.39175   0.00000  Uiso   1.00
N588   N     0.59954   0.57276   0.41489   0.00000  Uiso   1.00
C589   C     0.83684   0.42093   0.50066   0.00000  Uiso   1.00
C590   C     0.82982   0.57906   0.49934   0.00000  Uiso   1.00
C591   C     0.73473   0.49936   0.48816   0.00000  Uiso   1.00
C592   C     0.93194   0.50064   0.51184   0.00000  Uiso   1.00
C593   C     0.67977   0.49344   0.48302   0.00000  Uiso   1.00
C594   C     0.98689   0.50656   0.51698   0.00000  Uiso   1.00
C595   C     0.84194   0.35476   0.45929   0.00000  Uiso   1.00
C596   C     0.82473   0.64524   0.54071   0.00000  Uiso   1.00
C597   C     0.83124   0.64609   0.45692   0.00000  Uiso   1.00
C598   C     0.83543   0.35391   0.54308   0.00000  Uiso   1.00
C599   C     0.82681   0.62385   0.49855   0.00000  Uiso   1.00
C600   C     0.83985   0.37615   0.50145   0.00000  Uiso   1.00
C601   C     0.80022   0.47427   0.35363   0.00000  Uiso   1.00
C602   C     0.86645   0.52573   0.64637   0.00000  Uiso   1.00
C603   C     0.79987   0.47475   0.63751   0.00000  Uiso   1.00
C604   C     0.86680   0.52525   0.36249   0.00000  Uiso   1.00
Cu605  Cu    0.83333   0.50001   0.54689   0.00000  Uiso   1.00
Cu606  Cu    0.83333   0.49999   0.45311   0.00000  Uiso   1.00
N607   N     0.83335   0.50001   0.61736   0.00000  Uiso   1.00
N608   N     0.83332   0.49999   0.38264   0.00000  Uiso   1.00
O609   O     0.83333   0.43989   0.53958   0.00000  Uiso   1.00
O610   O     0.83334   0.56011   0.46042   0.00000  Uiso   1.00
O611   O     0.83333   0.43988   0.46039   0.00000  Uiso   1.00
O612   O     0.83334   0.56012   0.53961   0.00000  Uiso   1.00
O613   O     0.75828   0.50000   0.53046   0.00000  Uiso   1.00
O614   O     0.90839   0.50000   0.46954   0.00000  Uiso   1.00
O615   O     0.75828   0.49999   0.45127   0.00000  Uiso   1.00
O616   O     0.90839   0.50001   0.54873   0.00000  Uiso   1.00
Br617  Br    0.98313   0.45846   0.43135   0.00000  Uiso   1.00
Br618  Br    0.68354   0.54154   0.56865   0.00000  Uiso   1.00
C619   C     0.85968   0.37466   0.41902   0.00000  Uiso   1.00
N620   N     0.87431   0.39051   0.38707   0.00000  Uiso   1.00
C621   C     0.80698   0.62534   0.58098   0.00000  Uiso   1.00
N622   N     0.79236   0.60948   0.61293   0.00000  Uiso   1.00
Br623  Br    0.81518   0.62239   0.39468   0.00000  Uiso   1.00
Br624  Br    0.85149   0.37761   0.60532   0.00000  Uiso   1.00
Br625  Br    0.75446   0.43521   0.37857   0.00000  Uiso   1.00
Br626  Br    0.91221   0.56479   0.62143   0.00000  Uiso   1.00
C627   C     0.76332   0.44846   0.60825   0.00000  Uiso   1.00
N628   N     0.73379   0.42724   0.58511   0.00000  Uiso   1.00
C629   C     0.90335   0.55154   0.39175   0.00000  Uiso   1.00
N630   N     0.93288   0.57276   0.41489   0.00000  Uiso   1.00
C631   C     0.17018   0.75427   0.50066   0.00000  Uiso   1.00
C632   C     0.16316   0.91240   0.49934   0.00000  Uiso   1.00
C633   C     0.06806   0.83269   0.48816   0.00000  Uiso   1.00
C634   C     0.26527   0.83397   0.51184   0.00000  Uiso   1.00
C635   C     0.01310   0.82677   0.48302   0.00000  Uiso   1.00
C636   C     0.32023   0.83989   0.51698   0.00000  Uiso   1.00
C637   C     0.17527   0.68809   0.45929   0.00000  Uiso   1.00
C638   C     0.15806   0.97858   0.54071   0.00000  Uiso   1.00
C639   C     0.16457   0.97942   0.45692   0.00000  Uiso   1.00
C640   C     0.16876   0.68724   0.54308   0.00000  Uiso   1.00
C641   C     0.16015   0.95719   0.49855   0.00000  Uiso   1.00
C642   C     0.17319   0.70948   0.50145   0.00000  Uiso   1.00
C643   C     0.13355   0.80760   0.35363   0.00000  Uiso   1.00
C644   C     0.19978   0.85906   0.64637   0.00000  Uiso   1.00
C645   C     0.13320   0.80808   0.63751   0.00000  Uiso   1.00
C646   C     0.20013   0.85858   0.36249   0.00000  Uiso   1.00
Cu647  Cu    0.16667   0.83334   0.54689   0.00000  Uiso   1.00
Cu648  Cu    0.16667   0.83333   0.45311   0.00000  Uiso   1.00
N649   N     0.16668   0.83334   0.61736   0.00000  Uiso   1.00
N650   N     0.16665   0.83332   0.38264   0.00000  Uiso   1.00
O651   O     0.16666   0.77322   0.53958   0.00000  Uiso   1.00
O652   O     0.16667   0.89345   0.46042   0.00000  Uiso   1.00
O653   O     0.16666   0.77321   0.46039   0.00000  Uiso   1.00
O654   O     0.16667   0.89346   0.53961   0.00000  Uiso   1.00
O655   O     0.09161   0.83334   0.53046   0.00000  Uiso   1.00
O656   O     0.24172   0.83333   0.46954   0.00000  Uiso   1.00
O657   O     0.09161   0.83333   0.45127   0.00000  Uiso   1.00
O658   O     0.24172   0.83334   0.54873   0.00000  Uiso   1.00
Br659  Br    0.31646   0.79180   0.43135   0.00000  Uiso   1.00
Br660  Br    0.01687   0.87487   0.56865   0.00000  Uiso   1.00
C661   C     0.19302   0.70800   0.41902   0.00000  Uiso   1.00
N662   N     0.20764   0.72385   0.38707   0.00000  Uiso   1.00
C663   C     0.14032   0.95867   0.58098   0.00000  Uiso   1.00
N664   N     0.12569   0.94282   0.61293   0.00000  Uiso   1.00
Br665  Br    0.14851   0.95573   0.39468   0.00000  Uiso   1.00
Br666  Br    0.18482   0.71094   0.60532   0.00000  Uiso   1.00
Br667  Br    0.08779   0.76854   0.37857   0.00000  Uiso   1.00
Br668  Br    0.24554   0.89813   0.62143   0.00000  Uiso   1.00
C669   C     0.09665   0.78179   0.60825   0.00000  Uiso   1.00
N670   N     0.06712   0.76057   0.58511   0.00000  Uiso   1.00
C671   C     0.23668   0.88487   0.39175   0.00000  Uiso   1.00
N672   N     0.26621   0.90609   0.41489   0.00000  Uiso   1.00
C673   C     0.50351   0.75427   0.50066   0.00000  Uiso   1.00
C674   C     0.49649   0.91240   0.49934   0.00000  Uiso   1.00
C675   C     0.40140   0.83269   0.48816   0.00000  Uiso   1.00
C676   C     0.59860   0.83397   0.51184   0.00000  Uiso   1.00
C677   C     0.34644   0.82677   0.48302   0.00000  Uiso   1.00
C678   C     0.65356   0.83989   0.51698   0.00000  Uiso   1.00
C679   C     0.50860   0.68809   0.45929   0.00000  Uiso   1.00
C680   C     0.49140   0.97858   0.54071   0.00000  Uiso   1.00
C681   C     0.49790   0.97942   0.45692   0.00000  Uiso   1.00
C682   C     0.50210   0.68724   0.54308   0.00000  Uiso   1.00
C683   C     0.49348   0.95719   0.49855   0.00000  Uiso   1.00
C684   C     0.50652   0.70948   0.50145   0.00000  Uiso   1.00
C685   C     0.46689   0.80760   0.35363   0.00000  Uiso   1.00
C686   C     0.53311   0.85906   0.64637   0.00000  Uiso   1.00
C687   C     0.46653   0.80808   0.63751   0.00000  Uiso   1.00
C688   C     0.53347   0.85858   0.36249   0.00000  Uiso   1.00
Cu689  Cu    0.50000   0.83334   0.54689   0.00000  Uiso   1.00
Cu690  Cu    0.50000   0.83333   0.45311   0.00000  Uiso   1.00
N691   N     0.50001   0.83334   0.61736   0.00000  Uiso   1.00
N692   N     0.49999   0.83332   0.38264   0.00000  Uiso   1.00
O693   O     0.50000   0.77322   0.53958   0.00000  Uiso   1.00
O694   O     0.50000   0.89345   0.46042   0.00000  Uiso   1.00
O695   O     0.50000   0.77321   0.46039   0.00000  Uiso   1.00
O696   O     0.50000   0.89346   0.53961   0.00000  Uiso   1.00
O697   O     0.42495   0.83334   0.53046   0.00000  Uiso   1.00
O698   O     0.57505   0.83333   0.46954   0.00000  Uiso   1.00
O699   O     0.42494   0.83333   0.45127   0.00000  Uiso   1.00
O700   O     0.57506   0.83334   0.54873   0.00000  Uiso   1.00
Br701  Br    0.64980   0.79180   0.43135   0.00000  Uiso   1.00
Br702  Br    0.35020   0.87487   0.56865   0.00000  Uiso   1.00
C703   C     0.52635   0.70800   0.41902   0.00000  Uiso   1.00
N704   N     0.54098   0.72385   0.38707   0.00000  Uiso   1.00
C705   C     0.47365   0.95867   0.58098   0.00000  Uiso   1.00
N706   N     0.45902   0.94282   0.61293   0.00000  Uiso   1.00
Br707  Br    0.48184   0.95573   0.39468   0.00000  Uiso   1.00
Br708  Br    0.51816   0.71094   0.60532   0.00000  Uiso   1.00
Br709  Br    0.42113   0.76854   0.37857   0.00000  Uiso   1.00
Br710  Br    0.57887   0.89813   0.62143   0.00000  Uiso   1.00
C711   C     0.42998   0.78179   0.60825   0.00000  Uiso   1.00
N712   N     0.40045   0.76057   0.58511   0.00000  Uiso   1.00
C713   C     0.57002   0.88487   0.39175   0.00000  Uiso   1.00
N714   N     0.59954   0.90609   0.41489   0.00000  Uiso   1.00
C715   C     0.83684   0.75427   0.50066   0.00000  Uiso   1.00
C716   C     0.82982   0.91240   0.49934   0.00000  Uiso   1.00
C717   C     0.73473   0.83269   0.48816   0.00000  Uiso   1.00
C718   C     0.93194   0.83397   0.51184   0.00000  Uiso   1.00
C719   C     0.67977   0.82677   0.48302   0.00000  Uiso   1.00
C720   C     0.98689   0.83989   0.51698   0.00000  Uiso   1.00
C721   C     0.84194   0.68809   0.45929   0.00000  Uiso   1.00
C722   C     0.82473   0.97858   0.54071   0.00000  Uiso   1.00
C723   C     0.83124   0.97942   0.45692   0.00000  Uiso   1.00
C724   C     0.83543   0.68724   0.54308   0.00000  Uiso   1.00
C725   C     0.82681   0.95719   0.49855   0.00000  Uiso   1.00
C726   C     0.83985   0.70948   0.50145   0.00000  Uiso   1.00
C727   C     0.80022   0.80760   0.35363   0.00000  Uiso   1.00
C728   C     0.86645   0.85906   0.64637   0.00000  Uiso   1.00
C729   C     0.79987   0.80808   0.63751   0.00000  Uiso   1.00
C730   C     0.86680   0.85858   0.36249   0.00000  Uiso   1.00
Cu731  Cu    0.83333   0.83334   0.54689   0.00000  Uiso   1.00
Cu732  Cu    0.83333   0.83333   0.45311   0.00000  Uiso   1.00
N733   N     0.83335   0.83334   0.61736   0.00000  Uiso   1.00
N734   N     0.83332   0.83332   0.38264   0.00000  Uiso   1.00
O735   O     0.83333   0.77322   0.53958   0.00000  Uiso   1.00
O736   O     0.83334   0.89345   0.46042   0.00000  Uiso   1.00
O737   O     0.83333   0.77321   0.46039   0.00000  Uiso   1.00
O738   O     0.83334   0.89346   0.53961   0.00000  Uiso   1.00
O739   O     0.75828   0.83334   0.53046   0.00000  Uiso   1.00
O740   O     0.90839   0.83333   0.46954   0.00000  Uiso   1.00
O741   O     0.75828   0.83333   0.45127   0.00000  Uiso   1.00
O742   O     0.90839   0.83334   0.54873   0.00000  Uiso   1.00
Br743  Br    0.98313   0.79180   0.43135   0.00000  Uiso   1.00
Br744  Br    0.68354   0.87487   0.56865   0.00000  Uiso   1.00
C745   C     0.85968   0.70800   0.41902   0.00000  Uiso   1.00
N746   N     0.87431   0.72385   0.38707   0.00000  Uiso   1.00
C747   C     0.80698   0.95867   0.58098   0.00000  Uiso   1.00
N748   N     0.79236   0.94282   0.61293   0.00000  Uiso   1.00
Br749  Br    0.81518   0.95573   0.39468   0.00000  Uiso   1.00
Br750  Br    0.85149   0.71094   0.60532   0.00000  Uiso   1.00
Br751  Br    0.75446   0.76854   0.37857   0.00000  Uiso   1.00
Br752  Br    0.91221   0.89813   0.62143   0.00000  Uiso   1.00
C753   C     0.76332   0.78179   0.60825   0.00000  Uiso   1.00
N754   N     0.73379   0.76057   0.58511   0.00000  Uiso   1.00
C755   C     0.90335   0.88487   0.39175   0.00000  Uiso   1.00
N756   N     0.93288   0.90609   0.41489   0.00000  Uiso   1.00
C757   C     0.17018   0.08760   0.83400   0.00000  Uiso   1.00
C758   C     0.16316   0.24573   0.83267   0.00000  Uiso   1.00
C759   C     0.06806   0.16603   0.82150   0.00000  Uiso   1.00
C760   C     0.26527   0.16730   0.84517   0.00000  Uiso   1.00
C761   C     0.01310   0.16011   0.81636   0.00000  Uiso   1.00
C762   C     0.32023   0.17323   0.85031   0.00000  Uiso   1.00
C763   C     0.17527   0.02142   0.79263   0.00000  Uiso   1.00
C764   C     0.15806   0.31191   0.87404   0.00000  Uiso   1.00
C765   C     0.16457   0.31276   0.79026   0.00000  Uiso   1.00
C766   C     0.16876   0.02058   0.87641   0.00000  Uiso   1.00
C767   C     0.16015   0.29052   0.83189   0.00000  Uiso   1.00
C768   C     0.17319   0.04281   0.83478   0.00000  Uiso   1.00
C769   C     0.13355   0.14093   0.68696   0.00000  Uiso   1.00
C770   C     0.19978   0.19240   0.97970   0.00000  Uiso   1.00
C771   C     0.13320   0.14142   0.97084   0.00000  Uiso   1.00
C772   C     0.20013   0.19192   0.69583   0.00000  Uiso   1.00
Cu773  Cu    0.16667   0.16667   0.88022   0.00000  Uiso   1.00
Cu774  Cu    0.16667   0.16666   0.78645   0.00000  Uiso   1.00
N775   N     0.16668   0.16668   0.95069   0.00000  Uiso   1.00
N776   N     0.16665   0.16666   0.71597   0.00000  Uiso   1.00
O777   O     0.16666   0.10655   0.87291   0.00000  Uiso   1.00
O778   O     0.16667   0.22678   0.79375   0.00000  Uiso   1.00
O779   O     0.16666   0.10654   0.79372   0.00000  Uiso   1.00
O780   O     0.16667   0.22679   0.87294   0.00000  Uiso   1.00
O781   O     0.09161   0.16667   0.86379   0.00000  Uiso   1.00
O782   O     0.24172   0.16666   0.80288   0.00000  Uiso   1.00
O783   O     0.09161   0.16666   0.78460   0.00000  Uiso   1.00
O784   O     0.24172   0.16667   0.88207   0.00000  Uiso   1.00
Br785  Br    0.31646   0.12513   0.76468   0.00000  Uiso   1.00
Br786  Br    0.01687   0.20820   0.90198   0.00000  Uiso   1.00
C787   C     0.19302   0.04133   0.75235   0.00000  Uiso   1.00
N788   N     0.20764   0.05718   0.72040   0.00000  Uiso   1.00
C789   C     0.14032   0.29200   0.91431   0.00000  Uiso   1.00
N790   N     0.12569   0.27615   0.94626   0.00000  Uiso   1.00
Br791  Br    0.14851   0.28906   0.72801   0.00000  Uiso   1.00
Br792  Br    0.18482   0.04427   0.93866   0.00000  Uiso   1.00
Br793  Br    0.08779   0.10187   0.71190   0.00000  Uiso   1.00
Br794  Br    0.24554   0.23146   0.95477   0.00000  Uiso   1.00
C795   C     0.09665   0.11513   0.94158   0.00000  Uiso   1.00
N796   N     0.06712   0.09390   0.91844   0.00000  Uiso   1.00
C797   C     0.23668   0.21821   0.72508   0.00000  Uiso   1.00
N798   N     0.26621   0.23943   0.74822   0.00000  Uiso   1.00
C799   C     0.50351   0.08760   0.83400   0.00000  Uiso   1.00
C800   C     0.49649   0.24573   0.83267   0.00000  Uiso   1.00
C801   C     0.40140   0.16603   0.82150   0.00000  Uiso   1.00
C802   C     0.59860   0.16730   0.84517   0.00000  Uiso   1.00
C803   C     0.34644   0.16011   0.81636   0.00000  Uiso   1.00
C804   C     0.65356   0.17323   0.85031   0.00000  Uiso   1.00
C805   C     0.50860   0.02142   0.79263   0.00000  Uiso   1.00
C806   C     0.49140   0.31191   0.87404   0.00000  Uiso   1.00
C807   C     0.49790   0.31276   0.79026   0.00000  Uiso   1.00
C808   C     0.50210   0.02058   0.87641   0.00000  Uiso   1.00
C809   C     0.49348   0.29052   0.83189   0.00000  Uiso   1.00
C810   C     0.50652   0.04281   0.83478   0.00000  Uiso   1.00
C811   C     0.46689   0.14093   0.68696   0.00000  Uiso   1.00
C812   C     0.53311   0.19240   0.97970   0.00000  Uiso   1.00
C813   C     0.46653   0.14142   0.97084   0.00000  Uiso   1.00
C814   C     0.53347   0.19192   0.69583   0.00000  Uiso   1.00
Cu815  Cu    0.50000   0.16667   0.88022   0.00000  Uiso   1.00
Cu816  Cu    0.50000   0.16666   0.78645   0.00000  Uiso   1.00
N817   N     0.50001   0.16668   0.95069   0.00000  Uiso   1.00
N818   N     0.49999   0.16666   0.71597   0.00000  Uiso   1.00
O819   O     0.50000   0.10655   0.87291   0.00000  Uiso   1.00
O820   O     0.50000   0.22678   0.79375   0.00000  Uiso   1.00
O821   O     0.50000   0.10654   0.79372   0.00000  Uiso   1.00
O822   O     0.50000   0.22679   0.87294   0.00000  Uiso   1.00
O823   O     0.42495   0.16667   0.86379   0.00000  Uiso   1.00
O824   O     0.57505   0.16666   0.80288   0.00000  Uiso   1.00
O825   O     0.42494   0.16666   0.78460   0.00000  Uiso   1.00
O826   O     0.57506   0.16667   0.88207   0.00000  Uiso   1.00
Br827  Br    0.64980   0.12513   0.76468   0.00000  Uiso   1.00
Br828  Br    0.35020   0.20820   0.90198   0.00000  Uiso   1.00
C829   C     0.52635   0.04133   0.75235   0.00000  Uiso   1.00
N830   N     0.54098   0.05718   0.72040   0.00000  Uiso   1.00
C831   C     0.47365   0.29200   0.91431   0.00000  Uiso   1.00
N832   N     0.45902   0.27615   0.94626   0.00000  Uiso   1.00
Br833  Br    0.48184   0.28906   0.72801   0.00000  Uiso   1.00
Br834  Br    0.51816   0.04427   0.93866   0.00000  Uiso   1.00
Br835  Br    0.42113   0.10187   0.71190   0.00000  Uiso   1.00
Br836  Br    0.57887   0.23146   0.95477   0.00000  Uiso   1.00
C837   C     0.42998   0.11513   0.94158   0.00000  Uiso   1.00
N838   N     0.40045   0.09390   0.91844   0.00000  Uiso   1.00
C839   C     0.57002   0.21821   0.72508   0.00000  Uiso   1.00
N840   N     0.59954   0.23943   0.74822   0.00000  Uiso   1.00
C841   C     0.83684   0.08760   0.83400   0.00000  Uiso   1.00
C842   C     0.82982   0.24573   0.83267   0.00000  Uiso   1.00
C843   C     0.73473   0.16603   0.82150   0.00000  Uiso   1.00
C844   C     0.93194   0.16730   0.84517   0.00000  Uiso   1.00
C845   C     0.67977   0.16011   0.81636   0.00000  Uiso   1.00
C846   C     0.98689   0.17323   0.85031   0.00000  Uiso   1.00
C847   C     0.84194   0.02142   0.79263   0.00000  Uiso   1.00
C848   C     0.82473   0.31191   0.87404   0.00000  Uiso   1.00
C849   C     0.83124   0.31276   0.79026   0.00000  Uiso   1.00
C850   C     0.83543   0.02058   0.87641   0.00000  Uiso   1.00
C851   C     0.82681   0.29052   0.83189   0.00000  Uiso   1.00
C852   C     0.83985   0.04281   0.83478   0.00000  Uiso   1.00
C853   C     0.80022   0.14093   0.68696   0.00000  Uiso   1.00
C854   C     0.86645   0.19240   0.97970   0.00000  Uiso   1.00
C855   C     0.79987   0.14142   0.97084   0.00000  Uiso   1.00
C856   C     0.86680   0.19192   0.69583   0.00000  Uiso   1.00
Cu857  Cu    0.83333   0.16667   0.88022   0.00000  Uiso   1.00
Cu858  Cu    0.83333   0.16666   0.78645   0.00000  Uiso   1.00
N859   N     0.83335   0.16668   0.95069   0.00000  Uiso   1.00
N860   N     0.83332   0.16666   0.71597   0.00000  Uiso   1.00
O861   O     0.83333   0.10655   0.87291   0.00000  Uiso   1.00
O862   O     0.83334   0.22678   0.79375   0.00000  Uiso   1.00
O863   O     0.83333   0.10654   0.79372   0.00000  Uiso   1.00
O864   O     0.83334   0.22679   0.87294   0.00000  Uiso   1.00
O865   O     0.75828   0.16667   0.86379   0.00000  Uiso   1.00
O866   O     0.90839   0.16666   0.80288   0.00000  Uiso   1.00
O867   O     0.75828   0.16666   0.78460   0.00000  Uiso   1.00
O868   O     0.90839   0.16667   0.88207   0.00000  Uiso   1.00
Br869  Br    0.98313   0.12513   0.76468   0.00000  Uiso   1.00
Br870  Br    0.68354   0.20820   0.90198   0.00000  Uiso   1.00
C871   C     0.85968   0.04133   0.75235   0.00000  Uiso   1.00
N872   N     0.87431   0.05718   0.72040   0.00000  Uiso   1.00
C873   C     0.80698   0.29200   0.91431   0.00000  Uiso   1.00
N874   N     0.79236   0.27615   0.94626   0.00000  Uiso   1.00
Br875  Br    0.81518   0.28906   0.72801   0.00000  Uiso   1.00
Br876  Br    0.85149   0.04427   0.93866   0.00000  Uiso   1.00
Br877  Br    0.75446   0.10187   0.71190   0.00000  Uiso   1.00
Br878  Br    0.91221   0.23146   0.95477   0.00000  Uiso   1.00
C879   C     0.76332   0.11513   0.94158   0.00000  Uiso   1.00
N880   N     0.73379   0.09390   0.91844   0.00000  Uiso   1.00
C881   C     0.90335   0.21821   0.72508   0.00000  Uiso   1.00
N882   N     0.93288   0.23943   0.74822   0.00000  Uiso   1.00
C883   C     0.17018   0.42093   0.83400   0.00000  Uiso   1.00
C884   C     0.16316   0.57906   0.83267   0.00000  Uiso   1.00
C885   C     0.06806   0.49936   0.82150   0.00000  Uiso   1.00
C886   C     0.26527   0.50064   0.84517   0.00000  Uiso   1.00
C887   C     0.01310   0.49344   0.81636   0.00000  Uiso   1.00
C888   C     0.32023   0.50656   0.85031   0.00000  Uiso   1.00
C889   C     0.17527   0.35476   0.79263   0.00000  Uiso   1.00
C890   C     0.15806   0.64524   0.87404   0.00000  Uiso   1.00
C891   C     0.16457   0.64609   0.79026   0.00000  Uiso   1.00
C892   C     0.16876   0.35391   0.87641   0.00000  Uiso   1.00
C893   C     0.16015   0.62385   0.83189   0.00000  Uiso   1.00
C894   C     0.17319   0.37615   0.83478   0.00000  Uiso   1.00
C895   C     0.13355   0.47427   0.68696   0.00000  Uiso   1.00
C896   C     0.19978   0.52573   0.97970   0.00000  Uiso   1.00
C897   C     0.13320   0.47475   0.97084   0.00000  Uiso   1.00
C898   C     0.20013   0.52525   0.69583   0.00000  Uiso   1.00
Cu899  Cu    0.16667   0.50001   0.88022   0.00000  Uiso   1.00
Cu900  Cu    0.16667   0.49999   0.78645   0.00000  Uiso   1.00
N901   N     0.16668   0.50001   0.95069   0.00000  Uiso   1.00
N902   N     0.16665   0.49999   0.71597   0.00000  Uiso   1.00
O903   O     0.16666   0.43989   0.87291   0.00000  Uiso   1.00
O904   O     0.16667   0.56011   0.79375   0.00000  Uiso   1.00
O905   O     0.16666   0.43988   0.79372   0.00000  Uiso   1.00
O906   O     0.16667   0.56012   0.87294   0.00000  Uiso   1.00
O907   O     0.09161   0.50000   0.86379   0.00000  Uiso   1.00
O908   O     0.24172   0.50000   0.80288   0.00000  Uiso   1.00
O909   O     0.09161   0.49999   0.78460   0.00000  Uiso   1.00
O910   O     0.24172   0.50001   0.88207   0.00000  Uiso   1.00
Br911  Br    0.31646   0.45846   0.76468   0.00000  Uiso   1.00
Br912  Br    0.01687   0.54154   0.90198   0.00000  Uiso   1.00
C913   C     0.19302   0.37466   0.75235   0.00000  Uiso   1.00
N914   N     0.20764   0.39051   0.72040   0.00000  Uiso   1.00
C915   C     0.14032   0.62534   0.91431   0.00000  Uiso   1.00
N916   N     0.12569   0.60948   0.94626   0.00000  Uiso   1.00
Br917  Br    0.14851   0.62239   0.72801   0.00000  Uiso   1.00
Br918  Br    0.18482   0.37761   0.93866   0.00000  Uiso   1.00
Br919  Br    0.08779   0.43521   0.71190   0.00000  Uiso   1.00
Br920  Br    0.24554   0.56479   0.95477   0.00000  Uiso   1.00
C921   C     0.09665   0.44846   0.94158   0.00000  Uiso   1.00
N922   N     0.06712   0.42724   0.91844   0.00000  Uiso   1.00
C923   C     0.23668   0.55154   0.72508   0.00000  Uiso   1.00
N924   N     0.26621   0.57276   0.74822   0.00000  Uiso   1.00
C925   C     0.50351   0.42093   0.83400   0.00000  Uiso   1.00
C926   C     0.49649   0.57906   0.83267   0.00000  Uiso   1.00
C927   C     0.40140   0.49936   0.82150   0.00000  Uiso   1.00
C928   C     0.59860   0.50064   0.84517   0.00000  Uiso   1.00
C929   C     0.34644   0.49344   0.81636   0.00000  Uiso   1.00
C930   C     0.65356   0.50656   0.85031   0.00000  Uiso   1.00
C931   C     0.50860   0.35476   0.79263   0.00000  Uiso   1.00
C932   C     0.49140   0.64524   0.87404   0.00000  Uiso   1.00
C933   C     0.49790   0.64609   0.79026   0.00000  Uiso   1.00
C934   C     0.50210   0.35391   0.87641   0.00000  Uiso   1.00
C935   C     0.49348   0.62385   0.83189   0.00000  Uiso   1.00
C936   C     0.50652   0.37615   0.83478   0.00000  Uiso   1.00
C937   C     0.46689   0.47427   0.68696   0.00000  Uiso   1.00
C938   C     0.53311   0.52573   0.97970   0.00000  Uiso   1.00
C939   C     0.46653   0.47475   0.97084   0.00000  Uiso   1.00
C940   C     0.53347   0.52525   0.69583   0.00000  Uiso   1.00
Cu941  Cu    0.50000   0.50001   0.88022   0.00000  Uiso   1.00
Cu942  Cu    0.50000   0.49999   0.78645   0.00000  Uiso   1.00
N943   N     0.50001   0.50001   0.95069   0.00000  Uiso   1.00
N944   N     0.49999   0.49999   0.71597   0.00000  Uiso   1.00
O945   O     0.50000   0.43989   0.87291   0.00000  Uiso   1.00
O946   O     0.50000   0.56011   0.79375   0.00000  Uiso   1.00
O947   O     0.50000   0.43988   0.79372   0.00000  Uiso   1.00
O948   O     0.50000   0.56012   0.87294   0.00000  Uiso   1.00
O949   O     0.42495   0.50000   0.86379   0.00000  Uiso   1.00
O950   O     0.57505   0.50000   0.80288   0.00000  Uiso   1.00
O951   O     0.42494   0.49999   0.78460   0.00000  Uiso   1.00
O952   O     0.57506   0.50001   0.88207   0.00000  Uiso   1.00
Br953  Br    0.64980   0.45846   0.76468   0.00000  Uiso   1.00
Br954  Br    0.35020   0.54154   0.90198   0.00000  Uiso   1.00
C955   C     0.52635   0.37466   0.75235   0.00000  Uiso   1.00
N956   N     0.54098   0.39051   0.72040   0.00000  Uiso   1.00
C957   C     0.47365   0.62534   0.91431   0.00000  Uiso   1.00
N958   N     0.45902   0.60948   0.94626   0.00000  Uiso   1.00
Br959  Br    0.48184   0.62239   0.72801   0.00000  Uiso   1.00
Br960  Br    0.51816   0.37761   0.93866   0.00000  Uiso   1.00
Br961  Br    0.42113   0.43521   0.71190   0.00000  Uiso   1.00
Br962  Br    0.57887   0.56479   0.95477   0.00000  Uiso   1.00
C963   C     0.42998   0.44846   0.94158   0.00000  Uiso   1.00
N964   N     0.40045   0.42724   0.91844   0.00000  Uiso   1.00
C965   C     0.57002   0.55154   0.72508   0.00000  Uiso   1.00
N966   N     0.59954   0.57276   0.74822   0.00000  Uiso   1.00
C967   C     0.83684   0.42093   0.83400   0.00000  Uiso   1.00
C968   C     0.82982   0.57906   0.83267   0.00000  Uiso   1.00
C969   C     0.73473   0.49936   0.82150   0.00000  Uiso   1.00
C970   C     0.93194   0.50064   0.84517   0.00000  Uiso   1.00
C971   C     0.67977   0.49344   0.81636   0.00000  Uiso   1.00
C972   C     0.98689   0.50656   0.85031   0.00000  Uiso   1.00
C973   C     0.84194   0.35476   0.79263   0.00000  Uiso   1.00
C974   C     0.82473   0.64524   0.87404   0.00000  Uiso   1.00
C975   C     0.83124   0.64609   0.79026   0.00000  Uiso   1.00
C976   C     0.83543   0.35391   0.87641   0.00000  Uiso   1.00
C977   C     0.82681   0.62385   0.83189   0.00000  Uiso   1.00
C978   C     0.83985   0.37615   0.83478   0.00000  Uiso   1.00
C979   C     0.80022   0.47427   0.68696   0.00000  Uiso   1.00
C980   C     0.86645   0.52573   0.97970   0.00000  Uiso   1.00
C981   C     0.79987   0.47475   0.97084   0.00000  Uiso   1.00
C982   C     0.86680   0.52525   0.69583   0.00000  Uiso   1.00
Cu983  Cu    0.83333   0.50001   0.88022   0.00000  Uiso   1.00
Cu984  Cu    0.83333   0.49999   0.78645   0.00000  Uiso   1.00
N985   N     0.83335   0.50001   0.95069   0.00000  Uiso   1.00
N986   N     0.83332   0.49999   0.71597   0.00000  Uiso   1.00
O987   O     0.83333   0.43989   0.87291   0.00000  Uiso   1.00
O988   O     0.83334   0.56011   0.79375   0.00000  Uiso   1.00
O989   O     0.83333   0.43988   0.79372   0.00000  Uiso   1.00
O990   O     0.83334   0.56012   0.87294   0.00000  Uiso   1.00
O991   O     0.75828   0.50000   0.86379   0.00000  Uiso   1.00
O992   O     0.90839   0.50000   0.80288   0.00000  Uiso   1.00
O993   O     0.75828   0.49999   0.78460   0.00000  Uiso   1.00
O994   O     0.90839   0.50001   0.88207   0.00000  Uiso   1.00
Br995  Br    0.98313   0.45846   0.76468   0.00000  Uiso   1.00
Br996  Br    0.68354   0.54154   0.90198   0.00000  Uiso   1.00
C997   C     0.85968   0.37466   0.75235   0.00000  Uiso   1.00
N998   N     0.87431   0.39051   0.72040   0.00000  Uiso   1.00
C999   C     0.80698   0.62534   0.91431   0.00000  Uiso   1.00
N1000  N     0.79236   0.60948   0.94626   0.00000  Uiso   1.00
Br1001 Br    0.81518   0.62239   0.72801   0.00000  Uiso   1.00
Br1002 Br    0.85149   0.37761   0.93866   0.00000  Uiso   1.00
Br1003 Br    0.75446   0.43521   0.71190   0.00000  Uiso   1.00
Br1004 Br    0.91221   0.56479   0.95477   0.00000  Uiso   1.00
C1005  C     0.76332   0.44846   0.94158   0.00000  Uiso   1.00
N1006  N     0.73379   0.42724   0.91844   0.00000  Uiso   1.00
C1007  C     0.90335   0.55154   0.72508   0.00000  Uiso   1.00
N1008  N     0.93288   0.57276   0.74822   0.00000  Uiso   1.00
C1009  C     0.17018   0.75427   0.83400   0.00000  Uiso   1.00
C1010  C     0.16316   0.91240   0.83267   0.00000  Uiso   1.00
C1011  C     0.06806   0.83269   0.82150   0.00000  Uiso   1.00
C1012  C     0.26527   0.83397   0.84517   0.00000  Uiso   1.00
C1013  C     0.01310   0.82677   0.81636   0.00000  Uiso   1.00
C1014  C     0.32023   0.83989   0.85031   0.00000  Uiso   1.00
C1015  C     0.17527   0.68809   0.79263   0.00000  Uiso   1.00
C1016  C     0.15806   0.97858   0.87404   0.00000  Uiso   1.00
C1017  C     0.16457   0.97942   0.79026   0.00000  Uiso   1.00
C1018  C     0.16876   0.68724   0.87641   0.00000  Uiso   1.00
C1019  C     0.16015   0.95719   0.83189   0.00000  Uiso   1.00
C1020  C     0.17319   0.70948   0.83478   0.00000  Uiso   1.00
C1021  C     0.13355   0.80760   0.68696   0.00000  Uiso   1.00
C1022  C     0.19978   0.85906   0.97970   0.00000  Uiso   1.00
C1023  C     0.13320   0.80808   0.97084   0.00000  Uiso   1.00
C1024  C     0.20013   0.85858   0.69583   0.00000  Uiso   1.00
Cu1025 Cu    0.16667   0.83334   0.88022   0.00000  Uiso   1.00
Cu1026 Cu    0.16667   0.83333   0.78645   0.00000  Uiso   1.00
N1027  N     0.16668   0.83334   0.95069   0.00000  Uiso   1.00
N1028  N     0.16665   0.83332   0.71597   0.00000  Uiso   1.00
O1029  O     0.16666   0.77322   0.87291   0.00000  Uiso   1.00
O1030  O     0.16667   0.89345   0.79375   0.00000  Uiso   1.00
O1031  O     0.16666   0.77321   0.79372   0.00000  Uiso   1.00
O1032  O     0.16667   0.89346   0.87294   0.00000  Uiso   1.00
O1033  O     0.09161   0.83334   0.86379   0.00000  Uiso   1.00
O1034  O     0.24172   0.83333   0.80288   0.00000  Uiso   1.00
O1035  O     0.09161   0.83333   0.78460   0.00000  Uiso   1.00
O1036  O     0.24172   0.83334   0.88207   0.00000  Uiso   1.00
Br1037 Br    0.31646   0.79180   0.76468   0.00000  Uiso   1.00
Br1038 Br    0.01687   0.87487   0.90198   0.00000  Uiso   1.00
C1039  C     0.19302   0.70800   0.75235   0.00000  Uiso   1.00
N1040  N     0.20764   0.72385   0.72040   0.00000  Uiso   1.00
C1041  C     0.14032   0.95867   0.91431   0.00000  Uiso   1.00
N1042  N     0.12569   0.94282   0.94626   0.00000  Uiso   1.00
Br1043 Br    0.14851   0.95573   0.72801   0.00000  Uiso   1.00
Br1044 Br    0.18482   0.71094   0.93866   0.00000  Uiso   1.00
Br1045 Br    0.08779   0.76854   0.71190   0.00000  Uiso   1.00
Br1046 Br    0.24554   0.89813   0.95477   0.00000  Uiso   1.00
C1047  C     0.09665   0.78179   0.94158   0.00000  Uiso   1.00
N1048  N     0.06712   0.76057   0.91844   0.00000  Uiso   1.00
C1049  C     0.23668   0.88487   0.72508   0.00000  Uiso   1.00
N1050  N     0.26621   0.90609   0.74822   0.00000  Uiso   1.00
C1051  C     0.50351   0.75427   0.83400   0.00000  Uiso   1.00
C1052  C     0.49649   0.91240   0.83267   0.00000  Uiso   1.00
C1053  C     0.40140   0.83269   0.82150   0.00000  Uiso   1.00
C1054  C     0.59860   0.83397   0.84517   0.00000  Uiso   1.00
C1055  C     0.34644   0.82677   0.81636   0.00000  Uiso   1.00
C1056  C     0.65356   0.83989   0.85031   0.00000  Uiso   1.00
C1057  C     0.50860   0.68809   0.79263   0.00000  Uiso   1.00
C1058  C     0.49140   0.97858   0.87404   0.00000  Uiso   1.00
C1059  C     0.49790   0.97942   0.79026   0.00000  Uiso   1.00
C1060  C     0.50210   0.68724   0.87641   0.00000  Uiso   1.00
C1061  C     0.49348   0.95719   0.83189   0.00000  Uiso   1.00
C1062  C     0.50652   0.70948   0.83478   0.00000  Uiso   1.00
C1063  C     0.46689   0.80760   0.68696   0.00000  Uiso   1.00
C1064  C     0.53311   0.85906   0.97970   0.00000  Uiso   1.00
C1065  C     0.46653   0.80808   0.97084   0.00000  Uiso   1.00
C1066  C     0.53347   0.85858   0.69583   0.00000  Uiso   1.00
Cu1067 Cu    0.50000   0.83334   0.88022   0.00000  Uiso   1.00
Cu1068 Cu    0.50000   0.83333   0.78645   0.00000  Uiso   1.00
N1069  N     0.50001   0.83334   0.95069   0.00000  Uiso   1.00
N1070  N     0.49999   0.83332   0.71597   0.00000  Uiso   1.00
O1071  O     0.50000   0.77322   0.87291   0.00000  Uiso   1.00
O1072  O     0.50000   0.89345   0.79375   0.00000  Uiso   1.00
O1073  O     0.50000   0.77321   0.79372   0.00000  Uiso   1.00
O1074  O     0.50000   0.89346   0.87294   0.00000  Uiso   1.00
O1075  O     0.42495   0.83334   0.86379   0.00000  Uiso   1.00
O1076  O     0.57505   0.83333   0.80288   0.00000  Uiso   1.00
O1077  O     0.42494   0.83333   0.78460   0.00000  Uiso   1.00
O1078  O     0.57506   0.83334   0.88207   0.00000  Uiso   1.00
Br1079 Br    0.64980   0.79180   0.76468   0.00000  Uiso   1.00
Br1080 Br    0.35020   0.87487   0.90198   0.00000  Uiso   1.00
C1081  C     0.52635   0.70800   0.75235   0.00000  Uiso   1.00
N1082  N     0.54098   0.72385   0.72040   0.00000  Uiso   1.00
C1083  C     0.47365   0.95867   0.91431   0.00000  Uiso   1.00
N1084  N     0.45902   0.94282   0.94626   0.00000  Uiso   1.00
Br1085 Br    0.48184   0.95573   0.72801   0.00000  Uiso   1.00
Br1086 Br    0.51816   0.71094   0.93866   0.00000  Uiso   1.00
Br1087 Br    0.42113   0.76854   0.71190   0.00000  Uiso   1.00
Br1088 Br    0.57887   0.89813   0.95477   0.00000  Uiso   1.00
C1089  C     0.42998   0.78179   0.94158   0.00000  Uiso   1.00
N1090  N     0.40045   0.76057   0.91844   0.00000  Uiso   1.00
C1091  C     0.57002   0.88487   0.72508   0.00000  Uiso   1.00
N1092  N     0.59954   0.90609   0.74822   0.00000  Uiso   1.00
C1093  C     0.83684   0.75427   0.83400   0.00000  Uiso   1.00
C1094  C     0.82982   0.91240   0.83267   0.00000  Uiso   1.00
C1095  C     0.73473   0.83269   0.82150   0.00000  Uiso   1.00
C1096  C     0.93194   0.83397   0.84517   0.00000  Uiso   1.00
C1097  C     0.67977   0.82677   0.81636   0.00000  Uiso   1.00
C1098  C     0.98689   0.83989   0.85031   0.00000  Uiso   1.00
C1099  C     0.84194   0.68809   0.79263   0.00000  Uiso   1.00
C1100  C     0.82473   0.97858   0.87404   0.00000  Uiso   1.00
C1101  C     0.83124   0.97942   0.79026   0.00000  Uiso   1.00
C1102  C     0.83543   0.68724   0.87641   0.00000  Uiso   1.00
C1103  C     0.82681   0.95719   0.83189   0.00000  Uiso   1.00
C1104  C     0.83985   0.70948   0.83478   0.00000  Uiso   1.00
C1105  C     0.80022   0.80760   0.68696   0.00000  Uiso   1.00
C1106  C     0.86645   0.85906   0.97970   0.00000  Uiso   1.00
C1107  C     0.79987   0.80808   0.97084   0.00000  Uiso   1.00
C1108  C     0.86680   0.85858   0.69583   0.00000  Uiso   1.00
Cu1109 Cu    0.83333   0.83334   0.88022   0.00000  Uiso   1.00
Cu1110 Cu    0.83333   0.83333   0.78645   0.00000  Uiso   1.00
N1111  N     0.83335   0.83334   0.95069   0.00000  Uiso   1.00
N1112  N     0.83332   0.83332   0.71597   0.00000  Uiso   1.00
O1113  O     0.83333   0.77322   0.87291   0.00000  Uiso   1.00
O1114  O     0.83334   0.89345   0.79375   0.00000  Uiso   1.00
O1115  O     0.83333   0.77321   0.79372   0.00000  Uiso   1.00
O1116  O     0.83334   0.89346   0.87294   0.00000  Uiso   1.00
O1117  O     0.75828   0.83334   0.86379   0.00000  Uiso   1.00
O1118  O     0.90839   0.83333   0.80288   0.00000  Uiso   1.00
O1119  O     0.75828   0.83333   0.78460   0.00000  Uiso   1.00
O1120  O     0.90839   0.83334   0.88207   0.00000  Uiso   1.00
Br1121 Br    0.98313   0.79180   0.76468   0.00000  Uiso   1.00
Br1122 Br    0.68354   0.87487   0.90198   0.00000  Uiso   1.00
C1123  C     0.85968   0.70800   0.75235   0.00000  Uiso   1.00
N1124  N     0.87431   0.72385   0.72040   0.00000  Uiso   1.00
C1125  C     0.80698   0.95867   0.91431   0.00000  Uiso   1.00
N1126  N     0.79236   0.94282   0.94626   0.00000  Uiso   1.00
Br1127 Br    0.81518   0.95573   0.72801   0.00000  Uiso   1.00
Br1128 Br    0.85149   0.71094   0.93866   0.00000  Uiso   1.00
Br1129 Br    0.75446   0.76854   0.71190   0.00000  Uiso   1.00
Br1130 Br    0.91221   0.89813   0.95477   0.00000  Uiso   1.00
C1131  C     0.76332   0.78179   0.94158   0.00000  Uiso   1.00
N1132  N     0.73379   0.76057   0.91844   0.00000  Uiso   1.00
C1133  C     0.90335   0.88487   0.72508   0.00000  Uiso   1.00
N1134  N     0.93288   0.90609   0.74822   0.00000  Uiso   1.00
loop_
_geom_bond_atom_site_label_1
_geom_bond_atom_site_label_2
_geom_bond_distance
_geom_bond_site_symmetry_2
_ccdc_geom_bond_type
C1     O21     1.300   .     A
C1     C12     1.475   .     S
C1     O23     1.306   .     A
C2     O22     1.300   .     A
C2     C11     1.475   .     S
C2     O24     1.306   .     A
C3     O27     1.303   .     A
C3     O25     1.287   .     A
C3     C5      1.441   .     S
C4     O26     1.287   .     A
C4     O28     1.303   .     A
C4     C6      1.441   .     S
C5     C90     1.357   1_455 S
C5     Br113   1.937   1_455 S
C6     C47     1.357   .     S
C6     Br72    1.937   .     S
C7     C12     1.413   .     A
C7     C31     1.450   .     S
C7     C261    1.392   1_545 S
C8     C11     1.413   .     A
C8     C33     1.450   .     S
C8     C136    1.392   .     S
C9     C11     1.415   .     A
C9     Br35    1.939   .     S
C9     C133    1.392   .     S
C10    C12     1.415   .     A
C10    Br36    1.939   .     S
C10    C260    1.392   1_545 S
C13    N20     1.379   .     A
C13    Br37    1.922   .     S
C13    C771    1.422   1_554 S
C14    Br38    1.922   .     S
C14    N19     1.379   .     A
C14    C394    1.422   .     S
C15    N19     1.367   .     A
C15    C39     1.442   .     S
C15    C391    1.422   .     S
C16    N20     1.367   .     A
C16    C41     1.442   .     S
C16    C770    1.422   1_554 S
Cu17   Cu18    2.698   .     S
Cu17   O25     1.971   .     S
Cu17   O24     1.981   .     S
Cu17   N19     2.028   .     S
Cu17   O28     1.974   .     S
Cu17   O21     1.984   .     S
Cu18   N20     2.028   .     S
Cu18   O26     1.971   .     S
Cu18   O23     1.981   .     S
Cu18   O22     1.984   .     S
Cu18   O27     1.974   .     S
Br29   C47     1.937   .     S
Br30   C90     1.937   1_455 S
C31    N32     1.157   .     T
C33    N34     1.157   .     T
C39    N40     1.158   .     T
C41    N42     1.158   .     T
C43    O63     1.300   .     A
C43    C54     1.475   .     S
C43    O65     1.306   .     A
C44    O64     1.300   .     A
C44    C53     1.475   .     S
C44    O66     1.306   .     A
C45    O69     1.303   .     A
C45    O67     1.287   .     A
C45    C47     1.441   .     S
C46    O68     1.287   .     A
C46    O70     1.303   .     A
C46    C48     1.441   .     S
C48    C89     1.357   .     S
C48    Br114   1.937   .     S
C49    C54     1.413   .     A
C49    C73     1.450   .     S
C49    C303    1.392   1_545 S
C50    C53     1.413   .     A
C50    C75     1.450   .     S
C50    C178    1.392   .     S
C51    C53     1.415   .     A
C51    Br77    1.939   .     S
C51    C175    1.392   .     S
C52    C54     1.415   .     A
C52    Br78    1.939   .     S
C52    C302    1.392   1_545 S
C55    N62     1.379   .     A
C55    Br79    1.922   .     S
C55    C813    1.422   1_554 S
C56    Br80    1.922   .     S
C56    N61     1.379   .     A
C56    C436    1.422   .     S
C57    N61     1.367   .     A
C57    C81     1.442   .     S
C57    C433    1.422   .     S
C58    N62     1.367   .     A
C58    C83     1.442   .     S
C58    C812    1.422   1_554 S
Cu59   Cu60    2.698   .     S
Cu59   O67     1.971   .     S
Cu59   O66     1.981   .     S
Cu59   N61     2.028   .     S
Cu59   O70     1.974   .     S
Cu59   O63     1.984   .     S
Cu60   N62     2.028   .     S
Cu60   O68     1.971   .     S
Cu60   O65     1.981   .     S
Cu60   O64     1.984   .     S
Cu60   O69     1.974   .     S
Br71   C89     1.937   .     S
C73    N74     1.157   .     T
C75    N76     1.157   .     T
C81    N82     1.158   .     T
C83    N84     1.158   .     T
C85    O105    1.300   .     A
C85    C96     1.475   .     S
C85    O107    1.306   .     A
C86    O106    1.300   .     A
C86    C95     1.475   .     S
C86    O108    1.306   .     A
C87    O111    1.303   .     A
C87    O109    1.287   .     A
C87    C89     1.441   .     S
C88    O110    1.287   .     A
C88    O112    1.303   .     A
C88    C90     1.441   .     S
C90    C5      1.357   1_655 S
C90    Br30    1.937   1_655 S
C91    C96     1.413   .     A
C91    C115    1.450   .     S
C91    C345    1.392   1_545 S
C92    C95     1.413   .     A
C92    C117    1.450   .     S
C92    C220    1.392   .     S
C93    C95     1.415   .     A
C93    Br119   1.939   .     S
C93    C217    1.392   .     S
C94    C96     1.415   .     A
C94    Br120   1.939   .     S
C94    C344    1.392   1_545 S
C97    N104    1.379   .     A
C97    Br121   1.922   .     S
C97    C855    1.422   1_554 S
C98    Br122   1.922   .     S
C98    N103    1.379   .     A
C98    C478    1.422   .     S
C99    N103    1.367   .     A
C99    C123    1.442   .     S
C99    C475    1.422   .     S
C100   N104    1.367   .     A
C100   C125    1.442   .     S
C100   C854    1.422   1_554 S
Cu101  Cu102   2.698   .     S
Cu101  O109    1.971   .     S
Cu101  O108    1.981   .     S
Cu101  N103    2.028   .     S
Cu101  O112    1.974   .     S
Cu101  O105    1.984   .     S
Cu102  N104    2.028   .     S
Cu102  O110    1.971   .     S
Cu102  O107    1.981   .     S
Cu102  O106    1.984   .     S
Cu102  O111    1.974   .     S
Br113  C5      1.937   1_655 S
C115   N116    1.157   .     T
C117   N118    1.157   .     T
C123   N124    1.158   .     T
C125   N126    1.158   .     T
C127   O147    1.300   .     A
C127   C138    1.475   .     S
C127   O149    1.306   .     A
C128   O148    1.300   .     A
C128   C137    1.475   .     S
C128   O150    1.306   .     A
C129   O153    1.303   .     A
C129   O151    1.287   .     A
C129   C131    1.441   .     S
C130   O152    1.287   .     A
C130   O154    1.303   .     A
C130   C132    1.441   .     S
C131   C216    1.357   1_455 S
C131   Br239   1.937   1_455 S
C132   C173    1.357   .     S
C132   Br198   1.937   .     S
C133   C138    1.413   .     A
C133   C157    1.450   .     S
C134   C137    1.413   .     A
C134   C159    1.450   .     S
C134   C262    1.392   .     S
C135   C137    1.415   .     A
C135   Br161   1.939   .     S
C135   C259    1.392   .     S
C136   C138    1.415   .     A
C136   Br162   1.939   .     S
C139   N146    1.379   .     A
C139   Br163   1.922   .     S
C139   C897    1.422   1_554 S
C140   Br164   1.922   .     S
C140   N145    1.379   .     A
C140   C520    1.422   .     S
C141   N145    1.367   .     A
C141   C165    1.442   .     S
C141   C517    1.422   .     S
C142   N146    1.367   .     A
C142   C167    1.442   .     S
C142   C896    1.422   1_554 S
Cu143  Cu144   2.698   .     S
Cu143  O151    1.971   .     S
Cu143  O150    1.981   .     S
Cu143  N145    2.028   .     S
Cu143  O154    1.974   .     S
Cu143  O147    1.984   .     S
Cu144  N146    2.028   .     S
Cu144  O152    1.971   .     S
Cu144  O149    1.981   .     S
Cu144  O148    1.984   .     S
Cu144  O153    1.974   .     S
Br155  C173    1.937   .     S
Br156  C216    1.937   1_455 S
C157   N158    1.157   .     T
C159   N160    1.157   .     T
C165   N166    1.158   .     T
C167   N168    1.158   .     T
C169   O189    1.300   .     A
C169   C180    1.475   .     S
C169   O191    1.306   .     A
C170   O190    1.300   .     A
C170   C179    1.475   .     S
C170   O192    1.306   .     A
C171   O195    1.303   .     A
C171   O193    1.287   .     A
C171   C173    1.441   .     S
C172   O194    1.287   .     A
C172   O196    1.303   .     A
C172   C174    1.441   .     S
C174   C215    1.357   .     S
C174   Br240   1.937   .     S
C175   C180    1.413   .     A
C175   C199    1.450   .     S
C176   C179    1.413   .     A
C176   C201    1.450   .     S
C176   C304    1.392   .     S
C177   C179    1.415   .     A
C177   Br203   1.939   .     S
C177   C301    1.392   .     S
C178   C180    1.415   .     A
C178   Br204   1.939   .     S
C181   N188    1.379   .     A
C181   Br205   1.922   .     S
C181   C939    1.422   1_554 S
C182   Br206   1.922   .     S
C182   N187    1.379   .     A
C182   C562    1.422   .     S
C183   N187    1.367   .     A
C183   C207    1.442   .     S
C183   C559    1.422   .     S
C184   N188    1.367   .     A
C184   C209    1.442   .     S
C184   C938    1.422   1_554 S
Cu185  Cu186   2.698   .     S
Cu185  O193    1.971   .     S
Cu185  O192    1.981   .     S
Cu185  N187    2.028   .     S
Cu185  O196    1.974   .     S
Cu185  O189    1.984   .     S
Cu186  N188    2.028   .     S
Cu186  O194    1.971   .     S
Cu186  O191    1.981   .     S
Cu186  O190    1.984   .     S
Cu186  O195    1.974   .     S
Br197  C215    1.937   .     S
C199   N200    1.157   .     T
C201   N202    1.157   .     T
C207   N208    1.158   .     T
C209   N210    1.158   .     T
C211   O231    1.300   .     A
C211   C222    1.475   .     S
C211   O233    1.306   .     A
C212   O232    1.300   .     A
C212   C221    1.475   .     S
C212   O234    1.306   .     A
C213   O237    1.303   .     A
C213   O235    1.287   .     A
C213   C215    1.441   .     S
C214   O236    1.287   .     A
C214   O238    1.303   .     A
C214   C216    1.441   .     S
C216   C131    1.357   1_655 S
C216   Br156   1.937   1_655 S
C217   C222    1.413   .     A
C217   C241    1.450   .     S
C218   C221    1.413   .     A
C218   C243    1.450   .     S
C218   C346    1.392   .     S
C219   C221    1.415   .     A
C219   Br245   1.939   .     S
C219   C343    1.392   .     S
C220   C222    1.415   .     A
C220   Br246   1.939   .     S
C223   N230    1.379   .     A
C223   Br247   1.922   .     S
C223   C981    1.422   1_554 S
C224   Br248   1.922   .     S
C224   N229    1.379   .     A
C224   C604    1.422   .     S
C225   N229    1.367   .     A
C225   C249    1.442   .     S
C225   C601    1.422   .     S
C226   N230    1.367   .     A
C226   C251    1.442   .     S
C226   C980    1.422   1_554 S
Cu227  Cu228   2.698   .     S
Cu227  O235    1.971   .     S
Cu227  O234    1.981   .     S
Cu227  N229    2.028   .     S
Cu227  O238    1.974   .     S
Cu227  O231    1.984   .     S
Cu228  N230    2.028   .     S
Cu228  O236    1.971   .     S
Cu228  O233    1.981   .     S
Cu228  O232    1.984   .     S
Cu228  O237    1.974   .     S
Br239  C131    1.937   1_655 S
C241   N242    1.157   .     T
C243   N244    1.157   .     T
C249   N250    1.158   .     T
C251   N252    1.158   .     T
C253   O273    1.300   .     A
C253   C264    1.475   .     S
C253   O275    1.306   .     A
C254   O274    1.300   .     A
C254   C263    1.475   .     S
C254   O276    1.306   .     A
C255   O279    1.303   .     A
C255   O277    1.287   .     A
C255   C257    1.441   .     S
C256   O278    1.287   .     A
C256   O280    1.303   .     A
C256   C258    1.441   .     S
C257   C342    1.357   1_455 S
C257   Br365   1.937   1_455 S
C258   C299    1.357   .     S
C258   Br324   1.937   .     S
C259   C264    1.413   .     A
C259   C283    1.450   .     S
C260   C263    1.413   .     A
C260   C285    1.450   .     S
C260   C10     1.392   1_565 S
C261   C263    1.415   .     A
C261   Br287   1.939   .     S
C261   C7      1.392   1_565 S
C262   C264    1.415   .     A
C262   Br288   1.939   .     S
C265   N272    1.379   .     A
C265   Br289   1.922   .     S
C265   C1023   1.422   1_554 S
C266   Br290   1.922   .     S
C266   N271    1.379   .     A
C266   C646    1.422   .     S
C267   N271    1.367   .     A
C267   C291    1.442   .     S
C267   C643    1.422   .     S
C268   N272    1.367   .     A
C268   C293    1.442   .     S
C268   C1022   1.422   1_554 S
Cu269  Cu270   2.698   .     S
Cu269  O277    1.971   .     S
Cu269  O276    1.981   .     S
Cu269  N271    2.028   .     S
Cu269  O280    1.974   .     S
Cu269  O273    1.984   .     S
Cu270  N272    2.028   .     S
Cu270  O278    1.971   .     S
Cu270  O275    1.981   .     S
Cu270  O274    1.984   .     S
Cu270  O279    1.974   .     S
Br281  C299    1.937   .     S
Br282  C342    1.937   1_455 S
C283   N284    1.157   .     T
C285   N286    1.157   .     T
C291   N292    1.158   .     T
C293   N294    1.158   .     T
C295   O315    1.300   .     A
C295   C306    1.475   .     S
C295   O317    1.306   .     A
C296   O316    1.300   .     A
C296   C305    1.475   .     S
C296   O318    1.306   .     A
C297   O321    1.303   .     A
C297   O319    1.287   .     A
C297   C299    1.441   .     S
C298   O320    1.287   .     A
C298   O322    1.303   .     A
C298   C300    1.441   .     S
C300   C341    1.357   .     S
C300   Br366   1.937   .     S
C301   C306    1.413   .     A
C301   C325    1.450   .     S
C302   C305    1.413   .     A
C302   C327    1.450   .     S
C302   C52     1.392   1_565 S
C303   C305    1.415   .     A
C303   Br329   1.939   .     S
C303   C49     1.392   1_565 S
C304   C306    1.415   .     A
C304   Br330   1.939   .     S
C307   N314    1.379   .     A
C307   Br331   1.922   .     S
C307   C1065   1.422   1_554 S
C308   Br332   1.922   .     S
C308   N313    1.379   .     A
C308   C688    1.422   .     S
C309   N313    1.367   .     A
C309   C333    1.442   .     S
C309   C685    1.422   .     S
C310   N314    1.367   .     A
C310   C335    1.442   .     S
C310   C1064   1.422   1_554 S
Cu311  Cu312   2.698   .     S
Cu311  O319    1.971   .     S
Cu311  O318    1.981   .     S
Cu311  N313    2.028   .     S
Cu311  O322    1.974   .     S
Cu311  O315    1.984   .     S
Cu312  N314    2.028   .     S
Cu312  O320    1.971   .     S
Cu312  O317    1.981   .     S
Cu312  O316    1.984   .     S
Cu312  O321    1.974   .     S
Br323  C341    1.937   .     S
C325   N326    1.157   .     T
C327   N328    1.157   .     T
C333   N334    1.158   .     T
C335   N336    1.158   .     T
C337   O357    1.300   .     A
C337   C348    1.475   .     S
C337   O359    1.306   .     A
C338   O358    1.300   .     A
C338   C347    1.475   .     S
C338   O360    1.306   .     A
C339   O363    1.303   .     A
C339   O361    1.287   .     A
C339   C341    1.441   .     S
C340   O362    1.287   .     A
C340   O364    1.303   .     A
C340   C342    1.441   .     S
C342   C257    1.357   1_655 S
C342   Br282   1.937   1_655 S
C343   C348    1.413   .     A
C343   C367    1.450   .     S
C344   C347    1.413   .     A
C344   C369    1.450   .     S
C344   C94     1.392   1_565 S
C345   C347    1.415   .     A
C345   Br371   1.939   .     S
C345   C91     1.392   1_565 S
C346   C348    1.415   .     A
C346   Br372   1.939   .     S
C349   N356    1.379   .     A
C349   Br373   1.922   .     S
C349   C1107   1.422   1_554 S
C350   Br374   1.922   .     S
C350   N355    1.379   .     A
C350   C730    1.422   .     S
C351   N355    1.367   .     A
C351   C375    1.442   .     S
C351   C727    1.422   .     S
C352   N356    1.367   .     A
C352   C377    1.442   .     S
C352   C1106   1.422   1_554 S
Cu353  Cu354   2.698   .     S
Cu353  O361    1.971   .     S
Cu353  O360    1.981   .     S
Cu353  N355    2.028   .     S
Cu353  O364    1.974   .     S
Cu353  O357    1.984   .     S
Cu354  N356    2.028   .     S
Cu354  O362    1.971   .     S
Cu354  O359    1.981   .     S
Cu354  O358    1.984   .     S
Cu354  O363    1.974   .     S
Br365  C257    1.937   1_655 S
C367   N368    1.157   .     T
C369   N370    1.157   .     T
C375   N376    1.158   .     T
C377   N378    1.158   .     T
C379   O399    1.300   .     A
C379   C390    1.475   .     S
C379   O401    1.306   .     A
C380   O400    1.300   .     A
C380   C389    1.475   .     S
C380   O402    1.306   .     A
C381   O405    1.303   .     A
C381   O403    1.287   .     A
C381   C383    1.441   .     S
C382   O404    1.287   .     A
C382   O406    1.303   .     A
C382   C384    1.441   .     S
C383   C468    1.357   1_455 S
C383   Br491   1.937   1_455 S
C384   C425    1.357   .     S
C384   Br450   1.937   .     S
C385   C390    1.413   .     A
C385   C409    1.450   .     S
C385   C639    1.392   1_545 S
C386   C389    1.413   .     A
C386   C411    1.450   .     S
C386   C514    1.392   .     S
C387   C389    1.415   .     A
C387   Br413   1.939   .     S
C387   C511    1.392   .     S
C388   C390    1.415   .     A
C388   Br414   1.939   .     S
C388   C638    1.392   1_545 S
C391   N398    1.379   .     A
C391   Br415   1.922   .     S
C392   Br416   1.922   .     S
C392   N397    1.379   .     A
C392   C772    1.422   .     S
C393   N397    1.367   .     A
C393   C417    1.442   .     S
C393   C769    1.422   .     S
C394   N398    1.367   .     A
C394   C419    1.442   .     S
Cu395  Cu396   2.698   .     S
Cu395  O403    1.971   .     S
Cu395  O402    1.981   .     S
Cu395  N397    2.028   .     S
Cu395  O406    1.974   .     S
Cu395  O399    1.984   .     S
Cu396  N398    2.028   .     S
Cu396  O404    1.971   .     S
Cu396  O401    1.981   .     S
Cu396  O400    1.984   .     S
Cu396  O405    1.974   .     S
Br407  C425    1.937   .     S
Br408  C468    1.937   1_455 S
C409   N410    1.157   .     T
C411   N412    1.157   .     T
C417   N418    1.158   .     T
C419   N420    1.158   .     T
C421   O441    1.300   .     A
C421   C432    1.475   .     S
C421   O443    1.306   .     A
C422   O442    1.300   .     A
C422   C431    1.475   .     S
C422   O444    1.306   .     A
C423   O447    1.303   .     A
C423   O445    1.287   .     A
C423   C425    1.441   .     S
C424   O446    1.287   .     A
C424   O448    1.303   .     A
C424   C426    1.441   .     S
C426   C467    1.357   .     S
C426   Br492   1.937   .     S
C427   C432    1.413   .     A
C427   C451    1.450   .     S
C427   C681    1.392   1_545 S
C428   C431    1.413   .     A
C428   C453    1.450   .     S
C428   C556    1.392   .     S
C429   C431    1.415   .     A
C429   Br455   1.939   .     S
C429   C553    1.392   .     S
C430   C432    1.415   .     A
C430   Br456   1.939   .     S
C430   C680    1.392   1_545 S
C433   N440    1.379   .     A
C433   Br457   1.922   .     S
C434   Br458   1.922   .     S
C434   N439    1.379   .     A
C434   C814    1.422   .     S
C435   N439    1.367   .     A
C435   C459    1.442   .     S
C435   C811    1.422   .     S
C436   N440    1.367   .     A
C436   C461    1.442   .     S
Cu437  Cu438   2.698   .     S
Cu437  O445    1.971   .     S
Cu437  O444    1.981   .     S
Cu437  N439    2.028   .     S
Cu437  O448    1.974   .     S
Cu437  O441    1.984   .     S
Cu438  N440    2.028   .     S
Cu438  O446    1.971   .     S
Cu438  O443    1.981   .     S
Cu438  O442    1.984   .     S
Cu438  O447    1.974   .     S
Br449  C467    1.937   .     S
C451   N452    1.157   .     T
C453   N454    1.157   .     T
C459   N460    1.158   .     T
C461   N462    1.158   .     T
C463   O483    1.300   .     A
C463   C474    1.475   .     S
C463   O485    1.306   .     A
C464   O484    1.300   .     A
C464   C473    1.475   .     S
C464   O486    1.306   .     A
C465   O489    1.303   .     A
C465   O487    1.287   .     A
C465   C467    1.441   .     S
C466   O488    1.287   .     A
C466   O490    1.303   .     A
C466   C468    1.441   .     S
C468   C383    1.357   1_655 S
C468   Br408   1.937   1_655 S
C469   C474    1.413   .     A
C469   C493    1.450   .     S
C469   C723    1.392   1_545 S
C470   C473    1.413   .     A
C470   C495    1.450   .     S
C470   C598    1.392   .     S
C471   C473    1.415   .     A
C471   Br497   1.939   .     S
C471   C595    1.392   .     S
C472   C474    1.415   .     A
C472   Br498   1.939   .     S
C472   C722    1.392   1_545 S
C475   N482    1.379   .     A
C475   Br499   1.922   .     S
C476   Br500   1.922   .     S
C476   N481    1.379   .     A
C476   C856    1.422   .     S
C477   N481    1.367   .     A
C477   C501    1.442   .     S
C477   C853    1.422   .     S
C478   N482    1.367   .     A
C478   C503    1.442   .     S
Cu479  Cu480   2.698   .     S
Cu479  O487    1.971   .     S
Cu479  O486    1.981   .     S
Cu479  N481    2.028   .     S
Cu479  O490    1.974   .     S
Cu479  O483    1.984   .     S
Cu480  N482    2.028   .     S
Cu480  O488    1.971   .     S
Cu480  O485    1.981   .     S
Cu480  O484    1.984   .     S
Cu480  O489    1.974   .     S
Br491  C383    1.937   1_655 S
C493   N494    1.157   .     T
C495   N496    1.157   .     T
C501   N502    1.158   .     T
C503   N504    1.158   .     T
C505   O525    1.300   .     A
C505   C516    1.475   .     S
C505   O527    1.306   .     A
C506   O526    1.300   .     A
C506   C515    1.475   .     S
C506   O528    1.306   .     A
C507   O531    1.303   .     A
C507   O529    1.287   .     A
C507   C509    1.441   .     S
C508   O530    1.287   .     A
C508   O532    1.303   .     A
C508   C510    1.441   .     S
C509   C594    1.357   1_455 S
C509   Br617   1.937   1_455 S
C510   C551    1.357   .     S
C510   Br576   1.937   .     S
C511   C516    1.413   .     A
C511   C535    1.450   .     S
C512   C515    1.413   .     A
C512   C537    1.450   .     S
C512   C640    1.392   .     S
C513   C515    1.415   .     A
C513   Br539   1.939   .     S
C513   C637    1.392   .     S
C514   C516    1.415   .     A
C514   Br540   1.939   .     S
C517   N524    1.379   .     A
C517   Br541   1.922   .     S
C518   Br542   1.922   .     S
C518   N523    1.379   .     A
C518   C898    1.422   .     S
C519   N523    1.367   .     A
C519   C543    1.442   .     S
C519   C895    1.422   .     S
C520   N524    1.367   .     A
C520   C545    1.442   .     S
Cu521  Cu522   2.698   .     S
Cu521  O529    1.971   .     S
Cu521  O528    1.981   .     S
Cu521  N523    2.028   .     S
Cu521  O532    1.974   .     S
Cu521  O525    1.984   .     S
Cu522  N524    2.028   .     S
Cu522  O530    1.971   .     S
Cu522  O527    1.981   .     S
Cu522  O526    1.984   .     S
Cu522  O531    1.974   .     S
Br533  C551    1.937   .     S
Br534  C594    1.937   1_455 S
C535   N536    1.157   .     T
C537   N538    1.157   .     T
C543   N544    1.158   .     T
C545   N546    1.158   .     T
C547   O567    1.300   .     A
C547   C558    1.475   .     S
C547   O569    1.306   .     A
C548   O568    1.300   .     A
C548   C557    1.475   .     S
C548   O570    1.306   .     A
C549   O573    1.303   .     A
C549   O571    1.287   .     A
C549   C551    1.441   .     S
C550   O572    1.287   .     A
C550   O574    1.303   .     A
C550   C552    1.441   .     S
C552   C593    1.357   .     S
C552   Br618   1.937   .     S
C553   C558    1.413   .     A
C553   C577    1.450   .     S
C554   C557    1.413   .     A
C554   C579    1.450   .     S
C554   C682    1.392   .     S
C555   C557    1.415   .     A
C555   Br581   1.939   .     S
C555   C679    1.392   .     S
C556   C558    1.415   .     A
C556   Br582   1.939   .     S
C559   N566    1.379   .     A
C559   Br583   1.922   .     S
C560   Br584   1.922   .     S
C560   N565    1.379   .     A
C560   C940    1.422   .     S
C561   N565    1.367   .     A
C561   C585    1.442   .     S
C561   C937    1.422   .     S
C562   N566    1.367   .     A
C562   C587    1.442   .     S
Cu563  Cu564   2.698   .     S
Cu563  O571    1.971   .     S
Cu563  O570    1.981   .     S
Cu563  N565    2.028   .     S
Cu563  O574    1.974   .     S
Cu563  O567    1.984   .     S
Cu564  N566    2.028   .     S
Cu564  O572    1.971   .     S
Cu564  O569    1.981   .     S
Cu564  O568    1.984   .     S
Cu564  O573    1.974   .     S
Br575  C593    1.937   .     S
C577   N578    1.157   .     T
C579   N580    1.157   .     T
C585   N586    1.158   .     T
C587   N588    1.158   .     T
C589   O609    1.300   .     A
C589   C600    1.475   .     S
C589   O611    1.306   .     A
C590   O610    1.300   .     A
C590   C599    1.475   .     S
C590   O612    1.306   .     A
C591   O615    1.303   .     A
C591   O613    1.287   .     A
C591   C593    1.441   .     S
C592   O614    1.287   .     A
C592   O616    1.303   .     A
C592   C594    1.441   .     S
C594   C509    1.357   1_655 S
C594   Br534   1.937   1_655 S
C595   C600    1.413   .     A
C595   C619    1.450   .     S
C596   C599    1.413   .     A
C596   C621    1.450   .     S
C596   C724    1.392   .     S
C597   C599    1.415   .     A
C597   Br623   1.939   .     S
C597   C721    1.392   .     S
C598   C600    1.415   .     A
C598   Br624   1.939   .     S
C601   N608    1.379   .     A
C601   Br625   1.922   .     S
C602   Br626   1.922   .     S
C602   N607    1.379   .     A
C602   C982    1.422   .     S
C603   N607    1.367   .     A
C603   C627    1.442   .     S
C603   C979    1.422   .     S
C604   N608    1.367   .     A
C604   C629    1.442   .     S
Cu605  Cu606   2.698   .     S
Cu605  O613    1.971   .     S
Cu605  O612    1.981   .     S
Cu605  N607    2.028   .     S
Cu605  O616    1.974   .     S
Cu605  O609    1.984   .     S
Cu606  N608    2.028   .     S
Cu606  O614    1.971   .     S
Cu606  O611    1.981   .     S
Cu606  O610    1.984   .     S
Cu606  O615    1.974   .     S
Br617  C509    1.937   1_655 S
C619   N620    1.157   .     T
C621   N622    1.157   .     T
C627   N628    1.158   .     T
C629   N630    1.158   .     T
C631   O651    1.300   .     A
C631   C642    1.475   .     S
C631   O653    1.306   .     A
C632   O652    1.300   .     A
C632   C641    1.475   .     S
C632   O654    1.306   .     A
C633   O657    1.303   .     A
C633   O655    1.287   .     A
C633   C635    1.441   .     S
C634   O656    1.287   .     A
C634   O658    1.303   .     A
C634   C636    1.441   .     S
C635   C720    1.357   1_455 S
C635   Br743   1.937   1_455 S
C636   C677    1.357   .     S
C636   Br702   1.937   .     S
C637   C642    1.413   .     A
C637   C661    1.450   .     S
C638   C641    1.413   .     A
C638   C663    1.450   .     S
C638   C388    1.392   1_565 S
C639   C641    1.415   .     A
C639   Br665   1.939   .     S
C639   C385    1.392   1_565 S
C640   C642    1.415   .     A
C640   Br666   1.939   .     S
C643   N650    1.379   .     A
C643   Br667   1.922   .     S
C644   Br668   1.922   .     S
C644   N649    1.379   .     A
C644   C1024   1.422   .     S
C645   N649    1.367   .     A
C645   C669    1.442   .     S
C645   C1021   1.422   .     S
C646   N650    1.367   .     A
C646   C671    1.442   .     S
Cu647  Cu648   2.698   .     S
Cu647  O655    1.971   .     S
Cu647  O654    1.981   .     S
Cu647  N649    2.028   .     S
Cu647  O658    1.974   .     S
Cu647  O651    1.984   .     S
Cu648  N650    2.028   .     S
Cu648  O656    1.971   .     S
Cu648  O653    1.981   .     S
Cu648  O652    1.984   .     S
Cu648  O657    1.974   .     S
Br659  C677    1.937   .     S
Br660  C720    1.937   1_455 S
C661   N662    1.157   .     T
C663   N664    1.157   .     T
C669   N670    1.158   .     T
C671   N672    1.158   .     T
C673   O693    1.300   .     A
C673   C684    1.475   .     S
C673   O695    1.306   .     A
C674   O694    1.300   .     A
C674   C683    1.475   .     S
C674   O696    1.306   .     A
C675   O699    1.303   .     A
C675   O697    1.287   .     A
C675   C677    1.441   .     S
C676   O698    1.287   .     A
C676   O700    1.303   .     A
C676   C678    1.441   .     S
C678   C719    1.357   .     S
C678   Br744   1.937   .     S
C679   C684    1.413   .     A
C679   C703    1.450   .     S
C680   C683    1.413   .     A
C680   C705    1.450   .     S
C680   C430    1.392   1_565 S
C681   C683    1.415   .     A
C681   Br707   1.939   .     S
C681   C427    1.392   1_565 S
C682   C684    1.415   .     A
C682   Br708   1.939   .     S
C685   N692    1.379   .     A
C685   Br709   1.922   .     S
C686   Br710   1.922   .     S
C686   N691    1.379   .     A
C686   C1066   1.422   .     S
C687   N691    1.367   .     A
C687   C711    1.442   .     S
C687   C1063   1.422   .     S
C688   N692    1.367   .     A
C688   C713    1.442   .     S
Cu689  Cu690   2.698   .     S
Cu689  O697    1.971   .     S
Cu689  O696    1.981   .     S
Cu689  N691    2.028   .     S
Cu689  O700    1.974   .     S
Cu689  O693    1.984   .     S
Cu690  N692    2.028   .     S
Cu690  O698    1.971   .     S
Cu690  O695    1.981   .     S
Cu690  O694    1.984   .     S
Cu690  O699    1.974   .     S
Br701  C719    1.937   .     S
C703   N704    1.157   .     T
C705   N706    1.157   .     T
C711   N712    1.158   .     T
C713   N714    1.158   .     T
C715   O735    1.300   .     A
C715   C726    1.475   .     S
C715   O737    1.306   .     A
C716   O736    1.300   .     A
C716   C725    1.475   .     S
C716   O738    1.306   .     A
C717   O741    1.303   .     A
C717   O739    1.287   .     A
C717   C719    1.441   .     S
C718   O740    1.287   .     A
C718   O742    1.303   .     A
C718   C720    1.441   .     S
C720   C635    1.357   1_655 S
C720   Br660   1.937   1_655 S
C721   C726    1.413   .     A
C721   C745    1.450   .     S
C722   C725    1.413   .     A
C722   C747    1.450   .     S
C722   C472    1.392   1_565 S
C723   C725    1.415   .     A
C723   Br749   1.939   .     S
C723   C469    1.392   1_565 S
C724   C726    1.415   .     A
C724   Br750   1.939   .     S
C727   N734    1.379   .     A
C727   Br751   1.922   .     S
C728   Br752   1.922   .     S
C728   N733    1.379   .     A
C728   C1108   1.422   .     S
C729   N733    1.367   .     A
C729   C753    1.442   .     S
C729   C1105   1.422   .     S
C730   N734    1.367   .     A
C730   C755    1.442   .     S
Cu731  Cu732   2.698   .     S
Cu731  O739    1.971   .     S
Cu731  O738    1.981   .     S
Cu731  N733    2.028   .     S
Cu731  O742    1.974   .     S
Cu731  O735    1.984   .     S
Cu732  N734    2.028   .     S
Cu732  O740    1.971   .     S
Cu732  O737    1.981   .     S
Cu732  O736    1.984   .     S
Cu732  O741    1.974   .     S
Br743  C635    1.937   1_655 S
C745   N746    1.157   .     T
C747   N748    1.157   .     T
C753   N754    1.158   .     T
C755   N756    1.158   .     T
C757   O777    1.300   .     A
C757   C768    1.475   .     S
C757   O779    1.306   .     A
C758   O778    1.300   .     A
C758   C767    1.475   .     S
C758   O780    1.306   .     A
C759   O783    1.303   .     A
C759   O781    1.287   .     A
C759   C761    1.441   .     S
C760   O782    1.287   .     A
C760   O784    1.303   .     A
C760   C762    1.441   .     S
C761   C846    1.357   1_455 S
C761   Br869   1.937   1_455 S
C762   C803    1.357   .     S
C762   Br828   1.937   .     S
C763   C768    1.413   .     A
C763   C787    1.450   .     S
C763   C1017   1.392   1_545 S
C764   C767    1.413   .     A
C764   C789    1.450   .     S
C764   C892    1.392   .     S
C765   C767    1.415   .     A
C765   Br791   1.939   .     S
C765   C889    1.392   .     S
C766   C768    1.415   .     A
C766   Br792   1.939   .     S
C766   C1016   1.392   1_545 S
C769   N776    1.379   .     A
C769   Br793   1.922   .     S
C770   Br794   1.922   .     S
C770   N775    1.379   .     A
C770   C16     1.422   1_556 S
C771   N775    1.367   .     A
C771   C795    1.442   .     S
C771   C13     1.422   1_556 S
C772   N776    1.367   .     A
C772   C797    1.442   .     S
Cu773  Cu774   2.698   .     S
Cu773  O781    1.971   .     S
Cu773  O780    1.981   .     S
Cu773  N775    2.028   .     S
Cu773  O784    1.974   .     S
Cu773  O777    1.984   .     S
Cu774  N776    2.028   .     S
Cu774  O782    1.971   .     S
Cu774  O779    1.981   .     S
Cu774  O778    1.984   .     S
Cu774  O783    1.974   .     S
Br785  C803    1.937   .     S
Br786  C846    1.937   1_455 S
C787   N788    1.157   .     T
C789   N790    1.157   .     T
C795   N796    1.158   .     T
C797   N798    1.158   .     T
C799   O819    1.300   .     A
C799   C810    1.475   .     S
C799   O821    1.306   .     A
C800   O820    1.300   .     A
C800   C809    1.475   .     S
C800   O822    1.306   .     A
C801   O825    1.303   .     A
C801   O823    1.287   .     A
C801   C803    1.441   .     S
C802   O824    1.287   .     A
C802   O826    1.303   .     A
C802   C804    1.441   .     S
C804   C845    1.357   .     S
C804   Br870   1.937   .     S
C805   C810    1.413   .     A
C805   C829    1.450   .     S
C805   C1059   1.392   1_545 S
C806   C809    1.413   .     A
C806   C831    1.450   .     S
C806   C934    1.392   .     S
C807   C809    1.415   .     A
C807   Br833   1.939   .     S
C807   C931    1.392   .     S
C808   C810    1.415   .     A
C808   Br834   1.939   .     S
C808   C1058   1.392   1_545 S
C811   N818    1.379   .     A
C811   Br835   1.922   .     S
C812   Br836   1.922   .     S
C812   N817    1.379   .     A
C812   C58     1.422   1_556 S
C813   N817    1.367   .     A
C813   C837    1.442   .     S
C813   C55     1.422   1_556 S
C814   N818    1.367   .     A
C814   C839    1.442   .     S
Cu815  Cu816   2.698   .     S
Cu815  O823    1.971   .     S
Cu815  O822    1.981   .     S
Cu815  N817    2.028   .     S
Cu815  O826    1.974   .     S
Cu815  O819    1.984   .     S
Cu816  N818    2.028   .     S
Cu816  O824    1.971   .     S
Cu816  O821    1.981   .     S
Cu816  O820    1.984   .     S
Cu816  O825    1.974   .     S
Br827  C845    1.937   .     S
C829   N830    1.157   .     T
C831   N832    1.157   .     T
C837   N838    1.158   .     T
C839   N840    1.158   .     T
C841   O861    1.300   .     A
C841   C852    1.475   .     S
C841   O863    1.306   .     A
C842   O862    1.300   .     A
C842   C851    1.475   .     S
C842   O864    1.306   .     A
C843   O867    1.303   .     A
C843   O865    1.287   .     A
C843   C845    1.441   .     S
C844   O866    1.287   .     A
C844   O868    1.303   .     A
C844   C846    1.441   .     S
C846   C761    1.357   1_655 S
C846   Br786   1.937   1_655 S
C847   C852    1.413   .     A
C847   C871    1.450   .     S
C847   C1101   1.392   1_545 S
C848   C851    1.413   .     A
C848   C873    1.450   .     S
C848   C976    1.392   .     S
C849   C851    1.415   .     A
C849   Br875   1.939   .     S
C849   C973    1.392   .     S
C850   C852    1.415   .     A
C850   Br876   1.939   .     S
C850   C1100   1.392   1_545 S
C853   N860    1.379   .     A
C853   Br877   1.922   .     S
C854   Br878   1.922   .     S
C854   N859    1.379   .     A
C854   C100    1.422   1_556 S
C855   N859    1.367   .     A
C855   C879    1.442   .     S
C855   C97     1.422   1_556 S
C856   N860    1.367   .     A
C856   C881    1.442   .     S
Cu857  Cu858   2.698   .     S
Cu857  O865    1.971   .     S
Cu857  O864    1.981   .     S
Cu857  N859    2.028   .     S
Cu857  O868    1.974   .     S
Cu857  O861    1.984   .     S
Cu858  N860    2.028   .     S
Cu858  O866    1.971   .     S
Cu858  O863    1.981   .     S
Cu858  O862    1.984   .     S
Cu858  O867    1.974   .     S
Br869  C761    1.937   1_655 S
C871   N872    1.157   .     T
C873   N874    1.157   .     T
C879   N880    1.158   .     T
C881   N882    1.158   .     T
C883   O903    1.300   .     A
C883   C894    1.475   .     S
C883   O905    1.306   .     A
C884   O904    1.300   .     A
C884   C893    1.475   .     S
C884   O906    1.306   .     A
C885   O909    1.303   .     A
C885   O907    1.287   .     A
C885   C887    1.441   .     S
C886   O908    1.287   .     A
C886   O910    1.303   .     A
C886   C888    1.441   .     S
C887   C972    1.357   1_455 S
C887   Br995   1.937   1_455 S
C888   C929    1.357   .     S
C888   Br954   1.937   .     S
C889   C894    1.413   .     A
C889   C913    1.450   .     S
C890   C893    1.413   .     A
C890   C915    1.450   .     S
C890   C1018   1.392   .     S
C891   C893    1.415   .     A
C891   Br917   1.939   .     S
C891   C1015   1.392   .     S
C892   C894    1.415   .     A
C892   Br918   1.939   .     S
C895   N902    1.379   .     A
C895   Br919   1.922   .     S
C896   Br920   1.922   .     S
C896   N901    1.379   .     A
C896   C142    1.422   1_556 S
C897   N901    1.367   .     A
C897   C921    1.442   .     S
C897   C139    1.422   1_556 S
C898   N902    1.367   .     A
C898   C923    1.442   .     S
Cu899  Cu900   2.698   .     S
Cu899  O907    1.971   .     S
Cu899  O906    1.981   .     S
Cu899  N901    2.028   .     S
Cu899  O910    1.974   .     S
Cu899  O903    1.984   .     S
Cu900  N902    2.028   .     S
Cu900  O908    1.971   .     S
Cu900  O905    1.981   .     S
Cu900  O904    1.984   .     S
Cu900  O909    1.974   .     S
Br911  C929    1.937   .     S
Br912  C972    1.937   1_455 S
C913   N914    1.157   .     T
C915   N916    1.157   .     T
C921   N922    1.158   .     T
C923   N924    1.158   .     T
C925   O945    1.300   .     A
C925   C936    1.475   .     S
C925   O947    1.306   .     A
C926   O946    1.300   .     A
C926   C935    1.475   .     S
C926   O948    1.306   .     A
C927   O951    1.303   .     A
C927   O949    1.287   .     A
C927   C929    1.441   .     S
C928   O950    1.287   .     A
C928   O952    1.303   .     A
C928   C930    1.441   .     S
C930   C971    1.357   .     S
C930   Br996   1.937   .     S
C931   C936    1.413   .     A
C931   C955    1.450   .     S
C932   C935    1.413   .     A
C932   C957    1.450   .     S
C932   C1060   1.392   .     S
C933   C935    1.415   .     A
C933   Br959   1.939   .     S
C933   C1057   1.392   .     S
C934   C936    1.415   .     A
C934   Br960   1.939   .     S
C937   N944    1.379   .     A
C937   Br961   1.922   .     S
C938   Br962   1.922   .     S
C938   N943    1.379   .     A
C938   C184    1.422   1_556 S
C939   N943    1.367   .     A
C939   C963    1.442   .     S
C939   C181    1.422   1_556 S
C940   N944    1.367   .     A
C940   C965    1.442   .     S
Cu941  Cu942   2.698   .     S
Cu941  O949    1.971   .     S
Cu941  O948    1.981   .     S
Cu941  N943    2.028   .     S
Cu941  O952    1.974   .     S
Cu941  O945    1.984   .     S
Cu942  N944    2.028   .     S
Cu942  O950    1.971   .     S
Cu942  O947    1.981   .     S
Cu942  O946    1.984   .     S
Cu942  O951    1.974   .     S
Br953  C971    1.937   .     S
C955   N956    1.157   .     T
C957   N958    1.157   .     T
C963   N964    1.158   .     T
C965   N966    1.158   .     T
C967   O987    1.300   .     A
C967   C978    1.475   .     S
C967   O989    1.306   .     A
C968   O988    1.300   .     A
C968   C977    1.475   .     S
C968   O990    1.306   .     A
C969   O993    1.303   .     A
C969   O991    1.287   .     A
C969   C971    1.441   .     S
C970   O992    1.287   .     A
C970   O994    1.303   .     A
C970   C972    1.441   .     S
C972   C887    1.357   1_655 S
C972   Br912   1.937   1_655 S
C973   C978    1.413   .     A
C973   C997    1.450   .     S
C974   C977    1.413   .     A
C974   C999    1.450   .     S
C974   C1102   1.392   .     S
C975   C977    1.415   .     A
C975   Br1001  1.939   .     S
C975   C1099   1.392   .     S
C976   C978    1.415   .     A
C976   Br1002  1.939   .     S
C979   N986    1.379   .     A
C979   Br1003  1.922   .     S
C980   Br1004  1.922   .     S
C980   N985    1.379   .     A
C980   C226    1.422   1_556 S
C981   N985    1.367   .     A
C981   C1005   1.442   .     S
C981   C223    1.422   1_556 S
C982   N986    1.367   .     A
C982   C1007   1.442   .     S
Cu983  Cu984   2.698   .     S
Cu983  O991    1.971   .     S
Cu983  O990    1.981   .     S
Cu983  N985    2.028   .     S
Cu983  O994    1.974   .     S
Cu983  O987    1.984   .     S
Cu984  N986    2.028   .     S
Cu984  O992    1.971   .     S
Cu984  O989    1.981   .     S
Cu984  O988    1.984   .     S
Cu984  O993    1.974   .     S
Br995  C887    1.937   1_655 S
C997   N998    1.157   .     T
C999   N1000   1.157   .     T
C1005  N1006   1.158   .     T
C1007  N1008   1.158   .     T
C1009  O1029   1.300   .     A
C1009  C1020   1.475   .     S
C1009  O1031   1.306   .     A
C1010  O1030   1.300   .     A
C1010  C1019   1.475   .     S
C1010  O1032   1.306   .     A
C1011  O1035   1.303   .     A
C1011  O1033   1.287   .     A
C1011  C1013   1.441   .     S
C1012  O1034   1.287   .     A
C1012  O1036   1.303   .     A
C1012  C1014   1.441   .     S
C1013  C1098   1.357   1_455 S
C1013  Br1121  1.937   1_455 S
C1014  C1055   1.357   .     S
C1014  Br1080  1.937   .     S
C1015  C1020   1.413   .     A
C1015  C1039   1.450   .     S
C1016  C1019   1.413   .     A
C1016  C1041   1.450   .     S
C1016  C766    1.392   1_565 S
C1017  C1019   1.415   .     A
C1017  Br1043  1.939   .     S
C1017  C763    1.392   1_565 S
C1018  C1020   1.415   .     A
C1018  Br1044  1.939   .     S
C1021  N1028   1.379   .     A
C1021  Br1045  1.922   .     S
C1022  Br1046  1.922   .     S
C1022  N1027   1.379   .     A
C1022  C268    1.422   1_556 S
C1023  N1027   1.367   .     A
C1023  C1047   1.442   .     S
C1023  C265    1.422   1_556 S
C1024  N1028   1.367   .     A
C1024  C1049   1.442   .     S
Cu1025 Cu1026  2.698   .     S
Cu1025 O1033   1.971   .     S
Cu1025 O1032   1.981   .     S
Cu1025 N1027   2.028   .     S
Cu1025 O1036   1.974   .     S
Cu1025 O1029   1.984   .     S
Cu1026 N1028   2.028   .     S
Cu1026 O1034   1.971   .     S
Cu1026 O1031   1.981   .     S
Cu1026 O1030   1.984   .     S
Cu1026 O1035   1.974   .     S
Br1037 C1055   1.937   .     S
Br1038 C1098   1.937   1_455 S
C1039  N1040   1.157   .     T
C1041  N1042   1.157   .     T
C1047  N1048   1.158   .     T
C1049  N1050   1.158   .     T
C1051  O1071   1.300   .     A
C1051  C1062   1.475   .     S
C1051  O1073   1.306   .     A
C1052  O1072   1.300   .     A
C1052  C1061   1.475   .     S
C1052  O1074   1.306   .     A
C1053  O1077   1.303   .     A
C1053  O1075   1.287   .     A
C1053  C1055   1.441   .     S
C1054  O1076   1.287   .     A
C1054  O1078   1.303   .     A
C1054  C1056   1.441   .     S
C1056  C1097   1.357   .     S
C1056  Br1122  1.937   .     S
C1057  C1062   1.413   .     A
C1057  C1081   1.450   .     S
C1058  C1061   1.413   .     A
C1058  C1083   1.450   .     S
C1058  C808    1.392   1_565 S
C1059  C1061   1.415   .     A
C1059  Br1085  1.939   .     S
C1059  C805    1.392   1_565 S
C1060  C1062   1.415   .     A
C1060  Br1086  1.939   .     S
C1063  N1070   1.379   .     A
C1063  Br1087  1.922   .     S
C1064  Br1088  1.922   .     S
C1064  N1069   1.379   .     A
C1064  C310    1.422   1_556 S
C1065  N1069   1.367   .     A
C1065  C1089   1.442   .     S
C1065  C307    1.422   1_556 S
C1066  N1070   1.367   .     A
C1066  C1091   1.442   .     S
Cu1067 Cu1068  2.698   .     S
Cu1067 O1075   1.971   .     S
Cu1067 O1074   1.981   .     S
Cu1067 N1069   2.028   .     S
Cu1067 O1078   1.974   .     S
Cu1067 O1071   1.984   .     S
Cu1068 N1070   2.028   .     S
Cu1068 O1076   1.971   .     S
Cu1068 O1073   1.981   .     S
Cu1068 O1072   1.984   .     S
Cu1068 O1077   1.974   .     S
Br1079 C1097   1.937   .     S
C1081  N1082   1.157   .     T
C1083  N1084   1.157   .     T
C1089  N1090   1.158   .     T
C1091  N1092   1.158   .     T
C1093  O1113   1.300   .     A
C1093  C1104   1.475   .     S
C1093  O1115   1.306   .     A
C1094  O1114   1.300   .     A
C1094  C1103   1.475   .     S
C1094  O1116   1.306   .     A
C1095  O1119   1.303   .     A
C1095  O1117   1.287   .     A
C1095  C1097   1.441   .     S
C1096  O1118   1.287   .     A
C1096  O1120   1.303   .     A
C1096  C1098   1.441   .     S
C1098  C1013   1.357   1_655 S
C1098  Br1038  1.937   1_655 S
C1099  C1104   1.413   .     A
C1099  C1123   1.450   .     S
C1100  C1103   1.413   .     A
C1100  C1125   1.450   .     S
C1100  C850    1.392   1_565 S
C1101  C1103   1.415   .     A
C1101  Br1127  1.939   .     S
C1101  C847    1.392   1_565 S
C1102  C1104   1.415   .     A
C1102  Br1128  1.939   .     S
C1105  N1112   1.379   .     A
C1105  Br1129  1.922   .     S
C1106  Br1130  1.922   .     S
C1106  N1111   1.379   .     A
C1106  C352    1.422   1_556 S
C1107  N1111   1.367   .     A
C1107  C1131   1.442   .     S
C1107  C349    1.422   1_556 S
C1108  N1112   1.367   .     A
C1108  C1133   1.442   .     S
Cu1109 Cu1110  2.698   .     S
Cu1109 O1117   1.971   .     S
Cu1109 O1116   1.981   .     S
Cu1109 N1111   2.028   .     S
Cu1109 O1120   1.974   .     S
Cu1109 O1113   1.984   .     S
Cu1110 N1112   2.028   .     S
Cu1110 O1118   1.971   .     S
Cu1110 O1115   1.981   .     S
Cu1110 O1114   1.984   .     S
Cu1110 O1119   1.974   .     S
Br1121 C1013   1.937   1_655 S
C1123  N1124   1.157   .     T
C1125  N1126   1.157   .     T
C1131  N1132   1.158   .     T
C1133  N1134   1.158   .     T
