data_str_m2_o10_o17_pcu_sym.28
_audit_creation_date              2020-01-03
_audit_creation_method            'Materials Studio'
_symmetry_space_group_name_H-M    'P1'
_symmetry_Int_Tables_number       1
_symmetry_cell_setting            triclinic
loop_
_symmetry_equiv_pos_as_xyz
  x,y,z
_cell_length_a                    29.9701
_cell_length_b                    26.0028
_cell_length_c                    22.3460
_cell_angle_alpha                 102.8217
_cell_angle_beta                  94.1409
_cell_angle_gamma                 92.5639
loop_
_atom_site_label
_atom_site_type_symbol
_atom_site_fract_x
_atom_site_fract_y
_atom_site_fract_z
_atom_site_U_iso_or_equiv
_atom_site_adp_type
_atom_site_occupancy
C1     C     0.24864   0.06659   0.15111   0.00000  Uiso   1.00
C2     C     0.09004   0.12127   0.13353   0.00000  Uiso   1.00
C3     C     0.38361   0.16860   0.16462   0.00000  Uiso   1.00
C4     C     0.11639   0.16474   0.16871   0.00000  Uiso   1.00
C5     C     0.40284   0.12539   0.13006   0.00000  Uiso   1.00
C6     C     0.09716   0.20795   0.20327   0.00000  Uiso   1.00
C7     C     0.44916   0.12431   0.13112   0.00000  Uiso   1.00
C8     C     0.05083   0.20903   0.20220   0.00000  Uiso   1.00
C9     C     0.47657   0.16751   0.16661   0.00000  Uiso   1.00
C10    C     0.02343   0.16583   0.16672   0.00000  Uiso   1.00
C11    C     0.45708   0.21224   0.20178   0.00000  Uiso   1.00
C12    C     0.25136   0.26674   0.18222   0.00000  Uiso   1.00
C13    C     0.04292   0.12110   0.13155   0.00000  Uiso   1.00
C14    C     0.46814   0.08029   0.09714   0.00000  Uiso   1.00
C15    C     0.03186   0.25305   0.23618   0.00000  Uiso   1.00
C16    C     0.03636   0.32172   0.08796   0.00000  Uiso   1.00
C17    C     0.46362   0.01161   0.24534   0.00000  Uiso   1.00
C18    C     0.01445   0.07803   0.09655   0.00000  Uiso   1.00
C19    C     0.48555   0.25531   0.23677   0.00000  Uiso   1.00
C20    C     0.24797   0.01063   0.14234   0.00000  Uiso   1.00
C21    C     0.25203   0.32271   0.19100   0.00000  Uiso   1.00
C22    C     0.16453   0.16594   0.16739   0.00000  Uiso   1.00
C23    C     0.33546   0.16740   0.16594   0.00000  Uiso   1.00
C24    C     0.40996   0.21206   0.19980   0.00000  Uiso   1.00
Cu25   Cu    0.25500   0.17246   0.22813   0.00000  Uiso   1.00
Cu26   Cu    0.24499   0.16087   0.10521   0.00000  Uiso   1.00
F27    F     0.38871   0.25400   0.22981   0.00000  Uiso   1.00
F28    F     0.11129   0.07933   0.10353   0.00000  Uiso   1.00
H29    H     0.38155   0.09211   0.10335   0.00000  Uiso   1.00
H30    H     0.04671   0.28725   0.05399   0.00000  Uiso   1.00
H31    H     0.00422   0.31019   0.10477   0.00000  Uiso   1.00
H32    H     0.06247   0.33234   0.12727   0.00000  Uiso   1.00
H33    H     0.44461   0.29458   0.30228   0.00000  Uiso   1.00
H34    H     0.45329   0.04609   0.27931   0.00000  Uiso   1.00
H35    H     0.43749   0.00098   0.20605   0.00000  Uiso   1.00
H36    H     0.49575   0.02313   0.22848   0.00000  Uiso   1.00
H37    H     0.11845   0.24123   0.22997   0.00000  Uiso   1.00
H38    H     0.44675   0.04731   0.07004   0.00000  Uiso   1.00
H39    H     0.05325   0.28603   0.26327   0.00000  Uiso   1.00
H40    H     0.24415   0.32013   0.09544   0.00000  Uiso   1.00
H41    H     0.25585   0.01320   0.23790   0.00000  Uiso   1.00
H42    H     0.21500   0.12583   0.31622   0.00000  Uiso   1.00
H43    H     0.28500   0.20750   0.01712   0.00000  Uiso   1.00
H44    H     0.05540   0.03877   0.03105   0.00000  Uiso   1.00
N45    N     0.23744   0.15214   0.01284   0.00000  Uiso   1.00
N46    N     0.26255   0.18119   0.32049   0.00000  Uiso   1.00
N47    N     0.03075   0.03240   0.05886   0.00000  Uiso   1.00
N48    N     0.46925   0.30095   0.27446   0.00000  Uiso   1.00
O49    O     0.25325   0.09538   0.20659   0.00000  Uiso   1.00
O50    O     0.24674   0.23796   0.12674   0.00000  Uiso   1.00
O51    O     0.24480   0.08559   0.10279   0.00000  Uiso   1.00
O52    O     0.25520   0.24774   0.23055   0.00000  Uiso   1.00
O53    O     0.18935   0.17155   0.21857   0.00000  Uiso   1.00
O54    O     0.31064   0.16179   0.11476   0.00000  Uiso   1.00
O55    O     0.18090   0.16176   0.11477   0.00000  Uiso   1.00
O56    O     0.31910   0.17157   0.21857   0.00000  Uiso   1.00
C57    C     0.74864   0.06659   0.15111   0.00000  Uiso   1.00
C58    C     0.59004   0.12127   0.13353   0.00000  Uiso   1.00
C59    C     0.88361   0.16860   0.16462   0.00000  Uiso   1.00
C60    C     0.61639   0.16474   0.16871   0.00000  Uiso   1.00
C61    C     0.90284   0.12539   0.13006   0.00000  Uiso   1.00
C62    C     0.59716   0.20795   0.20327   0.00000  Uiso   1.00
C63    C     0.94916   0.12431   0.13112   0.00000  Uiso   1.00
C64    C     0.55083   0.20903   0.20220   0.00000  Uiso   1.00
C65    C     0.97657   0.16751   0.16661   0.00000  Uiso   1.00
C66    C     0.52343   0.16583   0.16672   0.00000  Uiso   1.00
C67    C     0.95708   0.21224   0.20178   0.00000  Uiso   1.00
C68    C     0.75136   0.26674   0.18222   0.00000  Uiso   1.00
C69    C     0.54292   0.12110   0.13155   0.00000  Uiso   1.00
C70    C     0.96814   0.08029   0.09714   0.00000  Uiso   1.00
C71    C     0.53186   0.25305   0.23618   0.00000  Uiso   1.00
C72    C     0.53636   0.32172   0.08796   0.00000  Uiso   1.00
C73    C     0.96362   0.01161   0.24534   0.00000  Uiso   1.00
C74    C     0.51445   0.07803   0.09655   0.00000  Uiso   1.00
C75    C     0.98555   0.25531   0.23677   0.00000  Uiso   1.00
C76    C     0.74797   0.01063   0.14234   0.00000  Uiso   1.00
C77    C     0.75203   0.32271   0.19100   0.00000  Uiso   1.00
C78    C     0.66453   0.16594   0.16739   0.00000  Uiso   1.00
C79    C     0.83546   0.16740   0.16594   0.00000  Uiso   1.00
C80    C     0.90996   0.21206   0.19980   0.00000  Uiso   1.00
Cu81   Cu    0.75500   0.17246   0.22813   0.00000  Uiso   1.00
Cu82   Cu    0.74499   0.16087   0.10521   0.00000  Uiso   1.00
F83    F     0.88871   0.25400   0.22981   0.00000  Uiso   1.00
F84    F     0.61129   0.07933   0.10353   0.00000  Uiso   1.00
H85    H     0.88155   0.09211   0.10335   0.00000  Uiso   1.00
H86    H     0.54671   0.28725   0.05399   0.00000  Uiso   1.00
H87    H     0.50422   0.31019   0.10477   0.00000  Uiso   1.00
H88    H     0.56247   0.33234   0.12727   0.00000  Uiso   1.00
H89    H     0.94461   0.29458   0.30228   0.00000  Uiso   1.00
H90    H     0.95329   0.04609   0.27931   0.00000  Uiso   1.00
H91    H     0.93749   0.00098   0.20605   0.00000  Uiso   1.00
H92    H     0.99575   0.02313   0.22848   0.00000  Uiso   1.00
H93    H     0.61845   0.24123   0.22997   0.00000  Uiso   1.00
H94    H     0.94675   0.04731   0.07004   0.00000  Uiso   1.00
H95    H     0.55325   0.28603   0.26327   0.00000  Uiso   1.00
H96    H     0.74415   0.32013   0.09544   0.00000  Uiso   1.00
H97    H     0.75585   0.01320   0.23790   0.00000  Uiso   1.00
H98    H     0.71500   0.12583   0.31622   0.00000  Uiso   1.00
H99    H     0.78500   0.20750   0.01712   0.00000  Uiso   1.00
H100   H     0.55540   0.03877   0.03105   0.00000  Uiso   1.00
N101   N     0.73744   0.15214   0.01284   0.00000  Uiso   1.00
N102   N     0.76255   0.18119   0.32049   0.00000  Uiso   1.00
N103   N     0.53075   0.03240   0.05886   0.00000  Uiso   1.00
N104   N     0.96925   0.30095   0.27446   0.00000  Uiso   1.00
O105   O     0.75325   0.09538   0.20659   0.00000  Uiso   1.00
O106   O     0.74674   0.23796   0.12674   0.00000  Uiso   1.00
O107   O     0.74480   0.08559   0.10279   0.00000  Uiso   1.00
O108   O     0.75520   0.24774   0.23055   0.00000  Uiso   1.00
O109   O     0.68935   0.17155   0.21857   0.00000  Uiso   1.00
O110   O     0.81064   0.16179   0.11476   0.00000  Uiso   1.00
O111   O     0.68090   0.16176   0.11477   0.00000  Uiso   1.00
O112   O     0.81910   0.17157   0.21857   0.00000  Uiso   1.00
C113   C     0.24864   0.39992   0.15111   0.00000  Uiso   1.00
C114   C     0.09004   0.45461   0.13353   0.00000  Uiso   1.00
C115   C     0.38361   0.50193   0.16462   0.00000  Uiso   1.00
C116   C     0.11639   0.49807   0.16871   0.00000  Uiso   1.00
C117   C     0.40284   0.45872   0.13006   0.00000  Uiso   1.00
C118   C     0.09716   0.54128   0.20327   0.00000  Uiso   1.00
C119   C     0.44916   0.45765   0.13112   0.00000  Uiso   1.00
C120   C     0.05083   0.54236   0.20220   0.00000  Uiso   1.00
C121   C     0.47657   0.50084   0.16661   0.00000  Uiso   1.00
C122   C     0.02343   0.49916   0.16672   0.00000  Uiso   1.00
C123   C     0.45708   0.54557   0.20178   0.00000  Uiso   1.00
C124   C     0.25136   0.60008   0.18222   0.00000  Uiso   1.00
C125   C     0.04292   0.45443   0.13155   0.00000  Uiso   1.00
C126   C     0.46814   0.41362   0.09714   0.00000  Uiso   1.00
C127   C     0.03186   0.58639   0.23618   0.00000  Uiso   1.00
C128   C     0.03636   0.65505   0.08796   0.00000  Uiso   1.00
C129   C     0.46362   0.34494   0.24534   0.00000  Uiso   1.00
C130   C     0.01445   0.41136   0.09655   0.00000  Uiso   1.00
C131   C     0.48555   0.58865   0.23677   0.00000  Uiso   1.00
C132   C     0.24797   0.34396   0.14234   0.00000  Uiso   1.00
C133   C     0.25203   0.65604   0.19100   0.00000  Uiso   1.00
C134   C     0.16453   0.49927   0.16739   0.00000  Uiso   1.00
C135   C     0.33546   0.50073   0.16594   0.00000  Uiso   1.00
C136   C     0.40996   0.54539   0.19980   0.00000  Uiso   1.00
Cu137  Cu    0.25500   0.50579   0.22813   0.00000  Uiso   1.00
Cu138  Cu    0.24499   0.49421   0.10521   0.00000  Uiso   1.00
F139   F     0.38871   0.58733   0.22981   0.00000  Uiso   1.00
F140   F     0.11129   0.41267   0.10353   0.00000  Uiso   1.00
H141   H     0.38155   0.42545   0.10335   0.00000  Uiso   1.00
H142   H     0.04671   0.62058   0.05399   0.00000  Uiso   1.00
H143   H     0.00422   0.64352   0.10477   0.00000  Uiso   1.00
H144   H     0.06247   0.66567   0.12727   0.00000  Uiso   1.00
H145   H     0.44461   0.62791   0.30228   0.00000  Uiso   1.00
H146   H     0.45329   0.37942   0.27931   0.00000  Uiso   1.00
H147   H     0.43749   0.33431   0.20605   0.00000  Uiso   1.00
H148   H     0.49575   0.35646   0.22848   0.00000  Uiso   1.00
H149   H     0.11845   0.57456   0.22997   0.00000  Uiso   1.00
H150   H     0.44675   0.38064   0.07004   0.00000  Uiso   1.00
H151   H     0.05325   0.61937   0.26327   0.00000  Uiso   1.00
H152   H     0.24415   0.65347   0.09544   0.00000  Uiso   1.00
H153   H     0.25585   0.34653   0.23790   0.00000  Uiso   1.00
H154   H     0.21500   0.45916   0.31622   0.00000  Uiso   1.00
H155   H     0.28500   0.54084   0.01712   0.00000  Uiso   1.00
H156   H     0.05540   0.37210   0.03105   0.00000  Uiso   1.00
N157   N     0.23744   0.48547   0.01284   0.00000  Uiso   1.00
N158   N     0.26255   0.51453   0.32049   0.00000  Uiso   1.00
N159   N     0.03075   0.36573   0.05886   0.00000  Uiso   1.00
N160   N     0.46925   0.63428   0.27446   0.00000  Uiso   1.00
O161   O     0.25325   0.42871   0.20659   0.00000  Uiso   1.00
O162   O     0.24674   0.57129   0.12674   0.00000  Uiso   1.00
O163   O     0.24480   0.41892   0.10279   0.00000  Uiso   1.00
O164   O     0.25520   0.58108   0.23055   0.00000  Uiso   1.00
O165   O     0.18935   0.50488   0.21857   0.00000  Uiso   1.00
O166   O     0.31064   0.49512   0.11476   0.00000  Uiso   1.00
O167   O     0.18090   0.49510   0.11477   0.00000  Uiso   1.00
O168   O     0.31910   0.50490   0.21857   0.00000  Uiso   1.00
C169   C     0.74864   0.39992   0.15111   0.00000  Uiso   1.00
C170   C     0.59004   0.45461   0.13353   0.00000  Uiso   1.00
C171   C     0.88361   0.50193   0.16462   0.00000  Uiso   1.00
C172   C     0.61639   0.49807   0.16871   0.00000  Uiso   1.00
C173   C     0.90284   0.45872   0.13006   0.00000  Uiso   1.00
C174   C     0.59716   0.54128   0.20327   0.00000  Uiso   1.00
C175   C     0.94916   0.45765   0.13112   0.00000  Uiso   1.00
C176   C     0.55083   0.54236   0.20220   0.00000  Uiso   1.00
C177   C     0.97657   0.50084   0.16661   0.00000  Uiso   1.00
C178   C     0.52343   0.49916   0.16672   0.00000  Uiso   1.00
C179   C     0.95708   0.54557   0.20178   0.00000  Uiso   1.00
C180   C     0.75136   0.60008   0.18222   0.00000  Uiso   1.00
C181   C     0.54292   0.45443   0.13155   0.00000  Uiso   1.00
C182   C     0.96814   0.41362   0.09714   0.00000  Uiso   1.00
C183   C     0.53186   0.58639   0.23618   0.00000  Uiso   1.00
C184   C     0.53636   0.65505   0.08796   0.00000  Uiso   1.00
C185   C     0.96362   0.34494   0.24534   0.00000  Uiso   1.00
C186   C     0.51445   0.41136   0.09655   0.00000  Uiso   1.00
C187   C     0.98555   0.58865   0.23677   0.00000  Uiso   1.00
C188   C     0.74797   0.34396   0.14234   0.00000  Uiso   1.00
C189   C     0.75203   0.65604   0.19100   0.00000  Uiso   1.00
C190   C     0.66453   0.49927   0.16739   0.00000  Uiso   1.00
C191   C     0.83546   0.50073   0.16594   0.00000  Uiso   1.00
C192   C     0.90996   0.54539   0.19980   0.00000  Uiso   1.00
Cu193  Cu    0.75500   0.50579   0.22813   0.00000  Uiso   1.00
Cu194  Cu    0.74499   0.49421   0.10521   0.00000  Uiso   1.00
F195   F     0.88871   0.58733   0.22981   0.00000  Uiso   1.00
F196   F     0.61129   0.41267   0.10353   0.00000  Uiso   1.00
H197   H     0.88155   0.42545   0.10335   0.00000  Uiso   1.00
H198   H     0.54671   0.62058   0.05399   0.00000  Uiso   1.00
H199   H     0.50422   0.64352   0.10477   0.00000  Uiso   1.00
H200   H     0.56247   0.66567   0.12727   0.00000  Uiso   1.00
H201   H     0.94461   0.62791   0.30228   0.00000  Uiso   1.00
H202   H     0.95329   0.37942   0.27931   0.00000  Uiso   1.00
H203   H     0.93749   0.33431   0.20605   0.00000  Uiso   1.00
H204   H     0.99575   0.35646   0.22848   0.00000  Uiso   1.00
H205   H     0.61845   0.57456   0.22997   0.00000  Uiso   1.00
H206   H     0.94675   0.38064   0.07004   0.00000  Uiso   1.00
H207   H     0.55325   0.61937   0.26327   0.00000  Uiso   1.00
H208   H     0.74415   0.65347   0.09544   0.00000  Uiso   1.00
H209   H     0.75585   0.34653   0.23790   0.00000  Uiso   1.00
H210   H     0.71500   0.45916   0.31622   0.00000  Uiso   1.00
H211   H     0.78500   0.54084   0.01712   0.00000  Uiso   1.00
H212   H     0.55540   0.37210   0.03105   0.00000  Uiso   1.00
N213   N     0.73744   0.48547   0.01284   0.00000  Uiso   1.00
N214   N     0.76255   0.51453   0.32049   0.00000  Uiso   1.00
N215   N     0.53075   0.36573   0.05886   0.00000  Uiso   1.00
N216   N     0.96925   0.63428   0.27446   0.00000  Uiso   1.00
O217   O     0.75325   0.42871   0.20659   0.00000  Uiso   1.00
O218   O     0.74674   0.57129   0.12674   0.00000  Uiso   1.00
O219   O     0.74480   0.41892   0.10279   0.00000  Uiso   1.00
O220   O     0.75520   0.58108   0.23055   0.00000  Uiso   1.00
O221   O     0.68935   0.50488   0.21857   0.00000  Uiso   1.00
O222   O     0.81064   0.49512   0.11476   0.00000  Uiso   1.00
O223   O     0.68090   0.49510   0.11477   0.00000  Uiso   1.00
O224   O     0.81910   0.50490   0.21857   0.00000  Uiso   1.00
C225   C     0.24864   0.73326   0.15111   0.00000  Uiso   1.00
C226   C     0.09004   0.78794   0.13353   0.00000  Uiso   1.00
C227   C     0.38361   0.83527   0.16462   0.00000  Uiso   1.00
C228   C     0.11639   0.83140   0.16871   0.00000  Uiso   1.00
C229   C     0.40284   0.79206   0.13006   0.00000  Uiso   1.00
C230   C     0.09716   0.87462   0.20327   0.00000  Uiso   1.00
C231   C     0.44916   0.79098   0.13112   0.00000  Uiso   1.00
C232   C     0.05083   0.87569   0.20220   0.00000  Uiso   1.00
C233   C     0.47657   0.83418   0.16661   0.00000  Uiso   1.00
C234   C     0.02343   0.83249   0.16672   0.00000  Uiso   1.00
C235   C     0.45708   0.87890   0.20178   0.00000  Uiso   1.00
C236   C     0.25136   0.93341   0.18222   0.00000  Uiso   1.00
C237   C     0.04292   0.78777   0.13155   0.00000  Uiso   1.00
C238   C     0.46814   0.74695   0.09714   0.00000  Uiso   1.00
C239   C     0.03186   0.91972   0.23618   0.00000  Uiso   1.00
C240   C     0.03636   0.98839   0.08796   0.00000  Uiso   1.00
C241   C     0.46362   0.67828   0.24534   0.00000  Uiso   1.00
C242   C     0.01445   0.74469   0.09655   0.00000  Uiso   1.00
C243   C     0.48555   0.92198   0.23677   0.00000  Uiso   1.00
C244   C     0.24797   0.67729   0.14234   0.00000  Uiso   1.00
C245   C     0.25203   0.98938   0.19100   0.00000  Uiso   1.00
C246   C     0.16453   0.83260   0.16739   0.00000  Uiso   1.00
C247   C     0.33546   0.83406   0.16594   0.00000  Uiso   1.00
C248   C     0.40996   0.87873   0.19980   0.00000  Uiso   1.00
Cu249  Cu    0.25500   0.83913   0.22813   0.00000  Uiso   1.00
Cu250  Cu    0.24499   0.82754   0.10521   0.00000  Uiso   1.00
F251   F     0.38871   0.92066   0.22981   0.00000  Uiso   1.00
F252   F     0.11129   0.74600   0.10353   0.00000  Uiso   1.00
H253   H     0.38155   0.75878   0.10335   0.00000  Uiso   1.00
H254   H     0.04671   0.95392   0.05399   0.00000  Uiso   1.00
H255   H     0.00422   0.97686   0.10477   0.00000  Uiso   1.00
H256   H     0.06247   0.99901   0.12727   0.00000  Uiso   1.00
H257   H     0.44461   0.96124   0.30228   0.00000  Uiso   1.00
H258   H     0.45329   0.71276   0.27931   0.00000  Uiso   1.00
H259   H     0.43749   0.66765   0.20605   0.00000  Uiso   1.00
H260   H     0.49575   0.68980   0.22848   0.00000  Uiso   1.00
H261   H     0.11845   0.90789   0.22997   0.00000  Uiso   1.00
H262   H     0.44675   0.71398   0.07004   0.00000  Uiso   1.00
H263   H     0.05325   0.95270   0.26327   0.00000  Uiso   1.00
H264   H     0.24415   0.98680   0.09544   0.00000  Uiso   1.00
H265   H     0.25585   0.67987   0.23790   0.00000  Uiso   1.00
H266   H     0.21500   0.79250   0.31622   0.00000  Uiso   1.00
H267   H     0.28500   0.87417   0.01712   0.00000  Uiso   1.00
H268   H     0.05540   0.70544   0.03105   0.00000  Uiso   1.00
N269   N     0.23744   0.81881   0.01284   0.00000  Uiso   1.00
N270   N     0.26255   0.84786   0.32049   0.00000  Uiso   1.00
N271   N     0.03075   0.69906   0.05886   0.00000  Uiso   1.00
N272   N     0.46925   0.96761   0.27446   0.00000  Uiso   1.00
O273   O     0.25325   0.76204   0.20659   0.00000  Uiso   1.00
O274   O     0.24674   0.90462   0.12674   0.00000  Uiso   1.00
O275   O     0.24480   0.75226   0.10279   0.00000  Uiso   1.00
O276   O     0.25520   0.91441   0.23055   0.00000  Uiso   1.00
O277   O     0.18935   0.83821   0.21857   0.00000  Uiso   1.00
O278   O     0.31064   0.82845   0.11476   0.00000  Uiso   1.00
O279   O     0.18090   0.82843   0.11477   0.00000  Uiso   1.00
O280   O     0.31910   0.83824   0.21857   0.00000  Uiso   1.00
C281   C     0.74864   0.73326   0.15111   0.00000  Uiso   1.00
C282   C     0.59004   0.78794   0.13353   0.00000  Uiso   1.00
C283   C     0.88361   0.83527   0.16462   0.00000  Uiso   1.00
C284   C     0.61639   0.83140   0.16871   0.00000  Uiso   1.00
C285   C     0.90284   0.79206   0.13006   0.00000  Uiso   1.00
C286   C     0.59716   0.87462   0.20327   0.00000  Uiso   1.00
C287   C     0.94916   0.79098   0.13112   0.00000  Uiso   1.00
C288   C     0.55083   0.87569   0.20220   0.00000  Uiso   1.00
C289   C     0.97657   0.83418   0.16661   0.00000  Uiso   1.00
C290   C     0.52343   0.83249   0.16672   0.00000  Uiso   1.00
C291   C     0.95708   0.87890   0.20178   0.00000  Uiso   1.00
C292   C     0.75136   0.93341   0.18222   0.00000  Uiso   1.00
C293   C     0.54292   0.78777   0.13155   0.00000  Uiso   1.00
C294   C     0.96814   0.74695   0.09714   0.00000  Uiso   1.00
C295   C     0.53186   0.91972   0.23618   0.00000  Uiso   1.00
C296   C     0.53636   0.98839   0.08796   0.00000  Uiso   1.00
C297   C     0.96362   0.67828   0.24534   0.00000  Uiso   1.00
C298   C     0.51445   0.74469   0.09655   0.00000  Uiso   1.00
C299   C     0.98555   0.92198   0.23677   0.00000  Uiso   1.00
C300   C     0.74797   0.67729   0.14234   0.00000  Uiso   1.00
C301   C     0.75203   0.98938   0.19100   0.00000  Uiso   1.00
C302   C     0.66453   0.83260   0.16739   0.00000  Uiso   1.00
C303   C     0.83546   0.83406   0.16594   0.00000  Uiso   1.00
C304   C     0.90996   0.87873   0.19980   0.00000  Uiso   1.00
Cu305  Cu    0.75500   0.83913   0.22813   0.00000  Uiso   1.00
Cu306  Cu    0.74499   0.82754   0.10521   0.00000  Uiso   1.00
F307   F     0.88871   0.92066   0.22981   0.00000  Uiso   1.00
F308   F     0.61129   0.74600   0.10353   0.00000  Uiso   1.00
H309   H     0.88155   0.75878   0.10335   0.00000  Uiso   1.00
H310   H     0.54671   0.95392   0.05399   0.00000  Uiso   1.00
H311   H     0.50422   0.97686   0.10477   0.00000  Uiso   1.00
H312   H     0.56247   0.99901   0.12727   0.00000  Uiso   1.00
H313   H     0.94461   0.96124   0.30228   0.00000  Uiso   1.00
H314   H     0.95329   0.71276   0.27931   0.00000  Uiso   1.00
H315   H     0.93749   0.66765   0.20605   0.00000  Uiso   1.00
H316   H     0.99575   0.68980   0.22848   0.00000  Uiso   1.00
H317   H     0.61845   0.90789   0.22997   0.00000  Uiso   1.00
H318   H     0.94675   0.71398   0.07004   0.00000  Uiso   1.00
H319   H     0.55325   0.95270   0.26327   0.00000  Uiso   1.00
H320   H     0.74415   0.98680   0.09544   0.00000  Uiso   1.00
H321   H     0.75585   0.67987   0.23790   0.00000  Uiso   1.00
H322   H     0.71500   0.79250   0.31622   0.00000  Uiso   1.00
H323   H     0.78500   0.87417   0.01712   0.00000  Uiso   1.00
H324   H     0.55540   0.70544   0.03105   0.00000  Uiso   1.00
N325   N     0.73744   0.81881   0.01284   0.00000  Uiso   1.00
N326   N     0.76255   0.84786   0.32049   0.00000  Uiso   1.00
N327   N     0.53075   0.69906   0.05886   0.00000  Uiso   1.00
N328   N     0.96925   0.96761   0.27446   0.00000  Uiso   1.00
O329   O     0.75325   0.76204   0.20659   0.00000  Uiso   1.00
O330   O     0.74674   0.90462   0.12674   0.00000  Uiso   1.00
O331   O     0.74480   0.75226   0.10279   0.00000  Uiso   1.00
O332   O     0.75520   0.91441   0.23055   0.00000  Uiso   1.00
O333   O     0.68935   0.83821   0.21857   0.00000  Uiso   1.00
O334   O     0.81064   0.82845   0.11476   0.00000  Uiso   1.00
O335   O     0.68090   0.82843   0.11477   0.00000  Uiso   1.00
O336   O     0.81910   0.83824   0.21857   0.00000  Uiso   1.00
C337   C     0.24864   0.06659   0.48445   0.00000  Uiso   1.00
C338   C     0.09004   0.12127   0.46686   0.00000  Uiso   1.00
C339   C     0.38361   0.16860   0.49796   0.00000  Uiso   1.00
C340   C     0.11639   0.16474   0.50204   0.00000  Uiso   1.00
C341   C     0.40284   0.12539   0.46339   0.00000  Uiso   1.00
C342   C     0.09716   0.20795   0.53661   0.00000  Uiso   1.00
C343   C     0.44916   0.12431   0.46446   0.00000  Uiso   1.00
C344   C     0.05083   0.20903   0.53554   0.00000  Uiso   1.00
C345   C     0.47657   0.16751   0.49994   0.00000  Uiso   1.00
C346   C     0.02343   0.16583   0.50005   0.00000  Uiso   1.00
C347   C     0.45708   0.21224   0.53511   0.00000  Uiso   1.00
C348   C     0.25136   0.26674   0.51555   0.00000  Uiso   1.00
C349   C     0.04292   0.12110   0.46488   0.00000  Uiso   1.00
C350   C     0.46814   0.08029   0.43047   0.00000  Uiso   1.00
C351   C     0.03186   0.25305   0.56952   0.00000  Uiso   1.00
C352   C     0.03636   0.32172   0.42129   0.00000  Uiso   1.00
C353   C     0.46362   0.01161   0.57867   0.00000  Uiso   1.00
C354   C     0.01445   0.07803   0.42989   0.00000  Uiso   1.00
C355   C     0.48555   0.25531   0.57010   0.00000  Uiso   1.00
C356   C     0.24797   0.01063   0.47567   0.00000  Uiso   1.00
C357   C     0.25203   0.32271   0.52433   0.00000  Uiso   1.00
C358   C     0.16453   0.16594   0.50072   0.00000  Uiso   1.00
C359   C     0.33546   0.16740   0.49928   0.00000  Uiso   1.00
C360   C     0.40996   0.21206   0.53314   0.00000  Uiso   1.00
Cu361  Cu    0.25500   0.17246   0.56146   0.00000  Uiso   1.00
Cu362  Cu    0.24499   0.16087   0.43854   0.00000  Uiso   1.00
F363   F     0.38871   0.25400   0.56315   0.00000  Uiso   1.00
F364   F     0.11129   0.07933   0.43686   0.00000  Uiso   1.00
H365   H     0.38155   0.09211   0.43668   0.00000  Uiso   1.00
H366   H     0.04671   0.28725   0.38732   0.00000  Uiso   1.00
H367   H     0.00422   0.31019   0.43810   0.00000  Uiso   1.00
H368   H     0.06247   0.33234   0.46060   0.00000  Uiso   1.00
H369   H     0.44461   0.29458   0.63561   0.00000  Uiso   1.00
H370   H     0.45329   0.04609   0.61264   0.00000  Uiso   1.00
H371   H     0.43749   0.00098   0.53938   0.00000  Uiso   1.00
H372   H     0.49575   0.02313   0.56181   0.00000  Uiso   1.00
H373   H     0.11845   0.24123   0.56331   0.00000  Uiso   1.00
H374   H     0.44675   0.04731   0.40338   0.00000  Uiso   1.00
H375   H     0.05325   0.28603   0.59661   0.00000  Uiso   1.00
H376   H     0.24415   0.32013   0.42877   0.00000  Uiso   1.00
H377   H     0.25585   0.01320   0.57123   0.00000  Uiso   1.00
H378   H     0.21500   0.12583   0.64955   0.00000  Uiso   1.00
H379   H     0.28500   0.20750   0.35045   0.00000  Uiso   1.00
H380   H     0.05540   0.03877   0.36439   0.00000  Uiso   1.00
N381   N     0.23744   0.15214   0.34617   0.00000  Uiso   1.00
N382   N     0.26255   0.18119   0.65383   0.00000  Uiso   1.00
N383   N     0.03075   0.03240   0.39219   0.00000  Uiso   1.00
N384   N     0.46925   0.30095   0.60779   0.00000  Uiso   1.00
O385   O     0.25325   0.09538   0.53992   0.00000  Uiso   1.00
O386   O     0.24674   0.23796   0.46008   0.00000  Uiso   1.00
O387   O     0.24480   0.08559   0.43612   0.00000  Uiso   1.00
O388   O     0.25520   0.24774   0.56388   0.00000  Uiso   1.00
O389   O     0.18935   0.17155   0.55191   0.00000  Uiso   1.00
O390   O     0.31064   0.16179   0.44809   0.00000  Uiso   1.00
O391   O     0.18090   0.16176   0.44810   0.00000  Uiso   1.00
O392   O     0.31910   0.17157   0.55190   0.00000  Uiso   1.00
C393   C     0.74864   0.06659   0.48445   0.00000  Uiso   1.00
C394   C     0.59004   0.12127   0.46686   0.00000  Uiso   1.00
C395   C     0.88361   0.16860   0.49796   0.00000  Uiso   1.00
C396   C     0.61639   0.16474   0.50204   0.00000  Uiso   1.00
C397   C     0.90284   0.12539   0.46339   0.00000  Uiso   1.00
C398   C     0.59716   0.20795   0.53661   0.00000  Uiso   1.00
C399   C     0.94916   0.12431   0.46446   0.00000  Uiso   1.00
C400   C     0.55083   0.20903   0.53554   0.00000  Uiso   1.00
C401   C     0.97657   0.16751   0.49994   0.00000  Uiso   1.00
C402   C     0.52343   0.16583   0.50005   0.00000  Uiso   1.00
C403   C     0.95708   0.21224   0.53511   0.00000  Uiso   1.00
C404   C     0.75136   0.26674   0.51555   0.00000  Uiso   1.00
C405   C     0.54292   0.12110   0.46488   0.00000  Uiso   1.00
C406   C     0.96814   0.08029   0.43047   0.00000  Uiso   1.00
C407   C     0.53186   0.25305   0.56952   0.00000  Uiso   1.00
C408   C     0.53636   0.32172   0.42129   0.00000  Uiso   1.00
C409   C     0.96362   0.01161   0.57867   0.00000  Uiso   1.00
C410   C     0.51445   0.07803   0.42989   0.00000  Uiso   1.00
C411   C     0.98555   0.25531   0.57010   0.00000  Uiso   1.00
C412   C     0.74797   0.01063   0.47567   0.00000  Uiso   1.00
C413   C     0.75203   0.32271   0.52433   0.00000  Uiso   1.00
C414   C     0.66453   0.16594   0.50072   0.00000  Uiso   1.00
C415   C     0.83546   0.16740   0.49928   0.00000  Uiso   1.00
C416   C     0.90996   0.21206   0.53314   0.00000  Uiso   1.00
Cu417  Cu    0.75500   0.17246   0.56146   0.00000  Uiso   1.00
Cu418  Cu    0.74499   0.16087   0.43854   0.00000  Uiso   1.00
F419   F     0.88871   0.25400   0.56315   0.00000  Uiso   1.00
F420   F     0.61129   0.07933   0.43686   0.00000  Uiso   1.00
H421   H     0.88155   0.09211   0.43668   0.00000  Uiso   1.00
H422   H     0.54671   0.28725   0.38732   0.00000  Uiso   1.00
H423   H     0.50422   0.31019   0.43810   0.00000  Uiso   1.00
H424   H     0.56247   0.33234   0.46060   0.00000  Uiso   1.00
H425   H     0.94461   0.29458   0.63561   0.00000  Uiso   1.00
H426   H     0.95329   0.04609   0.61264   0.00000  Uiso   1.00
H427   H     0.93749   0.00098   0.53938   0.00000  Uiso   1.00
H428   H     0.99575   0.02313   0.56181   0.00000  Uiso   1.00
H429   H     0.61845   0.24123   0.56331   0.00000  Uiso   1.00
H430   H     0.94675   0.04731   0.40338   0.00000  Uiso   1.00
H431   H     0.55325   0.28603   0.59661   0.00000  Uiso   1.00
H432   H     0.74415   0.32013   0.42877   0.00000  Uiso   1.00
H433   H     0.75585   0.01320   0.57123   0.00000  Uiso   1.00
H434   H     0.71500   0.12583   0.64955   0.00000  Uiso   1.00
H435   H     0.78500   0.20750   0.35045   0.00000  Uiso   1.00
H436   H     0.55540   0.03877   0.36439   0.00000  Uiso   1.00
N437   N     0.73744   0.15214   0.34617   0.00000  Uiso   1.00
N438   N     0.76255   0.18119   0.65383   0.00000  Uiso   1.00
N439   N     0.53075   0.03240   0.39219   0.00000  Uiso   1.00
N440   N     0.96925   0.30095   0.60779   0.00000  Uiso   1.00
O441   O     0.75325   0.09538   0.53992   0.00000  Uiso   1.00
O442   O     0.74674   0.23796   0.46008   0.00000  Uiso   1.00
O443   O     0.74480   0.08559   0.43612   0.00000  Uiso   1.00
O444   O     0.75520   0.24774   0.56388   0.00000  Uiso   1.00
O445   O     0.68935   0.17155   0.55191   0.00000  Uiso   1.00
O446   O     0.81064   0.16179   0.44809   0.00000  Uiso   1.00
O447   O     0.68090   0.16176   0.44810   0.00000  Uiso   1.00
O448   O     0.81910   0.17157   0.55190   0.00000  Uiso   1.00
C449   C     0.24864   0.39992   0.48445   0.00000  Uiso   1.00
C450   C     0.09004   0.45461   0.46686   0.00000  Uiso   1.00
C451   C     0.38361   0.50193   0.49796   0.00000  Uiso   1.00
C452   C     0.11639   0.49807   0.50204   0.00000  Uiso   1.00
C453   C     0.40284   0.45872   0.46339   0.00000  Uiso   1.00
C454   C     0.09716   0.54128   0.53661   0.00000  Uiso   1.00
C455   C     0.44916   0.45765   0.46446   0.00000  Uiso   1.00
C456   C     0.05083   0.54236   0.53554   0.00000  Uiso   1.00
C457   C     0.47657   0.50084   0.49994   0.00000  Uiso   1.00
C458   C     0.02343   0.49916   0.50005   0.00000  Uiso   1.00
C459   C     0.45708   0.54557   0.53511   0.00000  Uiso   1.00
C460   C     0.25136   0.60008   0.51555   0.00000  Uiso   1.00
C461   C     0.04292   0.45443   0.46488   0.00000  Uiso   1.00
C462   C     0.46814   0.41362   0.43047   0.00000  Uiso   1.00
C463   C     0.03186   0.58639   0.56952   0.00000  Uiso   1.00
C464   C     0.03636   0.65505   0.42129   0.00000  Uiso   1.00
C465   C     0.46362   0.34494   0.57867   0.00000  Uiso   1.00
C466   C     0.01445   0.41136   0.42989   0.00000  Uiso   1.00
C467   C     0.48555   0.58865   0.57010   0.00000  Uiso   1.00
C468   C     0.24797   0.34396   0.47567   0.00000  Uiso   1.00
C469   C     0.25203   0.65604   0.52433   0.00000  Uiso   1.00
C470   C     0.16453   0.49927   0.50072   0.00000  Uiso   1.00
C471   C     0.33546   0.50073   0.49928   0.00000  Uiso   1.00
C472   C     0.40996   0.54539   0.53314   0.00000  Uiso   1.00
Cu473  Cu    0.25500   0.50579   0.56146   0.00000  Uiso   1.00
Cu474  Cu    0.24499   0.49421   0.43854   0.00000  Uiso   1.00
F475   F     0.38871   0.58733   0.56315   0.00000  Uiso   1.00
F476   F     0.11129   0.41267   0.43686   0.00000  Uiso   1.00
H477   H     0.38155   0.42545   0.43668   0.00000  Uiso   1.00
H478   H     0.04671   0.62058   0.38732   0.00000  Uiso   1.00
H479   H     0.00422   0.64352   0.43810   0.00000  Uiso   1.00
H480   H     0.06247   0.66567   0.46060   0.00000  Uiso   1.00
H481   H     0.44461   0.62791   0.63561   0.00000  Uiso   1.00
H482   H     0.45329   0.37942   0.61264   0.00000  Uiso   1.00
H483   H     0.43749   0.33431   0.53938   0.00000  Uiso   1.00
H484   H     0.49575   0.35646   0.56181   0.00000  Uiso   1.00
H485   H     0.11845   0.57456   0.56331   0.00000  Uiso   1.00
H486   H     0.44675   0.38064   0.40338   0.00000  Uiso   1.00
H487   H     0.05325   0.61937   0.59661   0.00000  Uiso   1.00
H488   H     0.24415   0.65347   0.42877   0.00000  Uiso   1.00
H489   H     0.25585   0.34653   0.57123   0.00000  Uiso   1.00
H490   H     0.21500   0.45916   0.64955   0.00000  Uiso   1.00
H491   H     0.28500   0.54084   0.35045   0.00000  Uiso   1.00
H492   H     0.05540   0.37210   0.36439   0.00000  Uiso   1.00
N493   N     0.23744   0.48547   0.34617   0.00000  Uiso   1.00
N494   N     0.26255   0.51453   0.65383   0.00000  Uiso   1.00
N495   N     0.03075   0.36573   0.39219   0.00000  Uiso   1.00
N496   N     0.46925   0.63428   0.60779   0.00000  Uiso   1.00
O497   O     0.25325   0.42871   0.53992   0.00000  Uiso   1.00
O498   O     0.24674   0.57129   0.46008   0.00000  Uiso   1.00
O499   O     0.24480   0.41892   0.43612   0.00000  Uiso   1.00
O500   O     0.25520   0.58108   0.56388   0.00000  Uiso   1.00
O501   O     0.18935   0.50488   0.55191   0.00000  Uiso   1.00
O502   O     0.31064   0.49512   0.44809   0.00000  Uiso   1.00
O503   O     0.18090   0.49510   0.44810   0.00000  Uiso   1.00
O504   O     0.31910   0.50490   0.55190   0.00000  Uiso   1.00
C505   C     0.74864   0.39992   0.48445   0.00000  Uiso   1.00
C506   C     0.59004   0.45461   0.46686   0.00000  Uiso   1.00
C507   C     0.88361   0.50193   0.49796   0.00000  Uiso   1.00
C508   C     0.61639   0.49807   0.50204   0.00000  Uiso   1.00
C509   C     0.90284   0.45872   0.46339   0.00000  Uiso   1.00
C510   C     0.59716   0.54128   0.53661   0.00000  Uiso   1.00
C511   C     0.94916   0.45765   0.46446   0.00000  Uiso   1.00
C512   C     0.55083   0.54236   0.53554   0.00000  Uiso   1.00
C513   C     0.97657   0.50084   0.49994   0.00000  Uiso   1.00
C514   C     0.52343   0.49916   0.50005   0.00000  Uiso   1.00
C515   C     0.95708   0.54557   0.53511   0.00000  Uiso   1.00
C516   C     0.75136   0.60008   0.51555   0.00000  Uiso   1.00
C517   C     0.54292   0.45443   0.46488   0.00000  Uiso   1.00
C518   C     0.96814   0.41362   0.43047   0.00000  Uiso   1.00
C519   C     0.53186   0.58639   0.56952   0.00000  Uiso   1.00
C520   C     0.53636   0.65505   0.42129   0.00000  Uiso   1.00
C521   C     0.96362   0.34494   0.57867   0.00000  Uiso   1.00
C522   C     0.51445   0.41136   0.42989   0.00000  Uiso   1.00
C523   C     0.98555   0.58865   0.57010   0.00000  Uiso   1.00
C524   C     0.74797   0.34396   0.47567   0.00000  Uiso   1.00
C525   C     0.75203   0.65604   0.52433   0.00000  Uiso   1.00
C526   C     0.66453   0.49927   0.50072   0.00000  Uiso   1.00
C527   C     0.83546   0.50073   0.49928   0.00000  Uiso   1.00
C528   C     0.90996   0.54539   0.53314   0.00000  Uiso   1.00
Cu529  Cu    0.75500   0.50579   0.56146   0.00000  Uiso   1.00
Cu530  Cu    0.74499   0.49421   0.43854   0.00000  Uiso   1.00
F531   F     0.88871   0.58733   0.56315   0.00000  Uiso   1.00
F532   F     0.61129   0.41267   0.43686   0.00000  Uiso   1.00
H533   H     0.88155   0.42545   0.43668   0.00000  Uiso   1.00
H534   H     0.54671   0.62058   0.38732   0.00000  Uiso   1.00
H535   H     0.50422   0.64352   0.43810   0.00000  Uiso   1.00
H536   H     0.56247   0.66567   0.46060   0.00000  Uiso   1.00
H537   H     0.94461   0.62791   0.63561   0.00000  Uiso   1.00
H538   H     0.95329   0.37942   0.61264   0.00000  Uiso   1.00
H539   H     0.93749   0.33431   0.53938   0.00000  Uiso   1.00
H540   H     0.99575   0.35646   0.56181   0.00000  Uiso   1.00
H541   H     0.61845   0.57456   0.56331   0.00000  Uiso   1.00
H542   H     0.94675   0.38064   0.40338   0.00000  Uiso   1.00
H543   H     0.55325   0.61937   0.59661   0.00000  Uiso   1.00
H544   H     0.74415   0.65347   0.42877   0.00000  Uiso   1.00
H545   H     0.75585   0.34653   0.57123   0.00000  Uiso   1.00
H546   H     0.71500   0.45916   0.64955   0.00000  Uiso   1.00
H547   H     0.78500   0.54084   0.35045   0.00000  Uiso   1.00
H548   H     0.55540   0.37210   0.36439   0.00000  Uiso   1.00
N549   N     0.73744   0.48547   0.34617   0.00000  Uiso   1.00
N550   N     0.76255   0.51453   0.65383   0.00000  Uiso   1.00
N551   N     0.53075   0.36573   0.39219   0.00000  Uiso   1.00
N552   N     0.96925   0.63428   0.60779   0.00000  Uiso   1.00
O553   O     0.75325   0.42871   0.53992   0.00000  Uiso   1.00
O554   O     0.74674   0.57129   0.46008   0.00000  Uiso   1.00
O555   O     0.74480   0.41892   0.43612   0.00000  Uiso   1.00
O556   O     0.75520   0.58108   0.56388   0.00000  Uiso   1.00
O557   O     0.68935   0.50488   0.55191   0.00000  Uiso   1.00
O558   O     0.81064   0.49512   0.44809   0.00000  Uiso   1.00
O559   O     0.68090   0.49510   0.44810   0.00000  Uiso   1.00
O560   O     0.81910   0.50490   0.55190   0.00000  Uiso   1.00
C561   C     0.24864   0.73326   0.48445   0.00000  Uiso   1.00
C562   C     0.09004   0.78794   0.46686   0.00000  Uiso   1.00
C563   C     0.38361   0.83527   0.49796   0.00000  Uiso   1.00
C564   C     0.11639   0.83140   0.50204   0.00000  Uiso   1.00
C565   C     0.40284   0.79206   0.46339   0.00000  Uiso   1.00
C566   C     0.09716   0.87462   0.53661   0.00000  Uiso   1.00
C567   C     0.44916   0.79098   0.46446   0.00000  Uiso   1.00
C568   C     0.05083   0.87569   0.53554   0.00000  Uiso   1.00
C569   C     0.47657   0.83418   0.49994   0.00000  Uiso   1.00
C570   C     0.02343   0.83249   0.50005   0.00000  Uiso   1.00
C571   C     0.45708   0.87890   0.53511   0.00000  Uiso   1.00
C572   C     0.25136   0.93341   0.51555   0.00000  Uiso   1.00
C573   C     0.04292   0.78777   0.46488   0.00000  Uiso   1.00
C574   C     0.46814   0.74695   0.43047   0.00000  Uiso   1.00
C575   C     0.03186   0.91972   0.56952   0.00000  Uiso   1.00
C576   C     0.03636   0.98839   0.42129   0.00000  Uiso   1.00
C577   C     0.46362   0.67828   0.57867   0.00000  Uiso   1.00
C578   C     0.01445   0.74469   0.42989   0.00000  Uiso   1.00
C579   C     0.48555   0.92198   0.57010   0.00000  Uiso   1.00
C580   C     0.24797   0.67729   0.47567   0.00000  Uiso   1.00
C581   C     0.25203   0.98938   0.52433   0.00000  Uiso   1.00
C582   C     0.16453   0.83260   0.50072   0.00000  Uiso   1.00
C583   C     0.33546   0.83406   0.49928   0.00000  Uiso   1.00
C584   C     0.40996   0.87873   0.53314   0.00000  Uiso   1.00
Cu585  Cu    0.25500   0.83913   0.56146   0.00000  Uiso   1.00
Cu586  Cu    0.24499   0.82754   0.43854   0.00000  Uiso   1.00
F587   F     0.38871   0.92066   0.56315   0.00000  Uiso   1.00
F588   F     0.11129   0.74600   0.43686   0.00000  Uiso   1.00
H589   H     0.38155   0.75878   0.43668   0.00000  Uiso   1.00
H590   H     0.04671   0.95392   0.38732   0.00000  Uiso   1.00
H591   H     0.00422   0.97686   0.43810   0.00000  Uiso   1.00
H592   H     0.06247   0.99901   0.46060   0.00000  Uiso   1.00
H593   H     0.44461   0.96124   0.63561   0.00000  Uiso   1.00
H594   H     0.45329   0.71276   0.61264   0.00000  Uiso   1.00
H595   H     0.43749   0.66765   0.53938   0.00000  Uiso   1.00
H596   H     0.49575   0.68980   0.56181   0.00000  Uiso   1.00
H597   H     0.11845   0.90789   0.56331   0.00000  Uiso   1.00
H598   H     0.44675   0.71398   0.40338   0.00000  Uiso   1.00
H599   H     0.05325   0.95270   0.59661   0.00000  Uiso   1.00
H600   H     0.24415   0.98680   0.42877   0.00000  Uiso   1.00
H601   H     0.25585   0.67987   0.57123   0.00000  Uiso   1.00
H602   H     0.21500   0.79250   0.64955   0.00000  Uiso   1.00
H603   H     0.28500   0.87417   0.35045   0.00000  Uiso   1.00
H604   H     0.05540   0.70544   0.36439   0.00000  Uiso   1.00
N605   N     0.23744   0.81881   0.34617   0.00000  Uiso   1.00
N606   N     0.26255   0.84786   0.65383   0.00000  Uiso   1.00
N607   N     0.03075   0.69906   0.39219   0.00000  Uiso   1.00
N608   N     0.46925   0.96761   0.60779   0.00000  Uiso   1.00
O609   O     0.25325   0.76204   0.53992   0.00000  Uiso   1.00
O610   O     0.24674   0.90462   0.46008   0.00000  Uiso   1.00
O611   O     0.24480   0.75226   0.43612   0.00000  Uiso   1.00
O612   O     0.25520   0.91441   0.56388   0.00000  Uiso   1.00
O613   O     0.18935   0.83821   0.55191   0.00000  Uiso   1.00
O614   O     0.31064   0.82845   0.44809   0.00000  Uiso   1.00
O615   O     0.18090   0.82843   0.44810   0.00000  Uiso   1.00
O616   O     0.31910   0.83824   0.55190   0.00000  Uiso   1.00
C617   C     0.74864   0.73326   0.48445   0.00000  Uiso   1.00
C618   C     0.59004   0.78794   0.46686   0.00000  Uiso   1.00
C619   C     0.88361   0.83527   0.49796   0.00000  Uiso   1.00
C620   C     0.61639   0.83140   0.50204   0.00000  Uiso   1.00
C621   C     0.90284   0.79206   0.46339   0.00000  Uiso   1.00
C622   C     0.59716   0.87462   0.53661   0.00000  Uiso   1.00
C623   C     0.94916   0.79098   0.46446   0.00000  Uiso   1.00
C624   C     0.55083   0.87569   0.53554   0.00000  Uiso   1.00
C625   C     0.97657   0.83418   0.49994   0.00000  Uiso   1.00
C626   C     0.52343   0.83249   0.50005   0.00000  Uiso   1.00
C627   C     0.95708   0.87890   0.53511   0.00000  Uiso   1.00
C628   C     0.75136   0.93341   0.51555   0.00000  Uiso   1.00
C629   C     0.54292   0.78777   0.46488   0.00000  Uiso   1.00
C630   C     0.96814   0.74695   0.43047   0.00000  Uiso   1.00
C631   C     0.53186   0.91972   0.56952   0.00000  Uiso   1.00
C632   C     0.53636   0.98839   0.42129   0.00000  Uiso   1.00
C633   C     0.96362   0.67828   0.57867   0.00000  Uiso   1.00
C634   C     0.51445   0.74469   0.42989   0.00000  Uiso   1.00
C635   C     0.98555   0.92198   0.57010   0.00000  Uiso   1.00
C636   C     0.74797   0.67729   0.47567   0.00000  Uiso   1.00
C637   C     0.75203   0.98938   0.52433   0.00000  Uiso   1.00
C638   C     0.66453   0.83260   0.50072   0.00000  Uiso   1.00
C639   C     0.83546   0.83406   0.49928   0.00000  Uiso   1.00
C640   C     0.90996   0.87873   0.53314   0.00000  Uiso   1.00
Cu641  Cu    0.75500   0.83913   0.56146   0.00000  Uiso   1.00
Cu642  Cu    0.74499   0.82754   0.43854   0.00000  Uiso   1.00
F643   F     0.88871   0.92066   0.56315   0.00000  Uiso   1.00
F644   F     0.61129   0.74600   0.43686   0.00000  Uiso   1.00
H645   H     0.88155   0.75878   0.43668   0.00000  Uiso   1.00
H646   H     0.54671   0.95392   0.38732   0.00000  Uiso   1.00
H647   H     0.50422   0.97686   0.43810   0.00000  Uiso   1.00
H648   H     0.56247   0.99901   0.46060   0.00000  Uiso   1.00
H649   H     0.94461   0.96124   0.63561   0.00000  Uiso   1.00
H650   H     0.95329   0.71276   0.61264   0.00000  Uiso   1.00
H651   H     0.93749   0.66765   0.53938   0.00000  Uiso   1.00
H652   H     0.99575   0.68980   0.56181   0.00000  Uiso   1.00
H653   H     0.61845   0.90789   0.56331   0.00000  Uiso   1.00
H654   H     0.94675   0.71398   0.40338   0.00000  Uiso   1.00
H655   H     0.55325   0.95270   0.59661   0.00000  Uiso   1.00
H656   H     0.74415   0.98680   0.42877   0.00000  Uiso   1.00
H657   H     0.75585   0.67987   0.57123   0.00000  Uiso   1.00
H658   H     0.71500   0.79250   0.64955   0.00000  Uiso   1.00
H659   H     0.78500   0.87417   0.35045   0.00000  Uiso   1.00
H660   H     0.55540   0.70544   0.36439   0.00000  Uiso   1.00
N661   N     0.73744   0.81881   0.34617   0.00000  Uiso   1.00
N662   N     0.76255   0.84786   0.65383   0.00000  Uiso   1.00
N663   N     0.53075   0.69906   0.39219   0.00000  Uiso   1.00
N664   N     0.96925   0.96761   0.60779   0.00000  Uiso   1.00
O665   O     0.75325   0.76204   0.53992   0.00000  Uiso   1.00
O666   O     0.74674   0.90462   0.46008   0.00000  Uiso   1.00
O667   O     0.74480   0.75226   0.43612   0.00000  Uiso   1.00
O668   O     0.75520   0.91441   0.56388   0.00000  Uiso   1.00
O669   O     0.68935   0.83821   0.55191   0.00000  Uiso   1.00
O670   O     0.81064   0.82845   0.44809   0.00000  Uiso   1.00
O671   O     0.68090   0.82843   0.44810   0.00000  Uiso   1.00
O672   O     0.81910   0.83824   0.55190   0.00000  Uiso   1.00
C673   C     0.24864   0.06659   0.81778   0.00000  Uiso   1.00
C674   C     0.09004   0.12127   0.80020   0.00000  Uiso   1.00
C675   C     0.38361   0.16860   0.83129   0.00000  Uiso   1.00
C676   C     0.11639   0.16474   0.83538   0.00000  Uiso   1.00
C677   C     0.40284   0.12539   0.79672   0.00000  Uiso   1.00
C678   C     0.09716   0.20795   0.86994   0.00000  Uiso   1.00
C679   C     0.44916   0.12431   0.79779   0.00000  Uiso   1.00
C680   C     0.05083   0.20903   0.86887   0.00000  Uiso   1.00
C681   C     0.47657   0.16751   0.83328   0.00000  Uiso   1.00
C682   C     0.02343   0.16583   0.83338   0.00000  Uiso   1.00
C683   C     0.45708   0.21224   0.86844   0.00000  Uiso   1.00
C684   C     0.25136   0.26674   0.84889   0.00000  Uiso   1.00
C685   C     0.04292   0.12110   0.79822   0.00000  Uiso   1.00
C686   C     0.46814   0.08029   0.76381   0.00000  Uiso   1.00
C687   C     0.03186   0.25305   0.90285   0.00000  Uiso   1.00
C688   C     0.03636   0.32172   0.75463   0.00000  Uiso   1.00
C689   C     0.46362   0.01161   0.91200   0.00000  Uiso   1.00
C690   C     0.01445   0.07803   0.76322   0.00000  Uiso   1.00
C691   C     0.48555   0.25531   0.90344   0.00000  Uiso   1.00
C692   C     0.24797   0.01063   0.80901   0.00000  Uiso   1.00
C693   C     0.25203   0.32271   0.85766   0.00000  Uiso   1.00
C694   C     0.16453   0.16594   0.83406   0.00000  Uiso   1.00
C695   C     0.33546   0.16740   0.83261   0.00000  Uiso   1.00
C696   C     0.40996   0.21206   0.86647   0.00000  Uiso   1.00
Cu697  Cu    0.25500   0.17246   0.89479   0.00000  Uiso   1.00
Cu698  Cu    0.24499   0.16087   0.77187   0.00000  Uiso   1.00
F699   F     0.38871   0.25400   0.89648   0.00000  Uiso   1.00
F700   F     0.11129   0.07933   0.77020   0.00000  Uiso   1.00
H701   H     0.38155   0.09211   0.77002   0.00000  Uiso   1.00
H702   H     0.04671   0.28725   0.72066   0.00000  Uiso   1.00
H703   H     0.00422   0.31019   0.77144   0.00000  Uiso   1.00
H704   H     0.06247   0.33234   0.79394   0.00000  Uiso   1.00
H705   H     0.44461   0.29458   0.96894   0.00000  Uiso   1.00
H706   H     0.45329   0.04609   0.94598   0.00000  Uiso   1.00
H707   H     0.43749   0.00098   0.87271   0.00000  Uiso   1.00
H708   H     0.49575   0.02313   0.89515   0.00000  Uiso   1.00
H709   H     0.11845   0.24123   0.89664   0.00000  Uiso   1.00
H710   H     0.44675   0.04731   0.73671   0.00000  Uiso   1.00
H711   H     0.05325   0.28603   0.92994   0.00000  Uiso   1.00
H712   H     0.24415   0.32013   0.76210   0.00000  Uiso   1.00
H713   H     0.25585   0.01320   0.90456   0.00000  Uiso   1.00
H714   H     0.21500   0.12583   0.98288   0.00000  Uiso   1.00
H715   H     0.28500   0.20750   0.68378   0.00000  Uiso   1.00
H716   H     0.05540   0.03877   0.69772   0.00000  Uiso   1.00
N717   N     0.23744   0.15214   0.67951   0.00000  Uiso   1.00
N718   N     0.26255   0.18119   0.98716   0.00000  Uiso   1.00
N719   N     0.03075   0.03240   0.72553   0.00000  Uiso   1.00
N720   N     0.46925   0.30095   0.94112   0.00000  Uiso   1.00
O721   O     0.25325   0.09538   0.87326   0.00000  Uiso   1.00
O722   O     0.24674   0.23796   0.79341   0.00000  Uiso   1.00
O723   O     0.24480   0.08559   0.76945   0.00000  Uiso   1.00
O724   O     0.25520   0.24774   0.89721   0.00000  Uiso   1.00
O725   O     0.18935   0.17155   0.88524   0.00000  Uiso   1.00
O726   O     0.31064   0.16179   0.78143   0.00000  Uiso   1.00
O727   O     0.18090   0.16176   0.78143   0.00000  Uiso   1.00
O728   O     0.31910   0.17157   0.88523   0.00000  Uiso   1.00
C729   C     0.74864   0.06659   0.81778   0.00000  Uiso   1.00
C730   C     0.59004   0.12127   0.80020   0.00000  Uiso   1.00
C731   C     0.88361   0.16860   0.83129   0.00000  Uiso   1.00
C732   C     0.61639   0.16474   0.83538   0.00000  Uiso   1.00
C733   C     0.90284   0.12539   0.79672   0.00000  Uiso   1.00
C734   C     0.59716   0.20795   0.86994   0.00000  Uiso   1.00
C735   C     0.94916   0.12431   0.79779   0.00000  Uiso   1.00
C736   C     0.55083   0.20903   0.86887   0.00000  Uiso   1.00
C737   C     0.97657   0.16751   0.83328   0.00000  Uiso   1.00
C738   C     0.52343   0.16583   0.83338   0.00000  Uiso   1.00
C739   C     0.95708   0.21224   0.86844   0.00000  Uiso   1.00
C740   C     0.75136   0.26674   0.84889   0.00000  Uiso   1.00
C741   C     0.54292   0.12110   0.79822   0.00000  Uiso   1.00
C742   C     0.96814   0.08029   0.76381   0.00000  Uiso   1.00
C743   C     0.53186   0.25305   0.90285   0.00000  Uiso   1.00
C744   C     0.53636   0.32172   0.75463   0.00000  Uiso   1.00
C745   C     0.96362   0.01161   0.91200   0.00000  Uiso   1.00
C746   C     0.51445   0.07803   0.76322   0.00000  Uiso   1.00
C747   C     0.98555   0.25531   0.90344   0.00000  Uiso   1.00
C748   C     0.74797   0.01063   0.80901   0.00000  Uiso   1.00
C749   C     0.75203   0.32271   0.85766   0.00000  Uiso   1.00
C750   C     0.66453   0.16594   0.83406   0.00000  Uiso   1.00
C751   C     0.83546   0.16740   0.83261   0.00000  Uiso   1.00
C752   C     0.90996   0.21206   0.86647   0.00000  Uiso   1.00
Cu753  Cu    0.75500   0.17246   0.89479   0.00000  Uiso   1.00
Cu754  Cu    0.74499   0.16087   0.77187   0.00000  Uiso   1.00
F755   F     0.88871   0.25400   0.89648   0.00000  Uiso   1.00
F756   F     0.61129   0.07933   0.77020   0.00000  Uiso   1.00
H757   H     0.88155   0.09211   0.77002   0.00000  Uiso   1.00
H758   H     0.54671   0.28725   0.72066   0.00000  Uiso   1.00
H759   H     0.50422   0.31019   0.77144   0.00000  Uiso   1.00
H760   H     0.56247   0.33234   0.79394   0.00000  Uiso   1.00
H761   H     0.94461   0.29458   0.96894   0.00000  Uiso   1.00
H762   H     0.95329   0.04609   0.94598   0.00000  Uiso   1.00
H763   H     0.93749   0.00098   0.87271   0.00000  Uiso   1.00
H764   H     0.99575   0.02313   0.89515   0.00000  Uiso   1.00
H765   H     0.61845   0.24123   0.89664   0.00000  Uiso   1.00
H766   H     0.94675   0.04731   0.73671   0.00000  Uiso   1.00
H767   H     0.55325   0.28603   0.92994   0.00000  Uiso   1.00
H768   H     0.74415   0.32013   0.76210   0.00000  Uiso   1.00
H769   H     0.75585   0.01320   0.90456   0.00000  Uiso   1.00
H770   H     0.71500   0.12583   0.98288   0.00000  Uiso   1.00
H771   H     0.78500   0.20750   0.68378   0.00000  Uiso   1.00
H772   H     0.55540   0.03877   0.69772   0.00000  Uiso   1.00
N773   N     0.73744   0.15214   0.67951   0.00000  Uiso   1.00
N774   N     0.76255   0.18119   0.98716   0.00000  Uiso   1.00
N775   N     0.53075   0.03240   0.72553   0.00000  Uiso   1.00
N776   N     0.96925   0.30095   0.94112   0.00000  Uiso   1.00
O777   O     0.75325   0.09538   0.87326   0.00000  Uiso   1.00
O778   O     0.74674   0.23796   0.79341   0.00000  Uiso   1.00
O779   O     0.74480   0.08559   0.76945   0.00000  Uiso   1.00
O780   O     0.75520   0.24774   0.89721   0.00000  Uiso   1.00
O781   O     0.68935   0.17155   0.88524   0.00000  Uiso   1.00
O782   O     0.81064   0.16179   0.78143   0.00000  Uiso   1.00
O783   O     0.68090   0.16176   0.78143   0.00000  Uiso   1.00
O784   O     0.81910   0.17157   0.88523   0.00000  Uiso   1.00
C785   C     0.24864   0.39992   0.81778   0.00000  Uiso   1.00
C786   C     0.09004   0.45461   0.80020   0.00000  Uiso   1.00
C787   C     0.38361   0.50193   0.83129   0.00000  Uiso   1.00
C788   C     0.11639   0.49807   0.83538   0.00000  Uiso   1.00
C789   C     0.40284   0.45872   0.79672   0.00000  Uiso   1.00
C790   C     0.09716   0.54128   0.86994   0.00000  Uiso   1.00
C791   C     0.44916   0.45765   0.79779   0.00000  Uiso   1.00
C792   C     0.05083   0.54236   0.86887   0.00000  Uiso   1.00
C793   C     0.47657   0.50084   0.83328   0.00000  Uiso   1.00
C794   C     0.02343   0.49916   0.83338   0.00000  Uiso   1.00
C795   C     0.45708   0.54557   0.86844   0.00000  Uiso   1.00
C796   C     0.25136   0.60008   0.84889   0.00000  Uiso   1.00
C797   C     0.04292   0.45443   0.79822   0.00000  Uiso   1.00
C798   C     0.46814   0.41362   0.76381   0.00000  Uiso   1.00
C799   C     0.03186   0.58639   0.90285   0.00000  Uiso   1.00
C800   C     0.03636   0.65505   0.75463   0.00000  Uiso   1.00
C801   C     0.46362   0.34494   0.91200   0.00000  Uiso   1.00
C802   C     0.01445   0.41136   0.76322   0.00000  Uiso   1.00
C803   C     0.48555   0.58865   0.90344   0.00000  Uiso   1.00
C804   C     0.24797   0.34396   0.80901   0.00000  Uiso   1.00
C805   C     0.25203   0.65604   0.85766   0.00000  Uiso   1.00
C806   C     0.16453   0.49927   0.83406   0.00000  Uiso   1.00
C807   C     0.33546   0.50073   0.83261   0.00000  Uiso   1.00
C808   C     0.40996   0.54539   0.86647   0.00000  Uiso   1.00
Cu809  Cu    0.25500   0.50579   0.89479   0.00000  Uiso   1.00
Cu810  Cu    0.24499   0.49421   0.77187   0.00000  Uiso   1.00
F811   F     0.38871   0.58733   0.89648   0.00000  Uiso   1.00
F812   F     0.11129   0.41267   0.77020   0.00000  Uiso   1.00
H813   H     0.38155   0.42545   0.77002   0.00000  Uiso   1.00
H814   H     0.04671   0.62058   0.72066   0.00000  Uiso   1.00
H815   H     0.00422   0.64352   0.77144   0.00000  Uiso   1.00
H816   H     0.06247   0.66567   0.79394   0.00000  Uiso   1.00
H817   H     0.44461   0.62791   0.96894   0.00000  Uiso   1.00
H818   H     0.45329   0.37942   0.94598   0.00000  Uiso   1.00
H819   H     0.43749   0.33431   0.87271   0.00000  Uiso   1.00
H820   H     0.49575   0.35646   0.89515   0.00000  Uiso   1.00
H821   H     0.11845   0.57456   0.89664   0.00000  Uiso   1.00
H822   H     0.44675   0.38064   0.73671   0.00000  Uiso   1.00
H823   H     0.05325   0.61937   0.92994   0.00000  Uiso   1.00
H824   H     0.24415   0.65347   0.76210   0.00000  Uiso   1.00
H825   H     0.25585   0.34653   0.90456   0.00000  Uiso   1.00
H826   H     0.21500   0.45916   0.98288   0.00000  Uiso   1.00
H827   H     0.28500   0.54084   0.68378   0.00000  Uiso   1.00
H828   H     0.05540   0.37210   0.69772   0.00000  Uiso   1.00
N829   N     0.23744   0.48547   0.67951   0.00000  Uiso   1.00
N830   N     0.26255   0.51453   0.98716   0.00000  Uiso   1.00
N831   N     0.03075   0.36573   0.72553   0.00000  Uiso   1.00
N832   N     0.46925   0.63428   0.94112   0.00000  Uiso   1.00
O833   O     0.25325   0.42871   0.87326   0.00000  Uiso   1.00
O834   O     0.24674   0.57129   0.79341   0.00000  Uiso   1.00
O835   O     0.24480   0.41892   0.76945   0.00000  Uiso   1.00
O836   O     0.25520   0.58108   0.89721   0.00000  Uiso   1.00
O837   O     0.18935   0.50488   0.88524   0.00000  Uiso   1.00
O838   O     0.31064   0.49512   0.78143   0.00000  Uiso   1.00
O839   O     0.18090   0.49510   0.78143   0.00000  Uiso   1.00
O840   O     0.31910   0.50490   0.88523   0.00000  Uiso   1.00
C841   C     0.74864   0.39992   0.81778   0.00000  Uiso   1.00
C842   C     0.59004   0.45461   0.80020   0.00000  Uiso   1.00
C843   C     0.88361   0.50193   0.83129   0.00000  Uiso   1.00
C844   C     0.61639   0.49807   0.83538   0.00000  Uiso   1.00
C845   C     0.90284   0.45872   0.79672   0.00000  Uiso   1.00
C846   C     0.59716   0.54128   0.86994   0.00000  Uiso   1.00
C847   C     0.94916   0.45765   0.79779   0.00000  Uiso   1.00
C848   C     0.55083   0.54236   0.86887   0.00000  Uiso   1.00
C849   C     0.97657   0.50084   0.83328   0.00000  Uiso   1.00
C850   C     0.52343   0.49916   0.83338   0.00000  Uiso   1.00
C851   C     0.95708   0.54557   0.86844   0.00000  Uiso   1.00
C852   C     0.75136   0.60008   0.84889   0.00000  Uiso   1.00
C853   C     0.54292   0.45443   0.79822   0.00000  Uiso   1.00
C854   C     0.96814   0.41362   0.76381   0.00000  Uiso   1.00
C855   C     0.53186   0.58639   0.90285   0.00000  Uiso   1.00
C856   C     0.53636   0.65505   0.75463   0.00000  Uiso   1.00
C857   C     0.96362   0.34494   0.91200   0.00000  Uiso   1.00
C858   C     0.51445   0.41136   0.76322   0.00000  Uiso   1.00
C859   C     0.98555   0.58865   0.90344   0.00000  Uiso   1.00
C860   C     0.74797   0.34396   0.80901   0.00000  Uiso   1.00
C861   C     0.75203   0.65604   0.85766   0.00000  Uiso   1.00
C862   C     0.66453   0.49927   0.83406   0.00000  Uiso   1.00
C863   C     0.83546   0.50073   0.83261   0.00000  Uiso   1.00
C864   C     0.90996   0.54539   0.86647   0.00000  Uiso   1.00
Cu865  Cu    0.75500   0.50579   0.89479   0.00000  Uiso   1.00
Cu866  Cu    0.74499   0.49421   0.77187   0.00000  Uiso   1.00
F867   F     0.88871   0.58733   0.89648   0.00000  Uiso   1.00
F868   F     0.61129   0.41267   0.77020   0.00000  Uiso   1.00
H869   H     0.88155   0.42545   0.77002   0.00000  Uiso   1.00
H870   H     0.54671   0.62058   0.72066   0.00000  Uiso   1.00
H871   H     0.50422   0.64352   0.77144   0.00000  Uiso   1.00
H872   H     0.56247   0.66567   0.79394   0.00000  Uiso   1.00
H873   H     0.94461   0.62791   0.96894   0.00000  Uiso   1.00
H874   H     0.95329   0.37942   0.94598   0.00000  Uiso   1.00
H875   H     0.93749   0.33431   0.87271   0.00000  Uiso   1.00
H876   H     0.99575   0.35646   0.89515   0.00000  Uiso   1.00
H877   H     0.61845   0.57456   0.89664   0.00000  Uiso   1.00
H878   H     0.94675   0.38064   0.73671   0.00000  Uiso   1.00
H879   H     0.55325   0.61937   0.92994   0.00000  Uiso   1.00
H880   H     0.74415   0.65347   0.76210   0.00000  Uiso   1.00
H881   H     0.75585   0.34653   0.90456   0.00000  Uiso   1.00
H882   H     0.71500   0.45916   0.98288   0.00000  Uiso   1.00
H883   H     0.78500   0.54084   0.68378   0.00000  Uiso   1.00
H884   H     0.55540   0.37210   0.69772   0.00000  Uiso   1.00
N885   N     0.73744   0.48547   0.67951   0.00000  Uiso   1.00
N886   N     0.76255   0.51453   0.98716   0.00000  Uiso   1.00
N887   N     0.53075   0.36573   0.72553   0.00000  Uiso   1.00
N888   N     0.96925   0.63428   0.94112   0.00000  Uiso   1.00
O889   O     0.75325   0.42871   0.87326   0.00000  Uiso   1.00
O890   O     0.74674   0.57129   0.79341   0.00000  Uiso   1.00
O891   O     0.74480   0.41892   0.76945   0.00000  Uiso   1.00
O892   O     0.75520   0.58108   0.89721   0.00000  Uiso   1.00
O893   O     0.68935   0.50488   0.88524   0.00000  Uiso   1.00
O894   O     0.81064   0.49512   0.78143   0.00000  Uiso   1.00
O895   O     0.68090   0.49510   0.78143   0.00000  Uiso   1.00
O896   O     0.81910   0.50490   0.88523   0.00000  Uiso   1.00
C897   C     0.24864   0.73326   0.81778   0.00000  Uiso   1.00
C898   C     0.09004   0.78794   0.80020   0.00000  Uiso   1.00
C899   C     0.38361   0.83527   0.83129   0.00000  Uiso   1.00
C900   C     0.11639   0.83140   0.83538   0.00000  Uiso   1.00
C901   C     0.40284   0.79206   0.79672   0.00000  Uiso   1.00
C902   C     0.09716   0.87462   0.86994   0.00000  Uiso   1.00
C903   C     0.44916   0.79098   0.79779   0.00000  Uiso   1.00
C904   C     0.05083   0.87569   0.86887   0.00000  Uiso   1.00
C905   C     0.47657   0.83418   0.83328   0.00000  Uiso   1.00
C906   C     0.02343   0.83249   0.83338   0.00000  Uiso   1.00
C907   C     0.45708   0.87890   0.86844   0.00000  Uiso   1.00
C908   C     0.25136   0.93341   0.84889   0.00000  Uiso   1.00
C909   C     0.04292   0.78777   0.79822   0.00000  Uiso   1.00
C910   C     0.46814   0.74695   0.76381   0.00000  Uiso   1.00
C911   C     0.03186   0.91972   0.90285   0.00000  Uiso   1.00
C912   C     0.03636   0.98839   0.75463   0.00000  Uiso   1.00
C913   C     0.46362   0.67828   0.91200   0.00000  Uiso   1.00
C914   C     0.01445   0.74469   0.76322   0.00000  Uiso   1.00
C915   C     0.48555   0.92198   0.90344   0.00000  Uiso   1.00
C916   C     0.24797   0.67729   0.80901   0.00000  Uiso   1.00
C917   C     0.25203   0.98938   0.85766   0.00000  Uiso   1.00
C918   C     0.16453   0.83260   0.83406   0.00000  Uiso   1.00
C919   C     0.33546   0.83406   0.83261   0.00000  Uiso   1.00
C920   C     0.40996   0.87873   0.86647   0.00000  Uiso   1.00
Cu921  Cu    0.25500   0.83913   0.89479   0.00000  Uiso   1.00
Cu922  Cu    0.24499   0.82754   0.77187   0.00000  Uiso   1.00
F923   F     0.38871   0.92066   0.89648   0.00000  Uiso   1.00
F924   F     0.11129   0.74600   0.77020   0.00000  Uiso   1.00
H925   H     0.38155   0.75878   0.77002   0.00000  Uiso   1.00
H926   H     0.04671   0.95392   0.72066   0.00000  Uiso   1.00
H927   H     0.00422   0.97686   0.77144   0.00000  Uiso   1.00
H928   H     0.06247   0.99901   0.79394   0.00000  Uiso   1.00
H929   H     0.44461   0.96124   0.96894   0.00000  Uiso   1.00
H930   H     0.45329   0.71276   0.94598   0.00000  Uiso   1.00
H931   H     0.43749   0.66765   0.87271   0.00000  Uiso   1.00
H932   H     0.49575   0.68980   0.89515   0.00000  Uiso   1.00
H933   H     0.11845   0.90789   0.89664   0.00000  Uiso   1.00
H934   H     0.44675   0.71398   0.73671   0.00000  Uiso   1.00
H935   H     0.05325   0.95270   0.92994   0.00000  Uiso   1.00
H936   H     0.24415   0.98680   0.76210   0.00000  Uiso   1.00
H937   H     0.25585   0.67987   0.90456   0.00000  Uiso   1.00
H938   H     0.21500   0.79250   0.98288   0.00000  Uiso   1.00
H939   H     0.28500   0.87417   0.68378   0.00000  Uiso   1.00
H940   H     0.05540   0.70544   0.69772   0.00000  Uiso   1.00
N941   N     0.23744   0.81881   0.67951   0.00000  Uiso   1.00
N942   N     0.26255   0.84786   0.98716   0.00000  Uiso   1.00
N943   N     0.03075   0.69906   0.72553   0.00000  Uiso   1.00
N944   N     0.46925   0.96761   0.94112   0.00000  Uiso   1.00
O945   O     0.25325   0.76204   0.87326   0.00000  Uiso   1.00
O946   O     0.24674   0.90462   0.79341   0.00000  Uiso   1.00
O947   O     0.24480   0.75226   0.76945   0.00000  Uiso   1.00
O948   O     0.25520   0.91441   0.89721   0.00000  Uiso   1.00
O949   O     0.18935   0.83821   0.88524   0.00000  Uiso   1.00
O950   O     0.31064   0.82845   0.78143   0.00000  Uiso   1.00
O951   O     0.18090   0.82843   0.78143   0.00000  Uiso   1.00
O952   O     0.31910   0.83824   0.88523   0.00000  Uiso   1.00
C953   C     0.74864   0.73326   0.81778   0.00000  Uiso   1.00
C954   C     0.59004   0.78794   0.80020   0.00000  Uiso   1.00
C955   C     0.88361   0.83527   0.83129   0.00000  Uiso   1.00
C956   C     0.61639   0.83140   0.83538   0.00000  Uiso   1.00
C957   C     0.90284   0.79206   0.79672   0.00000  Uiso   1.00
C958   C     0.59716   0.87462   0.86994   0.00000  Uiso   1.00
C959   C     0.94916   0.79098   0.79779   0.00000  Uiso   1.00
C960   C     0.55083   0.87569   0.86887   0.00000  Uiso   1.00
C961   C     0.97657   0.83418   0.83328   0.00000  Uiso   1.00
C962   C     0.52343   0.83249   0.83338   0.00000  Uiso   1.00
C963   C     0.95708   0.87890   0.86844   0.00000  Uiso   1.00
C964   C     0.75136   0.93341   0.84889   0.00000  Uiso   1.00
C965   C     0.54292   0.78777   0.79822   0.00000  Uiso   1.00
C966   C     0.96814   0.74695   0.76381   0.00000  Uiso   1.00
C967   C     0.53186   0.91972   0.90285   0.00000  Uiso   1.00
C968   C     0.53636   0.98839   0.75463   0.00000  Uiso   1.00
C969   C     0.96362   0.67828   0.91200   0.00000  Uiso   1.00
C970   C     0.51445   0.74469   0.76322   0.00000  Uiso   1.00
C971   C     0.98555   0.92198   0.90344   0.00000  Uiso   1.00
C972   C     0.74797   0.67729   0.80901   0.00000  Uiso   1.00
C973   C     0.75203   0.98938   0.85766   0.00000  Uiso   1.00
C974   C     0.66453   0.83260   0.83406   0.00000  Uiso   1.00
C975   C     0.83546   0.83406   0.83261   0.00000  Uiso   1.00
C976   C     0.90996   0.87873   0.86647   0.00000  Uiso   1.00
Cu977  Cu    0.75500   0.83913   0.89479   0.00000  Uiso   1.00
Cu978  Cu    0.74499   0.82754   0.77187   0.00000  Uiso   1.00
F979   F     0.88871   0.92066   0.89648   0.00000  Uiso   1.00
F980   F     0.61129   0.74600   0.77020   0.00000  Uiso   1.00
H981   H     0.88155   0.75878   0.77002   0.00000  Uiso   1.00
H982   H     0.54671   0.95392   0.72066   0.00000  Uiso   1.00
H983   H     0.50422   0.97686   0.77144   0.00000  Uiso   1.00
H984   H     0.56247   0.99901   0.79394   0.00000  Uiso   1.00
H985   H     0.94461   0.96124   0.96894   0.00000  Uiso   1.00
H986   H     0.95329   0.71276   0.94598   0.00000  Uiso   1.00
H987   H     0.93749   0.66765   0.87271   0.00000  Uiso   1.00
H988   H     0.99575   0.68980   0.89515   0.00000  Uiso   1.00
H989   H     0.61845   0.90789   0.89664   0.00000  Uiso   1.00
H990   H     0.94675   0.71398   0.73671   0.00000  Uiso   1.00
H991   H     0.55325   0.95270   0.92994   0.00000  Uiso   1.00
H992   H     0.74415   0.98680   0.76210   0.00000  Uiso   1.00
H993   H     0.75585   0.67987   0.90456   0.00000  Uiso   1.00
H994   H     0.71500   0.79250   0.98288   0.00000  Uiso   1.00
H995   H     0.78500   0.87417   0.68378   0.00000  Uiso   1.00
H996   H     0.55540   0.70544   0.69772   0.00000  Uiso   1.00
N997   N     0.73744   0.81881   0.67951   0.00000  Uiso   1.00
N998   N     0.76255   0.84786   0.98716   0.00000  Uiso   1.00
N999   N     0.53075   0.69906   0.72553   0.00000  Uiso   1.00
N1000  N     0.96925   0.96761   0.94112   0.00000  Uiso   1.00
O1001  O     0.75325   0.76204   0.87326   0.00000  Uiso   1.00
O1002  O     0.74674   0.90462   0.79341   0.00000  Uiso   1.00
O1003  O     0.74480   0.75226   0.76945   0.00000  Uiso   1.00
O1004  O     0.75520   0.91441   0.89721   0.00000  Uiso   1.00
O1005  O     0.68935   0.83821   0.88524   0.00000  Uiso   1.00
O1006  O     0.81064   0.82845   0.78143   0.00000  Uiso   1.00
O1007  O     0.68090   0.82843   0.78143   0.00000  Uiso   1.00
O1008  O     0.81910   0.83824   0.88523   0.00000  Uiso   1.00
loop_
_geom_bond_atom_site_label_1
_geom_bond_atom_site_label_2
_geom_bond_distance
_geom_bond_site_symmetry_2
_ccdc_geom_bond_type
C1     O51     1.284   .     A
C1     C20     1.424   .     S
C1     O49     1.292   .     A
C2     C4      1.398   .     A
C2     C13     1.410   .     A
C2     F28     1.358   .     S
C3     C23     1.444   .     S
C3     C24     1.398   .     A
C3     C5      1.389   .     A
C4     C6      1.389   .     A
C4     C22     1.444   .     S
C5     H29     1.086   .     S
C5     C7      1.389   .     A
C6     H37     1.086   .     S
C6     C8      1.389   .     A
C7     C9      1.412   .     A
C7     C14     1.395   .     A
C8     C15     1.395   .     A
C8     C10     1.412   .     A
C9     C11     1.426   .     A
C9     C66     1.407   .     S
C10    C13     1.426   .     A
C10    C65     1.407   1_455 S
C11    C19     1.422   .     A
C11    C24     1.410   .     A
C12    O52     1.284   .     A
C12    C21     1.424   .     S
C12    O50     1.292   .     A
C13    C18     1.422   .     A
C14    H38     1.085   .     S
C14    C74     1.393   .     S
C15    H39     1.085   .     S
C15    C75     1.393   1_455 S
C16    H31     1.111   .     S
C16    H32     1.111   .     S
C16    H30     1.110   .     S
C16    N159    1.447   .     S
C17    H36     1.111   .     S
C17    H34     1.110   .     S
C17    H35     1.111   .     S
C17    N272    1.447   1_545 S
C18    N47     1.423   .     S
C18    C70     1.393   1_455 S
C19    N48     1.423   .     S
C19    C71     1.393   .     S
C20    C245    1.325   1_545 S
C20    H264    1.088   1_545 S
C21    C132    1.325   .     S
C21    H153    1.088   .     S
C22    O55     1.291   .     A
C22    O53     1.295   .     A
C23    O56     1.291   .     A
C23    O54     1.295   .     A
C24    F27     1.358   .     S
Cu25   O56     1.949   .     S
Cu25   O52     1.946   .     S
Cu25   O53     1.962   .     S
Cu25   O49     1.952   .     S
Cu25   Cu26    2.689   .     S
Cu25   N46     2.021   .     S
Cu26   O51     1.946   .     S
Cu26   O55     1.949   .     S
Cu26   O54     1.962   .     S
Cu26   O50     1.952   .     S
Cu26   N45     2.021   .     S
H33    N48     1.030   .     S
H40    C132    1.088   .     S
H41    C245    1.088   1_545 S
H42    N381    1.029   .     S
H43    N718    1.029   1_554 S
H44    N47     1.030   .     S
N45    H714    1.029   1_554 S
N45    N718    1.292   1_554 S
N46    N381    1.292   .     S
N46    H379    1.029   .     S
N47    C240    1.447   1_545 S
N48    C129    1.447   .     S
C57    O107    1.284   .     A
C57    C76     1.424   .     S
C57    O105    1.292   .     A
C58    C60     1.398   .     A
C58    C69     1.410   .     A
C58    F84     1.358   .     S
C59    C79     1.444   .     S
C59    C80     1.398   .     A
C59    C61     1.389   .     A
C60    C62     1.389   .     A
C60    C78     1.444   .     S
C61    H85     1.086   .     S
C61    C63     1.389   .     A
C62    H93     1.086   .     S
C62    C64     1.389   .     A
C63    C65     1.412   .     A
C63    C70     1.395   .     A
C64    C71     1.395   .     A
C64    C66     1.412   .     A
C65    C67     1.426   .     A
C65    C10     1.407   1_655 S
C66    C69     1.426   .     A
C67    C75     1.422   .     A
C67    C80     1.410   .     A
C68    O108    1.284   .     A
C68    C77     1.424   .     S
C68    O106    1.292   .     A
C69    C74     1.422   .     A
C70    H94     1.085   .     S
C70    C18     1.393   1_655 S
C71    H95     1.085   .     S
C72    H87     1.111   .     S
C72    H88     1.111   .     S
C72    H86     1.110   .     S
C72    N215    1.447   .     S
C73    H92     1.111   .     S
C73    H90     1.110   .     S
C73    H91     1.111   .     S
C73    N328    1.447   1_545 S
C74    N103    1.423   .     S
C75    N104    1.423   .     S
C75    C15     1.393   1_655 S
C76    C301    1.325   1_545 S
C76    H320    1.088   1_545 S
C77    C188    1.325   .     S
C77    H209    1.088   .     S
C78    O111    1.291   .     A
C78    O109    1.295   .     A
C79    O112    1.291   .     A
C79    O110    1.295   .     A
C80    F83     1.358   .     S
Cu81   O112    1.949   .     S
Cu81   O108    1.946   .     S
Cu81   O109    1.962   .     S
Cu81   O105    1.952   .     S
Cu81   Cu82    2.689   .     S
Cu81   N102    2.021   .     S
Cu82   O107    1.946   .     S
Cu82   O111    1.949   .     S
Cu82   O110    1.962   .     S
Cu82   O106    1.952   .     S
Cu82   N101    2.021   .     S
H89    N104    1.030   .     S
H96    C188    1.088   .     S
H97    C301    1.088   1_545 S
H98    N437    1.029   .     S
H99    N774    1.029   1_554 S
H100   N103    1.030   .     S
N101   H770    1.029   1_554 S
N101   N774    1.292   1_554 S
N102   N437    1.292   .     S
N102   H435    1.029   .     S
N103   C296    1.447   1_545 S
N104   C185    1.447   .     S
C113   O163    1.284   .     A
C113   C132    1.424   .     S
C113   O161    1.292   .     A
C114   C116    1.398   .     A
C114   C125    1.410   .     A
C114   F140    1.358   .     S
C115   C135    1.444   .     S
C115   C136    1.398   .     A
C115   C117    1.389   .     A
C116   C118    1.389   .     A
C116   C134    1.444   .     S
C117   H141    1.086   .     S
C117   C119    1.389   .     A
C118   H149    1.086   .     S
C118   C120    1.389   .     A
C119   C121    1.412   .     A
C119   C126    1.395   .     A
C120   C127    1.395   .     A
C120   C122    1.412   .     A
C121   C123    1.426   .     A
C121   C178    1.407   .     S
C122   C125    1.426   .     A
C122   C177    1.407   1_455 S
C123   C131    1.422   .     A
C123   C136    1.410   .     A
C124   O164    1.284   .     A
C124   C133    1.424   .     S
C124   O162    1.292   .     A
C125   C130    1.422   .     A
C126   H150    1.085   .     S
C126   C186    1.393   .     S
C127   H151    1.085   .     S
C127   C187    1.393   1_455 S
C128   H143    1.111   .     S
C128   H144    1.111   .     S
C128   H142    1.110   .     S
C128   N271    1.447   .     S
C129   H148    1.111   .     S
C129   H146    1.110   .     S
C129   H147    1.111   .     S
C130   N159    1.423   .     S
C130   C182    1.393   1_455 S
C131   N160    1.423   .     S
C131   C183    1.393   .     S
C133   C244    1.325   .     S
C133   H265    1.088   .     S
C134   O167    1.291   .     A
C134   O165    1.295   .     A
C135   O168    1.291   .     A
C135   O166    1.295   .     A
C136   F139    1.358   .     S
Cu137  O168    1.949   .     S
Cu137  O164    1.946   .     S
Cu137  O165    1.962   .     S
Cu137  O161    1.952   .     S
Cu137  Cu138   2.689   .     S
Cu137  N158    2.021   .     S
Cu138  O163    1.946   .     S
Cu138  O167    1.949   .     S
Cu138  O166    1.962   .     S
Cu138  O162    1.952   .     S
Cu138  N157    2.021   .     S
H145   N160    1.030   .     S
H152   C244    1.088   .     S
H154   N493    1.029   .     S
H155   N830    1.029   1_554 S
H156   N159    1.030   .     S
N157   H826    1.029   1_554 S
N157   N830    1.292   1_554 S
N158   N493    1.292   .     S
N158   H491    1.029   .     S
N160   C241    1.447   .     S
C169   O219    1.284   .     A
C169   C188    1.424   .     S
C169   O217    1.292   .     A
C170   C172    1.398   .     A
C170   C181    1.410   .     A
C170   F196    1.358   .     S
C171   C191    1.444   .     S
C171   C192    1.398   .     A
C171   C173    1.389   .     A
C172   C174    1.389   .     A
C172   C190    1.444   .     S
C173   H197    1.086   .     S
C173   C175    1.389   .     A
C174   H205    1.086   .     S
C174   C176    1.389   .     A
C175   C177    1.412   .     A
C175   C182    1.395   .     A
C176   C183    1.395   .     A
C176   C178    1.412   .     A
C177   C179    1.426   .     A
C177   C122    1.407   1_655 S
C178   C181    1.426   .     A
C179   C187    1.422   .     A
C179   C192    1.410   .     A
C180   O220    1.284   .     A
C180   C189    1.424   .     S
C180   O218    1.292   .     A
C181   C186    1.422   .     A
C182   H206    1.085   .     S
C182   C130    1.393   1_655 S
C183   H207    1.085   .     S
C184   H199    1.111   .     S
C184   H200    1.111   .     S
C184   H198    1.110   .     S
C184   N327    1.447   .     S
C185   H204    1.111   .     S
C185   H202    1.110   .     S
C185   H203    1.111   .     S
C186   N215    1.423   .     S
C187   N216    1.423   .     S
C187   C127    1.393   1_655 S
C189   C300    1.325   .     S
C189   H321    1.088   .     S
C190   O223    1.291   .     A
C190   O221    1.295   .     A
C191   O224    1.291   .     A
C191   O222    1.295   .     A
C192   F195    1.358   .     S
Cu193  O224    1.949   .     S
Cu193  O220    1.946   .     S
Cu193  O221    1.962   .     S
Cu193  O217    1.952   .     S
Cu193  Cu194   2.689   .     S
Cu193  N214    2.021   .     S
Cu194  O219    1.946   .     S
Cu194  O223    1.949   .     S
Cu194  O222    1.962   .     S
Cu194  O218    1.952   .     S
Cu194  N213    2.021   .     S
H201   N216    1.030   .     S
H208   C300    1.088   .     S
H210   N549    1.029   .     S
H211   N886    1.029   1_554 S
H212   N215    1.030   .     S
N213   H882    1.029   1_554 S
N213   N886    1.292   1_554 S
N214   N549    1.292   .     S
N214   H547    1.029   .     S
N216   C297    1.447   .     S
C225   O275    1.284   .     A
C225   C244    1.424   .     S
C225   O273    1.292   .     A
C226   C228    1.398   .     A
C226   C237    1.410   .     A
C226   F252    1.358   .     S
C227   C247    1.444   .     S
C227   C248    1.398   .     A
C227   C229    1.389   .     A
C228   C230    1.389   .     A
C228   C246    1.444   .     S
C229   H253    1.086   .     S
C229   C231    1.389   .     A
C230   H261    1.086   .     S
C230   C232    1.389   .     A
C231   C233    1.412   .     A
C231   C238    1.395   .     A
C232   C239    1.395   .     A
C232   C234    1.412   .     A
C233   C235    1.426   .     A
C233   C290    1.407   .     S
C234   C237    1.426   .     A
C234   C289    1.407   1_455 S
C235   C243    1.422   .     A
C235   C248    1.410   .     A
C236   O276    1.284   .     A
C236   C245    1.424   .     S
C236   O274    1.292   .     A
C237   C242    1.422   .     A
C238   H262    1.085   .     S
C238   C298    1.393   .     S
C239   H263    1.085   .     S
C239   C299    1.393   1_455 S
C240   H255    1.111   .     S
C240   H256    1.111   .     S
C240   H254    1.110   .     S
C240   N47     1.447   1_565 S
C241   H260    1.111   .     S
C241   H258    1.110   .     S
C241   H259    1.111   .     S
C242   N271    1.423   .     S
C242   C294    1.393   1_455 S
C243   N272    1.423   .     S
C243   C295    1.393   .     S
C245   C20     1.325   1_565 S
C245   H41     1.088   1_565 S
C246   O279    1.291   .     A
C246   O277    1.295   .     A
C247   O280    1.291   .     A
C247   O278    1.295   .     A
C248   F251    1.358   .     S
Cu249  O280    1.949   .     S
Cu249  O276    1.946   .     S
Cu249  O277    1.962   .     S
Cu249  O273    1.952   .     S
Cu249  Cu250   2.689   .     S
Cu249  N270    2.021   .     S
Cu250  O275    1.946   .     S
Cu250  O279    1.949   .     S
Cu250  O278    1.962   .     S
Cu250  O274    1.952   .     S
Cu250  N269    2.021   .     S
H257   N272    1.030   .     S
H264   C20     1.088   1_565 S
H266   N605    1.029   .     S
H267   N942    1.029   1_554 S
H268   N271    1.030   .     S
N269   H938    1.029   1_554 S
N269   N942    1.292   1_554 S
N270   N605    1.292   .     S
N270   H603    1.029   .     S
N272   C17     1.447   1_565 S
C281   O331    1.284   .     A
C281   C300    1.424   .     S
C281   O329    1.292   .     A
C282   C284    1.398   .     A
C282   C293    1.410   .     A
C282   F308    1.358   .     S
C283   C303    1.444   .     S
C283   C304    1.398   .     A
C283   C285    1.389   .     A
C284   C286    1.389   .     A
C284   C302    1.444   .     S
C285   H309    1.086   .     S
C285   C287    1.389   .     A
C286   H317    1.086   .     S
C286   C288    1.389   .     A
C287   C289    1.412   .     A
C287   C294    1.395   .     A
C288   C295    1.395   .     A
C288   C290    1.412   .     A
C289   C291    1.426   .     A
C289   C234    1.407   1_655 S
C290   C293    1.426   .     A
C291   C299    1.422   .     A
C291   C304    1.410   .     A
C292   O332    1.284   .     A
C292   C301    1.424   .     S
C292   O330    1.292   .     A
C293   C298    1.422   .     A
C294   H318    1.085   .     S
C294   C242    1.393   1_655 S
C295   H319    1.085   .     S
C296   H311    1.111   .     S
C296   H312    1.111   .     S
C296   H310    1.110   .     S
C296   N103    1.447   1_565 S
C297   H316    1.111   .     S
C297   H314    1.110   .     S
C297   H315    1.111   .     S
C298   N327    1.423   .     S
C299   N328    1.423   .     S
C299   C239    1.393   1_655 S
C301   C76     1.325   1_565 S
C301   H97     1.088   1_565 S
C302   O335    1.291   .     A
C302   O333    1.295   .     A
C303   O336    1.291   .     A
C303   O334    1.295   .     A
C304   F307    1.358   .     S
Cu305  O336    1.949   .     S
Cu305  O332    1.946   .     S
Cu305  O333    1.962   .     S
Cu305  O329    1.952   .     S
Cu305  Cu306   2.689   .     S
Cu305  N326    2.021   .     S
Cu306  O331    1.946   .     S
Cu306  O335    1.949   .     S
Cu306  O334    1.962   .     S
Cu306  O330    1.952   .     S
Cu306  N325    2.021   .     S
H313   N328    1.030   .     S
H320   C76     1.088   1_565 S
H322   N661    1.029   .     S
H323   N998    1.029   1_554 S
H324   N327    1.030   .     S
N325   H994    1.029   1_554 S
N325   N998    1.292   1_554 S
N326   N661    1.292   .     S
N326   H659    1.029   .     S
N328   C73     1.447   1_565 S
C337   O387    1.284   .     A
C337   C356    1.424   .     S
C337   O385    1.292   .     A
C338   C340    1.398   .     A
C338   C349    1.410   .     A
C338   F364    1.358   .     S
C339   C359    1.444   .     S
C339   C360    1.398   .     A
C339   C341    1.389   .     A
C340   C342    1.389   .     A
C340   C358    1.444   .     S
C341   H365    1.086   .     S
C341   C343    1.389   .     A
C342   H373    1.086   .     S
C342   C344    1.389   .     A
C343   C345    1.412   .     A
C343   C350    1.395   .     A
C344   C351    1.395   .     A
C344   C346    1.412   .     A
C345   C347    1.426   .     A
C345   C402    1.407   .     S
C346   C349    1.426   .     A
C346   C401    1.407   1_455 S
C347   C355    1.422   .     A
C347   C360    1.410   .     A
C348   O388    1.284   .     A
C348   C357    1.424   .     S
C348   O386    1.292   .     A
C349   C354    1.422   .     A
C350   H374    1.085   .     S
C350   C410    1.393   .     S
C351   H375    1.085   .     S
C351   C411    1.393   1_455 S
C352   H367    1.111   .     S
C352   H368    1.111   .     S
C352   H366    1.110   .     S
C352   N495    1.447   .     S
C353   H372    1.111   .     S
C353   H370    1.110   .     S
C353   H371    1.111   .     S
C353   N608    1.447   1_545 S
C354   N383    1.423   .     S
C354   C406    1.393   1_455 S
C355   N384    1.423   .     S
C355   C407    1.393   .     S
C356   C581    1.325   1_545 S
C356   H600    1.088   1_545 S
C357   C468    1.325   .     S
C357   H489    1.088   .     S
C358   O391    1.291   .     A
C358   O389    1.295   .     A
C359   O392    1.291   .     A
C359   O390    1.295   .     A
C360   F363    1.358   .     S
Cu361  O392    1.949   .     S
Cu361  O388    1.946   .     S
Cu361  O389    1.962   .     S
Cu361  O385    1.952   .     S
Cu361  Cu362   2.689   .     S
Cu361  N382    2.021   .     S
Cu362  O387    1.946   .     S
Cu362  O391    1.949   .     S
Cu362  O390    1.962   .     S
Cu362  O386    1.952   .     S
Cu362  N381    2.021   .     S
H369   N384    1.030   .     S
H376   C468    1.088   .     S
H377   C581    1.088   1_545 S
H378   N717    1.029   .     S
H380   N383    1.030   .     S
N382   N717    1.292   .     S
N382   H715    1.029   .     S
N383   C576    1.447   1_545 S
N384   C465    1.447   .     S
C393   O443    1.284   .     A
C393   C412    1.424   .     S
C393   O441    1.292   .     A
C394   C396    1.398   .     A
C394   C405    1.410   .     A
C394   F420    1.358   .     S
C395   C415    1.444   .     S
C395   C416    1.398   .     A
C395   C397    1.389   .     A
C396   C398    1.389   .     A
C396   C414    1.444   .     S
C397   H421    1.086   .     S
C397   C399    1.389   .     A
C398   H429    1.086   .     S
C398   C400    1.389   .     A
C399   C401    1.412   .     A
C399   C406    1.395   .     A
C400   C407    1.395   .     A
C400   C402    1.412   .     A
C401   C403    1.426   .     A
C401   C346    1.407   1_655 S
C402   C405    1.426   .     A
C403   C411    1.422   .     A
C403   C416    1.410   .     A
C404   O444    1.284   .     A
C404   C413    1.424   .     S
C404   O442    1.292   .     A
C405   C410    1.422   .     A
C406   H430    1.085   .     S
C406   C354    1.393   1_655 S
C407   H431    1.085   .     S
C408   H423    1.111   .     S
C408   H424    1.111   .     S
C408   H422    1.110   .     S
C408   N551    1.447   .     S
C409   H428    1.111   .     S
C409   H426    1.110   .     S
C409   H427    1.111   .     S
C409   N664    1.447   1_545 S
C410   N439    1.423   .     S
C411   N440    1.423   .     S
C411   C351    1.393   1_655 S
C412   C637    1.325   1_545 S
C412   H656    1.088   1_545 S
C413   C524    1.325   .     S
C413   H545    1.088   .     S
C414   O447    1.291   .     A
C414   O445    1.295   .     A
C415   O448    1.291   .     A
C415   O446    1.295   .     A
C416   F419    1.358   .     S
Cu417  O448    1.949   .     S
Cu417  O444    1.946   .     S
Cu417  O445    1.962   .     S
Cu417  O441    1.952   .     S
Cu417  Cu418   2.689   .     S
Cu417  N438    2.021   .     S
Cu418  O443    1.946   .     S
Cu418  O447    1.949   .     S
Cu418  O446    1.962   .     S
Cu418  O442    1.952   .     S
Cu418  N437    2.021   .     S
H425   N440    1.030   .     S
H432   C524    1.088   .     S
H433   C637    1.088   1_545 S
H434   N773    1.029   .     S
H436   N439    1.030   .     S
N438   N773    1.292   .     S
N438   H771    1.029   .     S
N439   C632    1.447   1_545 S
N440   C521    1.447   .     S
C449   O499    1.284   .     A
C449   C468    1.424   .     S
C449   O497    1.292   .     A
C450   C452    1.398   .     A
C450   C461    1.410   .     A
C450   F476    1.358   .     S
C451   C471    1.444   .     S
C451   C472    1.398   .     A
C451   C453    1.389   .     A
C452   C454    1.389   .     A
C452   C470    1.444   .     S
C453   H477    1.086   .     S
C453   C455    1.389   .     A
C454   H485    1.086   .     S
C454   C456    1.389   .     A
C455   C457    1.412   .     A
C455   C462    1.395   .     A
C456   C463    1.395   .     A
C456   C458    1.412   .     A
C457   C459    1.426   .     A
C457   C514    1.407   .     S
C458   C461    1.426   .     A
C458   C513    1.407   1_455 S
C459   C467    1.422   .     A
C459   C472    1.410   .     A
C460   O500    1.284   .     A
C460   C469    1.424   .     S
C460   O498    1.292   .     A
C461   C466    1.422   .     A
C462   H486    1.085   .     S
C462   C522    1.393   .     S
C463   H487    1.085   .     S
C463   C523    1.393   1_455 S
C464   H479    1.111   .     S
C464   H480    1.111   .     S
C464   H478    1.110   .     S
C464   N607    1.447   .     S
C465   H484    1.111   .     S
C465   H482    1.110   .     S
C465   H483    1.111   .     S
C466   N495    1.423   .     S
C466   C518    1.393   1_455 S
C467   N496    1.423   .     S
C467   C519    1.393   .     S
C469   C580    1.325   .     S
C469   H601    1.088   .     S
C470   O503    1.291   .     A
C470   O501    1.295   .     A
C471   O504    1.291   .     A
C471   O502    1.295   .     A
C472   F475    1.358   .     S
Cu473  O504    1.949   .     S
Cu473  O500    1.946   .     S
Cu473  O501    1.962   .     S
Cu473  O497    1.952   .     S
Cu473  Cu474   2.689   .     S
Cu473  N494    2.021   .     S
Cu474  O499    1.946   .     S
Cu474  O503    1.949   .     S
Cu474  O502    1.962   .     S
Cu474  O498    1.952   .     S
Cu474  N493    2.021   .     S
H481   N496    1.030   .     S
H488   C580    1.088   .     S
H490   N829    1.029   .     S
H492   N495    1.030   .     S
N494   N829    1.292   .     S
N494   H827    1.029   .     S
N496   C577    1.447   .     S
C505   O555    1.284   .     A
C505   C524    1.424   .     S
C505   O553    1.292   .     A
C506   C508    1.398   .     A
C506   C517    1.410   .     A
C506   F532    1.358   .     S
C507   C527    1.444   .     S
C507   C528    1.398   .     A
C507   C509    1.389   .     A
C508   C510    1.389   .     A
C508   C526    1.444   .     S
C509   H533    1.086   .     S
C509   C511    1.389   .     A
C510   H541    1.086   .     S
C510   C512    1.389   .     A
C511   C513    1.412   .     A
C511   C518    1.395   .     A
C512   C519    1.395   .     A
C512   C514    1.412   .     A
C513   C515    1.426   .     A
C513   C458    1.407   1_655 S
C514   C517    1.426   .     A
C515   C523    1.422   .     A
C515   C528    1.410   .     A
C516   O556    1.284   .     A
C516   C525    1.424   .     S
C516   O554    1.292   .     A
C517   C522    1.422   .     A
C518   H542    1.085   .     S
C518   C466    1.393   1_655 S
C519   H543    1.085   .     S
C520   H535    1.111   .     S
C520   H536    1.111   .     S
C520   H534    1.110   .     S
C520   N663    1.447   .     S
C521   H540    1.111   .     S
C521   H538    1.110   .     S
C521   H539    1.111   .     S
C522   N551    1.423   .     S
C523   N552    1.423   .     S
C523   C463    1.393   1_655 S
C525   C636    1.325   .     S
C525   H657    1.088   .     S
C526   O559    1.291   .     A
C526   O557    1.295   .     A
C527   O560    1.291   .     A
C527   O558    1.295   .     A
C528   F531    1.358   .     S
Cu529  O560    1.949   .     S
Cu529  O556    1.946   .     S
Cu529  O557    1.962   .     S
Cu529  O553    1.952   .     S
Cu529  Cu530   2.689   .     S
Cu529  N550    2.021   .     S
Cu530  O555    1.946   .     S
Cu530  O559    1.949   .     S
Cu530  O558    1.962   .     S
Cu530  O554    1.952   .     S
Cu530  N549    2.021   .     S
H537   N552    1.030   .     S
H544   C636    1.088   .     S
H546   N885    1.029   .     S
H548   N551    1.030   .     S
N550   N885    1.292   .     S
N550   H883    1.029   .     S
N552   C633    1.447   .     S
C561   O611    1.284   .     A
C561   C580    1.424   .     S
C561   O609    1.292   .     A
C562   C564    1.398   .     A
C562   C573    1.410   .     A
C562   F588    1.358   .     S
C563   C583    1.444   .     S
C563   C584    1.398   .     A
C563   C565    1.389   .     A
C564   C566    1.389   .     A
C564   C582    1.444   .     S
C565   H589    1.086   .     S
C565   C567    1.389   .     A
C566   H597    1.086   .     S
C566   C568    1.389   .     A
C567   C569    1.412   .     A
C567   C574    1.395   .     A
C568   C575    1.395   .     A
C568   C570    1.412   .     A
C569   C571    1.426   .     A
C569   C626    1.407   .     S
C570   C573    1.426   .     A
C570   C625    1.407   1_455 S
C571   C579    1.422   .     A
C571   C584    1.410   .     A
C572   O612    1.284   .     A
C572   C581    1.424   .     S
C572   O610    1.292   .     A
C573   C578    1.422   .     A
C574   H598    1.085   .     S
C574   C634    1.393   .     S
C575   H599    1.085   .     S
C575   C635    1.393   1_455 S
C576   H591    1.111   .     S
C576   H592    1.111   .     S
C576   H590    1.110   .     S
C576   N383    1.447   1_565 S
C577   H596    1.111   .     S
C577   H594    1.110   .     S
C577   H595    1.111   .     S
C578   N607    1.423   .     S
C578   C630    1.393   1_455 S
C579   N608    1.423   .     S
C579   C631    1.393   .     S
C581   C356    1.325   1_565 S
C581   H377    1.088   1_565 S
C582   O615    1.291   .     A
C582   O613    1.295   .     A
C583   O616    1.291   .     A
C583   O614    1.295   .     A
C584   F587    1.358   .     S
Cu585  O616    1.949   .     S
Cu585  O612    1.946   .     S
Cu585  O613    1.962   .     S
Cu585  O609    1.952   .     S
Cu585  Cu586   2.689   .     S
Cu585  N606    2.021   .     S
Cu586  O611    1.946   .     S
Cu586  O615    1.949   .     S
Cu586  O614    1.962   .     S
Cu586  O610    1.952   .     S
Cu586  N605    2.021   .     S
H593   N608    1.030   .     S
H600   C356    1.088   1_565 S
H602   N941    1.029   .     S
H604   N607    1.030   .     S
N606   N941    1.292   .     S
N606   H939    1.029   .     S
N608   C353    1.447   1_565 S
C617   O667    1.284   .     A
C617   C636    1.424   .     S
C617   O665    1.292   .     A
C618   C620    1.398   .     A
C618   C629    1.410   .     A
C618   F644    1.358   .     S
C619   C639    1.444   .     S
C619   C640    1.398   .     A
C619   C621    1.389   .     A
C620   C622    1.389   .     A
C620   C638    1.444   .     S
C621   H645    1.086   .     S
C621   C623    1.389   .     A
C622   H653    1.086   .     S
C622   C624    1.389   .     A
C623   C625    1.412   .     A
C623   C630    1.395   .     A
C624   C631    1.395   .     A
C624   C626    1.412   .     A
C625   C627    1.426   .     A
C625   C570    1.407   1_655 S
C626   C629    1.426   .     A
C627   C635    1.422   .     A
C627   C640    1.410   .     A
C628   O668    1.284   .     A
C628   C637    1.424   .     S
C628   O666    1.292   .     A
C629   C634    1.422   .     A
C630   H654    1.085   .     S
C630   C578    1.393   1_655 S
C631   H655    1.085   .     S
C632   H647    1.111   .     S
C632   H648    1.111   .     S
C632   H646    1.110   .     S
C632   N439    1.447   1_565 S
C633   H652    1.111   .     S
C633   H650    1.110   .     S
C633   H651    1.111   .     S
C634   N663    1.423   .     S
C635   N664    1.423   .     S
C635   C575    1.393   1_655 S
C637   C412    1.325   1_565 S
C637   H433    1.088   1_565 S
C638   O671    1.291   .     A
C638   O669    1.295   .     A
C639   O672    1.291   .     A
C639   O670    1.295   .     A
C640   F643    1.358   .     S
Cu641  O672    1.949   .     S
Cu641  O668    1.946   .     S
Cu641  O669    1.962   .     S
Cu641  O665    1.952   .     S
Cu641  Cu642   2.689   .     S
Cu641  N662    2.021   .     S
Cu642  O667    1.946   .     S
Cu642  O671    1.949   .     S
Cu642  O670    1.962   .     S
Cu642  O666    1.952   .     S
Cu642  N661    2.021   .     S
H649   N664    1.030   .     S
H656   C412    1.088   1_565 S
H658   N997    1.029   .     S
H660   N663    1.030   .     S
N662   N997    1.292   .     S
N662   H995    1.029   .     S
N664   C409    1.447   1_565 S
C673   O723    1.284   .     A
C673   C692    1.424   .     S
C673   O721    1.292   .     A
C674   C676    1.398   .     A
C674   C685    1.410   .     A
C674   F700    1.358   .     S
C675   C695    1.444   .     S
C675   C696    1.398   .     A
C675   C677    1.389   .     A
C676   C678    1.389   .     A
C676   C694    1.444   .     S
C677   H701    1.086   .     S
C677   C679    1.389   .     A
C678   H709    1.086   .     S
C678   C680    1.389   .     A
C679   C681    1.412   .     A
C679   C686    1.395   .     A
C680   C687    1.395   .     A
C680   C682    1.412   .     A
C681   C683    1.426   .     A
C681   C738    1.407   .     S
C682   C685    1.426   .     A
C682   C737    1.407   1_455 S
C683   C691    1.422   .     A
C683   C696    1.410   .     A
C684   O724    1.284   .     A
C684   C693    1.424   .     S
C684   O722    1.292   .     A
C685   C690    1.422   .     A
C686   H710    1.085   .     S
C686   C746    1.393   .     S
C687   H711    1.085   .     S
C687   C747    1.393   1_455 S
C688   H703    1.111   .     S
C688   H704    1.111   .     S
C688   H702    1.110   .     S
C688   N831    1.447   .     S
C689   H708    1.111   .     S
C689   H706    1.110   .     S
C689   H707    1.111   .     S
C689   N944    1.447   1_545 S
C690   N719    1.423   .     S
C690   C742    1.393   1_455 S
C691   N720    1.423   .     S
C691   C743    1.393   .     S
C692   C917    1.325   1_545 S
C692   H936    1.088   1_545 S
C693   C804    1.325   .     S
C693   H825    1.088   .     S
C694   O727    1.291   .     A
C694   O725    1.295   .     A
C695   O728    1.291   .     A
C695   O726    1.295   .     A
C696   F699    1.358   .     S
Cu697  O728    1.949   .     S
Cu697  O724    1.946   .     S
Cu697  O725    1.962   .     S
Cu697  O721    1.952   .     S
Cu697  Cu698   2.689   .     S
Cu697  N718    2.021   .     S
Cu698  O723    1.946   .     S
Cu698  O727    1.949   .     S
Cu698  O726    1.962   .     S
Cu698  O722    1.952   .     S
Cu698  N717    2.021   .     S
H705   N720    1.030   .     S
H712   C804    1.088   .     S
H713   C917    1.088   1_545 S
H714   N45     1.029   1_556 S
H716   N719    1.030   .     S
N718   N45     1.292   1_556 S
N718   H43     1.029   1_556 S
N719   C912    1.447   1_545 S
N720   C801    1.447   .     S
C729   O779    1.284   .     A
C729   C748    1.424   .     S
C729   O777    1.292   .     A
C730   C732    1.398   .     A
C730   C741    1.410   .     A
C730   F756    1.358   .     S
C731   C751    1.444   .     S
C731   C752    1.398   .     A
C731   C733    1.389   .     A
C732   C734    1.389   .     A
C732   C750    1.444   .     S
C733   H757    1.086   .     S
C733   C735    1.389   .     A
C734   H765    1.086   .     S
C734   C736    1.389   .     A
C735   C737    1.412   .     A
C735   C742    1.395   .     A
C736   C743    1.395   .     A
C736   C738    1.412   .     A
C737   C739    1.426   .     A
C737   C682    1.407   1_655 S
C738   C741    1.426   .     A
C739   C747    1.422   .     A
C739   C752    1.410   .     A
C740   O780    1.284   .     A
C740   C749    1.424   .     S
C740   O778    1.292   .     A
C741   C746    1.422   .     A
C742   H766    1.085   .     S
C742   C690    1.393   1_655 S
C743   H767    1.085   .     S
C744   H759    1.111   .     S
C744   H760    1.111   .     S
C744   H758    1.110   .     S
C744   N887    1.447   .     S
C745   H764    1.111   .     S
C745   H762    1.110   .     S
C745   H763    1.111   .     S
C745   N1000   1.447   1_545 S
C746   N775    1.423   .     S
C747   N776    1.423   .     S
C747   C687    1.393   1_655 S
C748   C973    1.325   1_545 S
C748   H992    1.088   1_545 S
C749   C860    1.325   .     S
C749   H881    1.088   .     S
C750   O783    1.291   .     A
C750   O781    1.295   .     A
C751   O784    1.291   .     A
C751   O782    1.295   .     A
C752   F755    1.358   .     S
Cu753  O784    1.949   .     S
Cu753  O780    1.946   .     S
Cu753  O781    1.962   .     S
Cu753  O777    1.952   .     S
Cu753  Cu754   2.689   .     S
Cu753  N774    2.021   .     S
Cu754  O779    1.946   .     S
Cu754  O783    1.949   .     S
Cu754  O782    1.962   .     S
Cu754  O778    1.952   .     S
Cu754  N773    2.021   .     S
H761   N776    1.030   .     S
H768   C860    1.088   .     S
H769   C973    1.088   1_545 S
H770   N101    1.029   1_556 S
H772   N775    1.030   .     S
N774   N101    1.292   1_556 S
N774   H99     1.029   1_556 S
N775   C968    1.447   1_545 S
N776   C857    1.447   .     S
C785   O835    1.284   .     A
C785   C804    1.424   .     S
C785   O833    1.292   .     A
C786   C788    1.398   .     A
C786   C797    1.410   .     A
C786   F812    1.358   .     S
C787   C807    1.444   .     S
C787   C808    1.398   .     A
C787   C789    1.389   .     A
C788   C790    1.389   .     A
C788   C806    1.444   .     S
C789   H813    1.086   .     S
C789   C791    1.389   .     A
C790   H821    1.086   .     S
C790   C792    1.389   .     A
C791   C793    1.412   .     A
C791   C798    1.395   .     A
C792   C799    1.395   .     A
C792   C794    1.412   .     A
C793   C795    1.426   .     A
C793   C850    1.407   .     S
C794   C797    1.426   .     A
C794   C849    1.407   1_455 S
C795   C803    1.422   .     A
C795   C808    1.410   .     A
C796   O836    1.284   .     A
C796   C805    1.424   .     S
C796   O834    1.292   .     A
C797   C802    1.422   .     A
C798   H822    1.085   .     S
C798   C858    1.393   .     S
C799   H823    1.085   .     S
C799   C859    1.393   1_455 S
C800   H815    1.111   .     S
C800   H816    1.111   .     S
C800   H814    1.110   .     S
C800   N943    1.447   .     S
C801   H820    1.111   .     S
C801   H818    1.110   .     S
C801   H819    1.111   .     S
C802   N831    1.423   .     S
C802   C854    1.393   1_455 S
C803   N832    1.423   .     S
C803   C855    1.393   .     S
C805   C916    1.325   .     S
C805   H937    1.088   .     S
C806   O839    1.291   .     A
C806   O837    1.295   .     A
C807   O840    1.291   .     A
C807   O838    1.295   .     A
C808   F811    1.358   .     S
Cu809  O840    1.949   .     S
Cu809  O836    1.946   .     S
Cu809  O837    1.962   .     S
Cu809  O833    1.952   .     S
Cu809  Cu810   2.689   .     S
Cu809  N830    2.021   .     S
Cu810  O835    1.946   .     S
Cu810  O839    1.949   .     S
Cu810  O838    1.962   .     S
Cu810  O834    1.952   .     S
Cu810  N829    2.021   .     S
H817   N832    1.030   .     S
H824   C916    1.088   .     S
H826   N157    1.029   1_556 S
H828   N831    1.030   .     S
N830   N157    1.292   1_556 S
N830   H155    1.029   1_556 S
N832   C913    1.447   .     S
C841   O891    1.284   .     A
C841   C860    1.424   .     S
C841   O889    1.292   .     A
C842   C844    1.398   .     A
C842   C853    1.410   .     A
C842   F868    1.358   .     S
C843   C863    1.444   .     S
C843   C864    1.398   .     A
C843   C845    1.389   .     A
C844   C846    1.389   .     A
C844   C862    1.444   .     S
C845   H869    1.086   .     S
C845   C847    1.389   .     A
C846   H877    1.086   .     S
C846   C848    1.389   .     A
C847   C849    1.412   .     A
C847   C854    1.395   .     A
C848   C855    1.395   .     A
C848   C850    1.412   .     A
C849   C851    1.426   .     A
C849   C794    1.407   1_655 S
C850   C853    1.426   .     A
C851   C859    1.422   .     A
C851   C864    1.410   .     A
C852   O892    1.284   .     A
C852   C861    1.424   .     S
C852   O890    1.292   .     A
C853   C858    1.422   .     A
C854   H878    1.085   .     S
C854   C802    1.393   1_655 S
C855   H879    1.085   .     S
C856   H871    1.111   .     S
C856   H872    1.111   .     S
C856   H870    1.110   .     S
C856   N999    1.447   .     S
C857   H876    1.111   .     S
C857   H874    1.110   .     S
C857   H875    1.111   .     S
C858   N887    1.423   .     S
C859   N888    1.423   .     S
C859   C799    1.393   1_655 S
C861   C972    1.325   .     S
C861   H993    1.088   .     S
C862   O895    1.291   .     A
C862   O893    1.295   .     A
C863   O896    1.291   .     A
C863   O894    1.295   .     A
C864   F867    1.358   .     S
Cu865  O896    1.949   .     S
Cu865  O892    1.946   .     S
Cu865  O893    1.962   .     S
Cu865  O889    1.952   .     S
Cu865  Cu866   2.689   .     S
Cu865  N886    2.021   .     S
Cu866  O891    1.946   .     S
Cu866  O895    1.949   .     S
Cu866  O894    1.962   .     S
Cu866  O890    1.952   .     S
Cu866  N885    2.021   .     S
H873   N888    1.030   .     S
H880   C972    1.088   .     S
H882   N213    1.029   1_556 S
H884   N887    1.030   .     S
N886   N213    1.292   1_556 S
N886   H211    1.029   1_556 S
N888   C969    1.447   .     S
C897   O947    1.284   .     A
C897   C916    1.424   .     S
C897   O945    1.292   .     A
C898   C900    1.398   .     A
C898   C909    1.410   .     A
C898   F924    1.358   .     S
C899   C919    1.444   .     S
C899   C920    1.398   .     A
C899   C901    1.389   .     A
C900   C902    1.389   .     A
C900   C918    1.444   .     S
C901   H925    1.086   .     S
C901   C903    1.389   .     A
C902   H933    1.086   .     S
C902   C904    1.389   .     A
C903   C905    1.412   .     A
C903   C910    1.395   .     A
C904   C911    1.395   .     A
C904   C906    1.412   .     A
C905   C907    1.426   .     A
C905   C962    1.407   .     S
C906   C909    1.426   .     A
C906   C961    1.407   1_455 S
C907   C915    1.422   .     A
C907   C920    1.410   .     A
C908   O948    1.284   .     A
C908   C917    1.424   .     S
C908   O946    1.292   .     A
C909   C914    1.422   .     A
C910   H934    1.085   .     S
C910   C970    1.393   .     S
C911   H935    1.085   .     S
C911   C971    1.393   1_455 S
C912   H927    1.111   .     S
C912   H928    1.111   .     S
C912   H926    1.110   .     S
C912   N719    1.447   1_565 S
C913   H932    1.111   .     S
C913   H930    1.110   .     S
C913   H931    1.111   .     S
C914   N943    1.423   .     S
C914   C966    1.393   1_455 S
C915   N944    1.423   .     S
C915   C967    1.393   .     S
C917   C692    1.325   1_565 S
C917   H713    1.088   1_565 S
C918   O951    1.291   .     A
C918   O949    1.295   .     A
C919   O952    1.291   .     A
C919   O950    1.295   .     A
C920   F923    1.358   .     S
Cu921  O952    1.949   .     S
Cu921  O948    1.946   .     S
Cu921  O949    1.962   .     S
Cu921  O945    1.952   .     S
Cu921  Cu922   2.689   .     S
Cu921  N942    2.021   .     S
Cu922  O947    1.946   .     S
Cu922  O951    1.949   .     S
Cu922  O950    1.962   .     S
Cu922  O946    1.952   .     S
Cu922  N941    2.021   .     S
H929   N944    1.030   .     S
H936   C692    1.088   1_565 S
H938   N269    1.029   1_556 S
H940   N943    1.030   .     S
N942   N269    1.292   1_556 S
N942   H267    1.029   1_556 S
N944   C689    1.447   1_565 S
C953   O1003   1.284   .     A
C953   C972    1.424   .     S
C953   O1001   1.292   .     A
C954   C956    1.398   .     A
C954   C965    1.410   .     A
C954   F980    1.358   .     S
C955   C975    1.444   .     S
C955   C976    1.398   .     A
C955   C957    1.389   .     A
C956   C958    1.389   .     A
C956   C974    1.444   .     S
C957   H981    1.086   .     S
C957   C959    1.389   .     A
C958   H989    1.086   .     S
C958   C960    1.389   .     A
C959   C961    1.412   .     A
C959   C966    1.395   .     A
C960   C967    1.395   .     A
C960   C962    1.412   .     A
C961   C963    1.426   .     A
C961   C906    1.407   1_655 S
C962   C965    1.426   .     A
C963   C971    1.422   .     A
C963   C976    1.410   .     A
C964   O1004   1.284   .     A
C964   C973    1.424   .     S
C964   O1002   1.292   .     A
C965   C970    1.422   .     A
C966   H990    1.085   .     S
C966   C914    1.393   1_655 S
C967   H991    1.085   .     S
C968   H983    1.111   .     S
C968   H984    1.111   .     S
C968   H982    1.110   .     S
C968   N775    1.447   1_565 S
C969   H988    1.111   .     S
C969   H986    1.110   .     S
C969   H987    1.111   .     S
C970   N999    1.423   .     S
C971   N1000   1.423   .     S
C971   C911    1.393   1_655 S
C973   C748    1.325   1_565 S
C973   H769    1.088   1_565 S
C974   O1007   1.291   .     A
C974   O1005   1.295   .     A
C975   O1008   1.291   .     A
C975   O1006   1.295   .     A
C976   F979    1.358   .     S
Cu977  O1008   1.949   .     S
Cu977  O1004   1.946   .     S
Cu977  O1005   1.962   .     S
Cu977  O1001   1.952   .     S
Cu977  Cu978   2.689   .     S
Cu977  N998    2.021   .     S
Cu978  O1003   1.946   .     S
Cu978  O1007   1.949   .     S
Cu978  O1006   1.962   .     S
Cu978  O1002   1.952   .     S
Cu978  N997    2.021   .     S
H985   N1000   1.030   .     S
H992   C748    1.088   1_565 S
H994   N325    1.029   1_556 S
H996   N999    1.030   .     S
N998   N325    1.292   1_556 S
N998   H323    1.029   1_556 S
N1000  C745    1.447   1_565 S
