data_str_m2_o1_o10_pcu_sym.66
_audit_creation_date              2020-01-03
_audit_creation_method            'Materials Studio'
_symmetry_space_group_name_H-M    'P1'
_symmetry_Int_Tables_number       1
_symmetry_cell_setting            triclinic
loop_
_symmetry_equiv_pos_as_xyz
  x,y,z
_cell_length_a                    26.2673
_cell_length_b                    32.4463
_cell_length_c                    28.5679
_cell_angle_alpha                 89.8899
_cell_angle_beta                  96.6479
_cell_angle_gamma                 90.5164
loop_
_atom_site_label
_atom_site_type_symbol
_atom_site_fract_x
_atom_site_fract_y
_atom_site_fract_z
_atom_site_U_iso_or_equiv
_atom_site_adp_type
_atom_site_occupancy
C1     C     0.16654   0.08737   0.16668   0.00000  Uiso   1.00
C2     C     0.17393   0.02129   0.20946   0.00000  Uiso   1.00
C3     C     0.16600   0.29058   0.16662   0.00000  Uiso   1.00
C4     C     0.16609   0.04276   0.16669   0.00000  Uiso   1.00
C5     C     0.13296   0.14253   0.02150   0.00000  Uiso   1.00
C6     C     0.20074   0.19043   0.31199   0.00000  Uiso   1.00
C7     C     0.13222   0.14235   0.30444   0.00000  Uiso   1.00
C8     C     0.20044   0.19126   0.02860   0.00000  Uiso   1.00
C9     C     0.32745   0.12132   0.11889   0.00000  Uiso   1.00
C10    C     0.03067   0.08467   0.11999   0.00000  Uiso   1.00
C11    C     0.00506   0.21272   0.21406   0.00000  Uiso   1.00
C12    C     0.16634   0.24596   0.16662   0.00000  Uiso   1.00
C13    C     0.30403   0.25066   0.20741   0.00000  Uiso   1.00
C14    C     0.05877   0.09926   0.29552   0.00000  Uiso   1.00
C15    C     0.02235   0.07764   0.25796   0.00000  Uiso   1.00
C16    C     0.24330   0.25430   0.04241   0.00000  Uiso   1.00
C17    C     0.29701   0.26044   0.02816   0.00000  Uiso   1.00
C18    C     0.06824   0.16564   0.15524   0.00000  Uiso   1.00
C19    C     0.26508   0.16788   0.17806   0.00000  Uiso   1.00
C20    C     0.01422   0.15704   0.15156   0.00000  Uiso   1.00
C21    C     0.31903   0.17679   0.18151   0.00000  Uiso   1.00
C22    C     0.15780   0.02134   0.12392   0.00000  Uiso   1.00
C23    C     0.17399   0.31200   0.20942   0.00000  Uiso   1.00
C24    C     0.15763   0.31205   0.12390   0.00000  Uiso   1.00
Cu25   Cu    0.16667   0.16667   0.21355   0.00000  Uiso   1.00
Cu26   Cu    0.16667   0.16666   0.11978   0.00000  Uiso   1.00
H27    H     0.15117   0.03744   0.09054   0.00000  Uiso   1.00
H28    H     0.29123   0.10794   0.12878   0.00000  Uiso   1.00
H29    H     0.32013   0.13304   0.08218   0.00000  Uiso   1.00
H30    H     0.29640   0.25882   0.16946   0.00000  Uiso   1.00
H31    H     0.26729   0.24504   0.22198   0.00000  Uiso   1.00
H32    H     0.32328   0.27728   0.22669   0.00000  Uiso   1.00
H33    H     0.00711   0.20227   0.25129   0.00000  Uiso   1.00
H34    H     0.04353   0.22415   0.20793   0.00000  Uiso   1.00
H35    H     0.03670   0.12317   0.31228   0.00000  Uiso   1.00
H36    H     0.07346   0.07550   0.32168   0.00000  Uiso   1.00
H37    H     0.04304   0.05339   0.24054   0.00000  Uiso   1.00
H38    H     0.18063   0.29591   0.24281   0.00000  Uiso   1.00
H39    H     0.32371   0.06303   0.27437   0.00000  Uiso   1.00
H40    H     0.00617   0.10020   0.23120   0.00000  Uiso   1.00
H41    H     0.23960   0.27494   0.07275   0.00000  Uiso   1.00
H42    H     0.21392   0.26465   0.01355   0.00000  Uiso   1.00
H43    H     0.30311   0.24006   0.33154   0.00000  Uiso   1.00
H44    H     0.30226   0.29298   0.01745   0.00000  Uiso   1.00
H45    H     0.32608   0.25320   0.05840   0.00000  Uiso   1.00
H46    H     0.15072   0.29600   0.09053   0.00000  Uiso   1.00
H47    H     0.18043   0.03734   0.24286   0.00000  Uiso   1.00
H48    H     0.10737   0.12333   0.03908   0.00000  Uiso   1.00
H49    H     0.22844   0.20849   0.29548   0.00000  Uiso   1.00
H50    H     0.06438   0.09216   0.10152   0.00000  Uiso   1.00
H51    H     0.04372   0.07550   0.15682   0.00000  Uiso   1.00
H52    H     0.01063   0.05796   0.10158   0.00000  Uiso   1.00
N53    N     0.16668   0.16668   0.28403   0.00000  Uiso   1.00
N54    N     0.16665   0.16666   0.04931   0.00000  Uiso   1.00
O55    O     0.16666   0.10655   0.20625   0.00000  Uiso   1.00
O56    O     0.23709   0.21319   0.05768   0.00000  Uiso   1.00
O57    O     0.16667   0.22678   0.12709   0.00000  Uiso   1.00
O58    O     0.16666   0.10654   0.12706   0.00000  Uiso   1.00
O59    O     0.16667   0.22679   0.20628   0.00000  Uiso   1.00
O60    O     0.09161   0.16667   0.19712   0.00000  Uiso   1.00
O61    O     0.24172   0.16666   0.13621   0.00000  Uiso   1.00
O62    O     0.09161   0.16666   0.11793   0.00000  Uiso   1.00
O63    O     0.24172   0.16667   0.21540   0.00000  Uiso   1.00
O64    O     0.09966   0.11723   0.27438   0.00000  Uiso   1.00
C65    C     0.49988   0.08737   0.16668   0.00000  Uiso   1.00
C66    C     0.50726   0.02129   0.20946   0.00000  Uiso   1.00
C67    C     0.49934   0.29058   0.16662   0.00000  Uiso   1.00
C68    C     0.49943   0.04276   0.16669   0.00000  Uiso   1.00
C69    C     0.46629   0.14253   0.02150   0.00000  Uiso   1.00
C70    C     0.53408   0.19043   0.31199   0.00000  Uiso   1.00
C71    C     0.46555   0.14235   0.30444   0.00000  Uiso   1.00
C72    C     0.53377   0.19126   0.02860   0.00000  Uiso   1.00
C73    C     0.66079   0.12132   0.11889   0.00000  Uiso   1.00
C74    C     0.36400   0.08467   0.11999   0.00000  Uiso   1.00
C75    C     0.33839   0.21272   0.21406   0.00000  Uiso   1.00
C76    C     0.49968   0.24596   0.16662   0.00000  Uiso   1.00
C77    C     0.63736   0.25066   0.20741   0.00000  Uiso   1.00
C78    C     0.39210   0.09926   0.29552   0.00000  Uiso   1.00
C79    C     0.35568   0.07764   0.25796   0.00000  Uiso   1.00
C80    C     0.57663   0.25430   0.04241   0.00000  Uiso   1.00
C81    C     0.63034   0.26044   0.02816   0.00000  Uiso   1.00
C82    C     0.40157   0.16564   0.15524   0.00000  Uiso   1.00
C83    C     0.59841   0.16788   0.17806   0.00000  Uiso   1.00
C84    C     0.34756   0.15704   0.15156   0.00000  Uiso   1.00
C85    C     0.65236   0.17679   0.18151   0.00000  Uiso   1.00
C86    C     0.49114   0.02134   0.12392   0.00000  Uiso   1.00
C87    C     0.50732   0.31200   0.20942   0.00000  Uiso   1.00
C88    C     0.49096   0.31205   0.12390   0.00000  Uiso   1.00
Cu89   Cu    0.50000   0.16667   0.21355   0.00000  Uiso   1.00
Cu90   Cu    0.50000   0.16666   0.11978   0.00000  Uiso   1.00
H91    H     0.48451   0.03744   0.09054   0.00000  Uiso   1.00
H92    H     0.62457   0.10794   0.12878   0.00000  Uiso   1.00
H93    H     0.65347   0.13304   0.08218   0.00000  Uiso   1.00
H94    H     0.62973   0.25882   0.16946   0.00000  Uiso   1.00
H95    H     0.60062   0.24504   0.22198   0.00000  Uiso   1.00
H96    H     0.65662   0.27728   0.22669   0.00000  Uiso   1.00
H97    H     0.34044   0.20227   0.25129   0.00000  Uiso   1.00
H98    H     0.37687   0.22415   0.20793   0.00000  Uiso   1.00
H99    H     0.37003   0.12317   0.31228   0.00000  Uiso   1.00
H100   H     0.40679   0.07550   0.32168   0.00000  Uiso   1.00
H101   H     0.37637   0.05339   0.24054   0.00000  Uiso   1.00
H102   H     0.51396   0.29591   0.24281   0.00000  Uiso   1.00
H103   H     0.65704   0.06303   0.27437   0.00000  Uiso   1.00
H104   H     0.33951   0.10020   0.23120   0.00000  Uiso   1.00
H105   H     0.57294   0.27494   0.07275   0.00000  Uiso   1.00
H106   H     0.54726   0.26465   0.01355   0.00000  Uiso   1.00
H107   H     0.63644   0.24006   0.33154   0.00000  Uiso   1.00
H108   H     0.63559   0.29298   0.01745   0.00000  Uiso   1.00
H109   H     0.65941   0.25320   0.05840   0.00000  Uiso   1.00
H110   H     0.48405   0.29600   0.09053   0.00000  Uiso   1.00
H111   H     0.51376   0.03734   0.24286   0.00000  Uiso   1.00
H112   H     0.44071   0.12333   0.03908   0.00000  Uiso   1.00
H113   H     0.56177   0.20849   0.29548   0.00000  Uiso   1.00
H114   H     0.39772   0.09216   0.10152   0.00000  Uiso   1.00
H115   H     0.37705   0.07550   0.15682   0.00000  Uiso   1.00
H116   H     0.34397   0.05796   0.10158   0.00000  Uiso   1.00
N117   N     0.50001   0.16668   0.28403   0.00000  Uiso   1.00
N118   N     0.49999   0.16666   0.04931   0.00000  Uiso   1.00
O119   O     0.50000   0.10655   0.20625   0.00000  Uiso   1.00
O120   O     0.57042   0.21319   0.05768   0.00000  Uiso   1.00
O121   O     0.50000   0.22678   0.12709   0.00000  Uiso   1.00
O122   O     0.50000   0.10654   0.12706   0.00000  Uiso   1.00
O123   O     0.50000   0.22679   0.20628   0.00000  Uiso   1.00
O124   O     0.42495   0.16667   0.19712   0.00000  Uiso   1.00
O125   O     0.57505   0.16666   0.13621   0.00000  Uiso   1.00
O126   O     0.42494   0.16666   0.11793   0.00000  Uiso   1.00
O127   O     0.57506   0.16667   0.21540   0.00000  Uiso   1.00
O128   O     0.43299   0.11723   0.27438   0.00000  Uiso   1.00
C129   C     0.83321   0.08737   0.16668   0.00000  Uiso   1.00
C130   C     0.84060   0.02129   0.20946   0.00000  Uiso   1.00
C131   C     0.83267   0.29058   0.16662   0.00000  Uiso   1.00
C132   C     0.83276   0.04276   0.16669   0.00000  Uiso   1.00
C133   C     0.79962   0.14253   0.02150   0.00000  Uiso   1.00
C134   C     0.86741   0.19043   0.31199   0.00000  Uiso   1.00
C135   C     0.79889   0.14235   0.30444   0.00000  Uiso   1.00
C136   C     0.86710   0.19126   0.02860   0.00000  Uiso   1.00
C137   C     0.99412   0.12132   0.11889   0.00000  Uiso   1.00
C138   C     0.69733   0.08467   0.11999   0.00000  Uiso   1.00
C139   C     0.67172   0.21272   0.21406   0.00000  Uiso   1.00
C140   C     0.83301   0.24596   0.16662   0.00000  Uiso   1.00
C141   C     0.97070   0.25066   0.20741   0.00000  Uiso   1.00
C142   C     0.72544   0.09926   0.29552   0.00000  Uiso   1.00
C143   C     0.68902   0.07764   0.25796   0.00000  Uiso   1.00
C144   C     0.90997   0.25430   0.04241   0.00000  Uiso   1.00
C145   C     0.96368   0.26044   0.02816   0.00000  Uiso   1.00
C146   C     0.73490   0.16564   0.15524   0.00000  Uiso   1.00
C147   C     0.93174   0.16788   0.17806   0.00000  Uiso   1.00
C148   C     0.68089   0.15704   0.15156   0.00000  Uiso   1.00
C149   C     0.98569   0.17679   0.18151   0.00000  Uiso   1.00
C150   C     0.82447   0.02134   0.12392   0.00000  Uiso   1.00
C151   C     0.84066   0.31200   0.20942   0.00000  Uiso   1.00
C152   C     0.82429   0.31205   0.12390   0.00000  Uiso   1.00
Cu153  Cu    0.83333   0.16667   0.21355   0.00000  Uiso   1.00
Cu154  Cu    0.83333   0.16666   0.11978   0.00000  Uiso   1.00
H155   H     0.81784   0.03744   0.09054   0.00000  Uiso   1.00
H156   H     0.95790   0.10794   0.12878   0.00000  Uiso   1.00
H157   H     0.98680   0.13304   0.08218   0.00000  Uiso   1.00
H158   H     0.96306   0.25882   0.16946   0.00000  Uiso   1.00
H159   H     0.93395   0.24504   0.22198   0.00000  Uiso   1.00
H160   H     0.98995   0.27728   0.22669   0.00000  Uiso   1.00
H161   H     0.67378   0.20227   0.25129   0.00000  Uiso   1.00
H162   H     0.71020   0.22415   0.20793   0.00000  Uiso   1.00
H163   H     0.70336   0.12317   0.31228   0.00000  Uiso   1.00
H164   H     0.74012   0.07550   0.32168   0.00000  Uiso   1.00
H165   H     0.70970   0.05339   0.24054   0.00000  Uiso   1.00
H166   H     0.84730   0.29591   0.24281   0.00000  Uiso   1.00
H167   H     0.99037   0.06303   0.27437   0.00000  Uiso   1.00
H168   H     0.67284   0.10020   0.23120   0.00000  Uiso   1.00
H169   H     0.90627   0.27494   0.07275   0.00000  Uiso   1.00
H170   H     0.88059   0.26465   0.01355   0.00000  Uiso   1.00
H171   H     0.96977   0.24006   0.33154   0.00000  Uiso   1.00
H172   H     0.96892   0.29298   0.01745   0.00000  Uiso   1.00
H173   H     0.99275   0.25320   0.05840   0.00000  Uiso   1.00
H174   H     0.81739   0.29600   0.09053   0.00000  Uiso   1.00
H175   H     0.84710   0.03734   0.24286   0.00000  Uiso   1.00
H176   H     0.77404   0.12333   0.03908   0.00000  Uiso   1.00
H177   H     0.89511   0.20849   0.29548   0.00000  Uiso   1.00
H178   H     0.73105   0.09216   0.10152   0.00000  Uiso   1.00
H179   H     0.71038   0.07550   0.15682   0.00000  Uiso   1.00
H180   H     0.67730   0.05796   0.10158   0.00000  Uiso   1.00
N181   N     0.83335   0.16668   0.28403   0.00000  Uiso   1.00
N182   N     0.83332   0.16666   0.04931   0.00000  Uiso   1.00
O183   O     0.83333   0.10655   0.20625   0.00000  Uiso   1.00
O184   O     0.90376   0.21319   0.05768   0.00000  Uiso   1.00
O185   O     0.83334   0.22678   0.12709   0.00000  Uiso   1.00
O186   O     0.83333   0.10654   0.12706   0.00000  Uiso   1.00
O187   O     0.83334   0.22679   0.20628   0.00000  Uiso   1.00
O188   O     0.75828   0.16667   0.19712   0.00000  Uiso   1.00
O189   O     0.90839   0.16666   0.13621   0.00000  Uiso   1.00
O190   O     0.75828   0.16666   0.11793   0.00000  Uiso   1.00
O191   O     0.90839   0.16667   0.21540   0.00000  Uiso   1.00
O192   O     0.76633   0.11723   0.27438   0.00000  Uiso   1.00
C193   C     0.16654   0.42071   0.16668   0.00000  Uiso   1.00
C194   C     0.17393   0.35462   0.20946   0.00000  Uiso   1.00
C195   C     0.16600   0.62391   0.16662   0.00000  Uiso   1.00
C196   C     0.16609   0.37609   0.16669   0.00000  Uiso   1.00
C197   C     0.13296   0.47586   0.02150   0.00000  Uiso   1.00
C198   C     0.20074   0.52377   0.31199   0.00000  Uiso   1.00
C199   C     0.13222   0.47568   0.30444   0.00000  Uiso   1.00
C200   C     0.20044   0.52459   0.02860   0.00000  Uiso   1.00
C201   C     0.32745   0.45465   0.11889   0.00000  Uiso   1.00
C202   C     0.03067   0.41800   0.11999   0.00000  Uiso   1.00
C203   C     0.00506   0.54605   0.21406   0.00000  Uiso   1.00
C204   C     0.16634   0.57930   0.16662   0.00000  Uiso   1.00
C205   C     0.30403   0.58400   0.20741   0.00000  Uiso   1.00
C206   C     0.05877   0.43259   0.29552   0.00000  Uiso   1.00
C207   C     0.02235   0.41097   0.25796   0.00000  Uiso   1.00
C208   C     0.24330   0.58764   0.04241   0.00000  Uiso   1.00
C209   C     0.29701   0.59377   0.02816   0.00000  Uiso   1.00
C210   C     0.06824   0.49897   0.15524   0.00000  Uiso   1.00
C211   C     0.26508   0.50122   0.17806   0.00000  Uiso   1.00
C212   C     0.01422   0.49038   0.15156   0.00000  Uiso   1.00
C213   C     0.31903   0.51013   0.18151   0.00000  Uiso   1.00
C214   C     0.15780   0.35468   0.12392   0.00000  Uiso   1.00
C215   C     0.17399   0.64533   0.20942   0.00000  Uiso   1.00
C216   C     0.15763   0.64539   0.12390   0.00000  Uiso   1.00
Cu217  Cu    0.16667   0.50001   0.21355   0.00000  Uiso   1.00
Cu218  Cu    0.16667   0.49999   0.11978   0.00000  Uiso   1.00
H219   H     0.15117   0.37078   0.09054   0.00000  Uiso   1.00
H220   H     0.29123   0.44127   0.12878   0.00000  Uiso   1.00
H221   H     0.32013   0.46637   0.08218   0.00000  Uiso   1.00
H222   H     0.29640   0.59216   0.16946   0.00000  Uiso   1.00
H223   H     0.26729   0.57837   0.22198   0.00000  Uiso   1.00
H224   H     0.32328   0.61061   0.22669   0.00000  Uiso   1.00
H225   H     0.00711   0.53560   0.25129   0.00000  Uiso   1.00
H226   H     0.04353   0.55749   0.20793   0.00000  Uiso   1.00
H227   H     0.03670   0.45651   0.31228   0.00000  Uiso   1.00
H228   H     0.07346   0.40883   0.32168   0.00000  Uiso   1.00
H229   H     0.04304   0.38673   0.24054   0.00000  Uiso   1.00
H230   H     0.18063   0.62924   0.24281   0.00000  Uiso   1.00
H231   H     0.32371   0.39637   0.27437   0.00000  Uiso   1.00
H232   H     0.00617   0.43353   0.23120   0.00000  Uiso   1.00
H233   H     0.23960   0.60828   0.07275   0.00000  Uiso   1.00
H234   H     0.21392   0.59798   0.01355   0.00000  Uiso   1.00
H235   H     0.30311   0.57340   0.33154   0.00000  Uiso   1.00
H236   H     0.30226   0.62631   0.01745   0.00000  Uiso   1.00
H237   H     0.32608   0.58653   0.05840   0.00000  Uiso   1.00
H238   H     0.15072   0.62933   0.09053   0.00000  Uiso   1.00
H239   H     0.18043   0.37067   0.24286   0.00000  Uiso   1.00
H240   H     0.10737   0.45666   0.03908   0.00000  Uiso   1.00
H241   H     0.22844   0.54183   0.29548   0.00000  Uiso   1.00
H242   H     0.06438   0.42549   0.10152   0.00000  Uiso   1.00
H243   H     0.04372   0.40884   0.15682   0.00000  Uiso   1.00
H244   H     0.01063   0.39129   0.10158   0.00000  Uiso   1.00
N245   N     0.16668   0.50001   0.28403   0.00000  Uiso   1.00
N246   N     0.16665   0.49999   0.04931   0.00000  Uiso   1.00
O247   O     0.16666   0.43989   0.20625   0.00000  Uiso   1.00
O248   O     0.23709   0.54653   0.05768   0.00000  Uiso   1.00
O249   O     0.16667   0.56011   0.12709   0.00000  Uiso   1.00
O250   O     0.16666   0.43988   0.12706   0.00000  Uiso   1.00
O251   O     0.16667   0.56012   0.20628   0.00000  Uiso   1.00
O252   O     0.09161   0.50000   0.19712   0.00000  Uiso   1.00
O253   O     0.24172   0.50000   0.13621   0.00000  Uiso   1.00
O254   O     0.09161   0.49999   0.11793   0.00000  Uiso   1.00
O255   O     0.24172   0.50001   0.21540   0.00000  Uiso   1.00
O256   O     0.09966   0.45056   0.27438   0.00000  Uiso   1.00
C257   C     0.49988   0.42071   0.16668   0.00000  Uiso   1.00
C258   C     0.50726   0.35462   0.20946   0.00000  Uiso   1.00
C259   C     0.49934   0.62391   0.16662   0.00000  Uiso   1.00
C260   C     0.49943   0.37609   0.16669   0.00000  Uiso   1.00
C261   C     0.46629   0.47586   0.02150   0.00000  Uiso   1.00
C262   C     0.53408   0.52377   0.31199   0.00000  Uiso   1.00
C263   C     0.46555   0.47568   0.30444   0.00000  Uiso   1.00
C264   C     0.53377   0.52459   0.02860   0.00000  Uiso   1.00
C265   C     0.66079   0.45465   0.11889   0.00000  Uiso   1.00
C266   C     0.36400   0.41800   0.11999   0.00000  Uiso   1.00
C267   C     0.33839   0.54605   0.21406   0.00000  Uiso   1.00
C268   C     0.49968   0.57930   0.16662   0.00000  Uiso   1.00
C269   C     0.63736   0.58400   0.20741   0.00000  Uiso   1.00
C270   C     0.39210   0.43259   0.29552   0.00000  Uiso   1.00
C271   C     0.35568   0.41097   0.25796   0.00000  Uiso   1.00
C272   C     0.57663   0.58764   0.04241   0.00000  Uiso   1.00
C273   C     0.63034   0.59377   0.02816   0.00000  Uiso   1.00
C274   C     0.40157   0.49897   0.15524   0.00000  Uiso   1.00
C275   C     0.59841   0.50122   0.17806   0.00000  Uiso   1.00
C276   C     0.34756   0.49038   0.15156   0.00000  Uiso   1.00
C277   C     0.65236   0.51013   0.18151   0.00000  Uiso   1.00
C278   C     0.49114   0.35468   0.12392   0.00000  Uiso   1.00
C279   C     0.50732   0.64533   0.20942   0.00000  Uiso   1.00
C280   C     0.49096   0.64539   0.12390   0.00000  Uiso   1.00
Cu281  Cu    0.50000   0.50001   0.21355   0.00000  Uiso   1.00
Cu282  Cu    0.50000   0.49999   0.11978   0.00000  Uiso   1.00
H283   H     0.48451   0.37078   0.09054   0.00000  Uiso   1.00
H284   H     0.62457   0.44127   0.12878   0.00000  Uiso   1.00
H285   H     0.65347   0.46637   0.08218   0.00000  Uiso   1.00
H286   H     0.62973   0.59216   0.16946   0.00000  Uiso   1.00
H287   H     0.60062   0.57837   0.22198   0.00000  Uiso   1.00
H288   H     0.65662   0.61061   0.22669   0.00000  Uiso   1.00
H289   H     0.34044   0.53560   0.25129   0.00000  Uiso   1.00
H290   H     0.37687   0.55749   0.20793   0.00000  Uiso   1.00
H291   H     0.37003   0.45651   0.31228   0.00000  Uiso   1.00
H292   H     0.40679   0.40883   0.32168   0.00000  Uiso   1.00
H293   H     0.37637   0.38673   0.24054   0.00000  Uiso   1.00
H294   H     0.51396   0.62924   0.24281   0.00000  Uiso   1.00
H295   H     0.65704   0.39637   0.27437   0.00000  Uiso   1.00
H296   H     0.33951   0.43353   0.23120   0.00000  Uiso   1.00
H297   H     0.57294   0.60828   0.07275   0.00000  Uiso   1.00
H298   H     0.54726   0.59798   0.01355   0.00000  Uiso   1.00
H299   H     0.63644   0.57340   0.33154   0.00000  Uiso   1.00
H300   H     0.63559   0.62631   0.01745   0.00000  Uiso   1.00
H301   H     0.65941   0.58653   0.05840   0.00000  Uiso   1.00
H302   H     0.48405   0.62933   0.09053   0.00000  Uiso   1.00
H303   H     0.51376   0.37067   0.24286   0.00000  Uiso   1.00
H304   H     0.44071   0.45666   0.03908   0.00000  Uiso   1.00
H305   H     0.56177   0.54183   0.29548   0.00000  Uiso   1.00
H306   H     0.39772   0.42549   0.10152   0.00000  Uiso   1.00
H307   H     0.37705   0.40884   0.15682   0.00000  Uiso   1.00
H308   H     0.34397   0.39129   0.10158   0.00000  Uiso   1.00
N309   N     0.50001   0.50001   0.28403   0.00000  Uiso   1.00
N310   N     0.49999   0.49999   0.04931   0.00000  Uiso   1.00
O311   O     0.50000   0.43989   0.20625   0.00000  Uiso   1.00
O312   O     0.57042   0.54653   0.05768   0.00000  Uiso   1.00
O313   O     0.50000   0.56011   0.12709   0.00000  Uiso   1.00
O314   O     0.50000   0.43988   0.12706   0.00000  Uiso   1.00
O315   O     0.50000   0.56012   0.20628   0.00000  Uiso   1.00
O316   O     0.42495   0.50000   0.19712   0.00000  Uiso   1.00
O317   O     0.57505   0.50000   0.13621   0.00000  Uiso   1.00
O318   O     0.42494   0.49999   0.11793   0.00000  Uiso   1.00
O319   O     0.57506   0.50001   0.21540   0.00000  Uiso   1.00
O320   O     0.43299   0.45056   0.27438   0.00000  Uiso   1.00
C321   C     0.83321   0.42071   0.16668   0.00000  Uiso   1.00
C322   C     0.84060   0.35462   0.20946   0.00000  Uiso   1.00
C323   C     0.83267   0.62391   0.16662   0.00000  Uiso   1.00
C324   C     0.83276   0.37609   0.16669   0.00000  Uiso   1.00
C325   C     0.79962   0.47586   0.02150   0.00000  Uiso   1.00
C326   C     0.86741   0.52377   0.31199   0.00000  Uiso   1.00
C327   C     0.79889   0.47568   0.30444   0.00000  Uiso   1.00
C328   C     0.86710   0.52459   0.02860   0.00000  Uiso   1.00
C329   C     0.99412   0.45465   0.11889   0.00000  Uiso   1.00
C330   C     0.69733   0.41800   0.11999   0.00000  Uiso   1.00
C331   C     0.67172   0.54605   0.21406   0.00000  Uiso   1.00
C332   C     0.83301   0.57930   0.16662   0.00000  Uiso   1.00
C333   C     0.97070   0.58400   0.20741   0.00000  Uiso   1.00
C334   C     0.72544   0.43259   0.29552   0.00000  Uiso   1.00
C335   C     0.68902   0.41097   0.25796   0.00000  Uiso   1.00
C336   C     0.90997   0.58764   0.04241   0.00000  Uiso   1.00
C337   C     0.96368   0.59377   0.02816   0.00000  Uiso   1.00
C338   C     0.73490   0.49897   0.15524   0.00000  Uiso   1.00
C339   C     0.93174   0.50122   0.17806   0.00000  Uiso   1.00
C340   C     0.68089   0.49038   0.15156   0.00000  Uiso   1.00
C341   C     0.98569   0.51013   0.18151   0.00000  Uiso   1.00
C342   C     0.82447   0.35468   0.12392   0.00000  Uiso   1.00
C343   C     0.84066   0.64533   0.20942   0.00000  Uiso   1.00
C344   C     0.82429   0.64539   0.12390   0.00000  Uiso   1.00
Cu345  Cu    0.83333   0.50001   0.21355   0.00000  Uiso   1.00
Cu346  Cu    0.83333   0.49999   0.11978   0.00000  Uiso   1.00
H347   H     0.81784   0.37078   0.09054   0.00000  Uiso   1.00
H348   H     0.95790   0.44127   0.12878   0.00000  Uiso   1.00
H349   H     0.98680   0.46637   0.08218   0.00000  Uiso   1.00
H350   H     0.96306   0.59216   0.16946   0.00000  Uiso   1.00
H351   H     0.93395   0.57837   0.22198   0.00000  Uiso   1.00
H352   H     0.98995   0.61061   0.22669   0.00000  Uiso   1.00
H353   H     0.67378   0.53560   0.25129   0.00000  Uiso   1.00
H354   H     0.71020   0.55749   0.20793   0.00000  Uiso   1.00
H355   H     0.70336   0.45651   0.31228   0.00000  Uiso   1.00
H356   H     0.74012   0.40883   0.32168   0.00000  Uiso   1.00
H357   H     0.70970   0.38673   0.24054   0.00000  Uiso   1.00
H358   H     0.84730   0.62924   0.24281   0.00000  Uiso   1.00
H359   H     0.99037   0.39637   0.27437   0.00000  Uiso   1.00
H360   H     0.67284   0.43353   0.23120   0.00000  Uiso   1.00
H361   H     0.90627   0.60828   0.07275   0.00000  Uiso   1.00
H362   H     0.88059   0.59798   0.01355   0.00000  Uiso   1.00
H363   H     0.96977   0.57340   0.33154   0.00000  Uiso   1.00
H364   H     0.96892   0.62631   0.01745   0.00000  Uiso   1.00
H365   H     0.99275   0.58653   0.05840   0.00000  Uiso   1.00
H366   H     0.81739   0.62933   0.09053   0.00000  Uiso   1.00
H367   H     0.84710   0.37067   0.24286   0.00000  Uiso   1.00
H368   H     0.77404   0.45666   0.03908   0.00000  Uiso   1.00
H369   H     0.89511   0.54183   0.29548   0.00000  Uiso   1.00
H370   H     0.73105   0.42549   0.10152   0.00000  Uiso   1.00
H371   H     0.71038   0.40884   0.15682   0.00000  Uiso   1.00
H372   H     0.67730   0.39129   0.10158   0.00000  Uiso   1.00
N373   N     0.83335   0.50001   0.28403   0.00000  Uiso   1.00
N374   N     0.83332   0.49999   0.04931   0.00000  Uiso   1.00
O375   O     0.83333   0.43989   0.20625   0.00000  Uiso   1.00
O376   O     0.90376   0.54653   0.05768   0.00000  Uiso   1.00
O377   O     0.83334   0.56011   0.12709   0.00000  Uiso   1.00
O378   O     0.83333   0.43988   0.12706   0.00000  Uiso   1.00
O379   O     0.83334   0.56012   0.20628   0.00000  Uiso   1.00
O380   O     0.75828   0.50000   0.19712   0.00000  Uiso   1.00
O381   O     0.90839   0.50000   0.13621   0.00000  Uiso   1.00
O382   O     0.75828   0.49999   0.11793   0.00000  Uiso   1.00
O383   O     0.90839   0.50001   0.21540   0.00000  Uiso   1.00
O384   O     0.76633   0.45056   0.27438   0.00000  Uiso   1.00
C385   C     0.16654   0.75404   0.16668   0.00000  Uiso   1.00
C386   C     0.17393   0.68795   0.20946   0.00000  Uiso   1.00
C387   C     0.16600   0.95725   0.16662   0.00000  Uiso   1.00
C388   C     0.16609   0.70943   0.16669   0.00000  Uiso   1.00
C389   C     0.13296   0.80919   0.02150   0.00000  Uiso   1.00
C390   C     0.20074   0.85710   0.31199   0.00000  Uiso   1.00
C391   C     0.13222   0.80902   0.30444   0.00000  Uiso   1.00
C392   C     0.20044   0.85792   0.02860   0.00000  Uiso   1.00
C393   C     0.32745   0.78798   0.11889   0.00000  Uiso   1.00
C394   C     0.03067   0.75134   0.11999   0.00000  Uiso   1.00
C395   C     0.00506   0.87939   0.21406   0.00000  Uiso   1.00
C396   C     0.16634   0.91263   0.16662   0.00000  Uiso   1.00
C397   C     0.30403   0.91733   0.20741   0.00000  Uiso   1.00
C398   C     0.05877   0.76592   0.29552   0.00000  Uiso   1.00
C399   C     0.02235   0.74431   0.25796   0.00000  Uiso   1.00
C400   C     0.24330   0.92097   0.04241   0.00000  Uiso   1.00
C401   C     0.29701   0.92711   0.02816   0.00000  Uiso   1.00
C402   C     0.06824   0.83231   0.15524   0.00000  Uiso   1.00
C403   C     0.26508   0.83455   0.17806   0.00000  Uiso   1.00
C404   C     0.01422   0.82371   0.15156   0.00000  Uiso   1.00
C405   C     0.31903   0.84346   0.18151   0.00000  Uiso   1.00
C406   C     0.15780   0.68801   0.12392   0.00000  Uiso   1.00
C407   C     0.17399   0.97867   0.20942   0.00000  Uiso   1.00
C408   C     0.15763   0.97872   0.12390   0.00000  Uiso   1.00
Cu409  Cu    0.16667   0.83334   0.21355   0.00000  Uiso   1.00
Cu410  Cu    0.16667   0.83333   0.11978   0.00000  Uiso   1.00
H411   H     0.15117   0.70411   0.09054   0.00000  Uiso   1.00
H412   H     0.29123   0.77460   0.12878   0.00000  Uiso   1.00
H413   H     0.32013   0.79971   0.08218   0.00000  Uiso   1.00
H414   H     0.29640   0.92549   0.16946   0.00000  Uiso   1.00
H415   H     0.26729   0.91170   0.22198   0.00000  Uiso   1.00
H416   H     0.32328   0.94395   0.22669   0.00000  Uiso   1.00
H417   H     0.00711   0.86894   0.25129   0.00000  Uiso   1.00
H418   H     0.04353   0.89082   0.20793   0.00000  Uiso   1.00
H419   H     0.03670   0.78984   0.31228   0.00000  Uiso   1.00
H420   H     0.07346   0.74216   0.32168   0.00000  Uiso   1.00
H421   H     0.04304   0.72006   0.24054   0.00000  Uiso   1.00
H422   H     0.18063   0.96258   0.24281   0.00000  Uiso   1.00
H423   H     0.32371   0.72970   0.27437   0.00000  Uiso   1.00
H424   H     0.00617   0.76686   0.23120   0.00000  Uiso   1.00
H425   H     0.23960   0.94161   0.07275   0.00000  Uiso   1.00
H426   H     0.21392   0.93131   0.01355   0.00000  Uiso   1.00
H427   H     0.30311   0.90673   0.33154   0.00000  Uiso   1.00
H428   H     0.30226   0.95964   0.01745   0.00000  Uiso   1.00
H429   H     0.32608   0.91986   0.05840   0.00000  Uiso   1.00
H430   H     0.15072   0.96267   0.09053   0.00000  Uiso   1.00
H431   H     0.18043   0.70401   0.24286   0.00000  Uiso   1.00
H432   H     0.10737   0.79000   0.03908   0.00000  Uiso   1.00
H433   H     0.22844   0.87516   0.29548   0.00000  Uiso   1.00
H434   H     0.06438   0.75883   0.10152   0.00000  Uiso   1.00
H435   H     0.04372   0.74217   0.15682   0.00000  Uiso   1.00
H436   H     0.01063   0.72463   0.10158   0.00000  Uiso   1.00
N437   N     0.16668   0.83334   0.28403   0.00000  Uiso   1.00
N438   N     0.16665   0.83332   0.04931   0.00000  Uiso   1.00
O439   O     0.16666   0.77322   0.20625   0.00000  Uiso   1.00
O440   O     0.23709   0.87986   0.05768   0.00000  Uiso   1.00
O441   O     0.16667   0.89345   0.12709   0.00000  Uiso   1.00
O442   O     0.16666   0.77321   0.12706   0.00000  Uiso   1.00
O443   O     0.16667   0.89346   0.20628   0.00000  Uiso   1.00
O444   O     0.09161   0.83334   0.19712   0.00000  Uiso   1.00
O445   O     0.24172   0.83333   0.13621   0.00000  Uiso   1.00
O446   O     0.09161   0.83333   0.11793   0.00000  Uiso   1.00
O447   O     0.24172   0.83334   0.21540   0.00000  Uiso   1.00
O448   O     0.09966   0.78390   0.27438   0.00000  Uiso   1.00
C449   C     0.49988   0.75404   0.16668   0.00000  Uiso   1.00
C450   C     0.50726   0.68795   0.20946   0.00000  Uiso   1.00
C451   C     0.49934   0.95725   0.16662   0.00000  Uiso   1.00
C452   C     0.49943   0.70943   0.16669   0.00000  Uiso   1.00
C453   C     0.46629   0.80919   0.02150   0.00000  Uiso   1.00
C454   C     0.53408   0.85710   0.31199   0.00000  Uiso   1.00
C455   C     0.46555   0.80902   0.30444   0.00000  Uiso   1.00
C456   C     0.53377   0.85792   0.02860   0.00000  Uiso   1.00
C457   C     0.66079   0.78798   0.11889   0.00000  Uiso   1.00
C458   C     0.36400   0.75134   0.11999   0.00000  Uiso   1.00
C459   C     0.33839   0.87939   0.21406   0.00000  Uiso   1.00
C460   C     0.49968   0.91263   0.16662   0.00000  Uiso   1.00
C461   C     0.63736   0.91733   0.20741   0.00000  Uiso   1.00
C462   C     0.39210   0.76592   0.29552   0.00000  Uiso   1.00
C463   C     0.35568   0.74431   0.25796   0.00000  Uiso   1.00
C464   C     0.57663   0.92097   0.04241   0.00000  Uiso   1.00
C465   C     0.63034   0.92711   0.02816   0.00000  Uiso   1.00
C466   C     0.40157   0.83231   0.15524   0.00000  Uiso   1.00
C467   C     0.59841   0.83455   0.17806   0.00000  Uiso   1.00
C468   C     0.34756   0.82371   0.15156   0.00000  Uiso   1.00
C469   C     0.65236   0.84346   0.18151   0.00000  Uiso   1.00
C470   C     0.49114   0.68801   0.12392   0.00000  Uiso   1.00
C471   C     0.50732   0.97867   0.20942   0.00000  Uiso   1.00
C472   C     0.49096   0.97872   0.12390   0.00000  Uiso   1.00
Cu473  Cu    0.50000   0.83334   0.21355   0.00000  Uiso   1.00
Cu474  Cu    0.50000   0.83333   0.11978   0.00000  Uiso   1.00
H475   H     0.48451   0.70411   0.09054   0.00000  Uiso   1.00
H476   H     0.62457   0.77460   0.12878   0.00000  Uiso   1.00
H477   H     0.65347   0.79971   0.08218   0.00000  Uiso   1.00
H478   H     0.62973   0.92549   0.16946   0.00000  Uiso   1.00
H479   H     0.60062   0.91170   0.22198   0.00000  Uiso   1.00
H480   H     0.65662   0.94395   0.22669   0.00000  Uiso   1.00
H481   H     0.34044   0.86894   0.25129   0.00000  Uiso   1.00
H482   H     0.37687   0.89082   0.20793   0.00000  Uiso   1.00
H483   H     0.37003   0.78984   0.31228   0.00000  Uiso   1.00
H484   H     0.40679   0.74216   0.32168   0.00000  Uiso   1.00
H485   H     0.37637   0.72006   0.24054   0.00000  Uiso   1.00
H486   H     0.51396   0.96258   0.24281   0.00000  Uiso   1.00
H487   H     0.65704   0.72970   0.27437   0.00000  Uiso   1.00
H488   H     0.33951   0.76686   0.23120   0.00000  Uiso   1.00
H489   H     0.57294   0.94161   0.07275   0.00000  Uiso   1.00
H490   H     0.54726   0.93131   0.01355   0.00000  Uiso   1.00
H491   H     0.63644   0.90673   0.33154   0.00000  Uiso   1.00
H492   H     0.63559   0.95964   0.01745   0.00000  Uiso   1.00
H493   H     0.65941   0.91986   0.05840   0.00000  Uiso   1.00
H494   H     0.48405   0.96267   0.09053   0.00000  Uiso   1.00
H495   H     0.51376   0.70401   0.24286   0.00000  Uiso   1.00
H496   H     0.44071   0.79000   0.03908   0.00000  Uiso   1.00
H497   H     0.56177   0.87516   0.29548   0.00000  Uiso   1.00
H498   H     0.39772   0.75883   0.10152   0.00000  Uiso   1.00
H499   H     0.37705   0.74217   0.15682   0.00000  Uiso   1.00
H500   H     0.34397   0.72463   0.10158   0.00000  Uiso   1.00
N501   N     0.50001   0.83334   0.28403   0.00000  Uiso   1.00
N502   N     0.49999   0.83332   0.04931   0.00000  Uiso   1.00
O503   O     0.50000   0.77322   0.20625   0.00000  Uiso   1.00
O504   O     0.57042   0.87986   0.05768   0.00000  Uiso   1.00
O505   O     0.50000   0.89345   0.12709   0.00000  Uiso   1.00
O506   O     0.50000   0.77321   0.12706   0.00000  Uiso   1.00
O507   O     0.50000   0.89346   0.20628   0.00000  Uiso   1.00
O508   O     0.42495   0.83334   0.19712   0.00000  Uiso   1.00
O509   O     0.57505   0.83333   0.13621   0.00000  Uiso   1.00
O510   O     0.42494   0.83333   0.11793   0.00000  Uiso   1.00
O511   O     0.57506   0.83334   0.21540   0.00000  Uiso   1.00
O512   O     0.43299   0.78390   0.27438   0.00000  Uiso   1.00
C513   C     0.83321   0.75404   0.16668   0.00000  Uiso   1.00
C514   C     0.84060   0.68795   0.20946   0.00000  Uiso   1.00
C515   C     0.83267   0.95725   0.16662   0.00000  Uiso   1.00
C516   C     0.83276   0.70943   0.16669   0.00000  Uiso   1.00
C517   C     0.79962   0.80919   0.02150   0.00000  Uiso   1.00
C518   C     0.86741   0.85710   0.31199   0.00000  Uiso   1.00
C519   C     0.79889   0.80902   0.30444   0.00000  Uiso   1.00
C520   C     0.86710   0.85792   0.02860   0.00000  Uiso   1.00
C521   C     0.99412   0.78798   0.11889   0.00000  Uiso   1.00
C522   C     0.69733   0.75134   0.11999   0.00000  Uiso   1.00
C523   C     0.67172   0.87939   0.21406   0.00000  Uiso   1.00
C524   C     0.83301   0.91263   0.16662   0.00000  Uiso   1.00
C525   C     0.97070   0.91733   0.20741   0.00000  Uiso   1.00
C526   C     0.72544   0.76592   0.29552   0.00000  Uiso   1.00
C527   C     0.68902   0.74431   0.25796   0.00000  Uiso   1.00
C528   C     0.90997   0.92097   0.04241   0.00000  Uiso   1.00
C529   C     0.96368   0.92711   0.02816   0.00000  Uiso   1.00
C530   C     0.73490   0.83231   0.15524   0.00000  Uiso   1.00
C531   C     0.93174   0.83455   0.17806   0.00000  Uiso   1.00
C532   C     0.68089   0.82371   0.15156   0.00000  Uiso   1.00
C533   C     0.98569   0.84346   0.18151   0.00000  Uiso   1.00
C534   C     0.82447   0.68801   0.12392   0.00000  Uiso   1.00
C535   C     0.84066   0.97867   0.20942   0.00000  Uiso   1.00
C536   C     0.82429   0.97872   0.12390   0.00000  Uiso   1.00
Cu537  Cu    0.83333   0.83334   0.21355   0.00000  Uiso   1.00
Cu538  Cu    0.83333   0.83333   0.11978   0.00000  Uiso   1.00
H539   H     0.81784   0.70411   0.09054   0.00000  Uiso   1.00
H540   H     0.95790   0.77460   0.12878   0.00000  Uiso   1.00
H541   H     0.98680   0.79971   0.08218   0.00000  Uiso   1.00
H542   H     0.96306   0.92549   0.16946   0.00000  Uiso   1.00
H543   H     0.93395   0.91170   0.22198   0.00000  Uiso   1.00
H544   H     0.98995   0.94395   0.22669   0.00000  Uiso   1.00
H545   H     0.67378   0.86894   0.25129   0.00000  Uiso   1.00
H546   H     0.71020   0.89082   0.20793   0.00000  Uiso   1.00
H547   H     0.70336   0.78984   0.31228   0.00000  Uiso   1.00
H548   H     0.74012   0.74216   0.32168   0.00000  Uiso   1.00
H549   H     0.70970   0.72006   0.24054   0.00000  Uiso   1.00
H550   H     0.84730   0.96258   0.24281   0.00000  Uiso   1.00
H551   H     0.99037   0.72970   0.27437   0.00000  Uiso   1.00
H552   H     0.67284   0.76686   0.23120   0.00000  Uiso   1.00
H553   H     0.90627   0.94161   0.07275   0.00000  Uiso   1.00
H554   H     0.88059   0.93131   0.01355   0.00000  Uiso   1.00
H555   H     0.96977   0.90673   0.33154   0.00000  Uiso   1.00
H556   H     0.96892   0.95964   0.01745   0.00000  Uiso   1.00
H557   H     0.99275   0.91986   0.05840   0.00000  Uiso   1.00
H558   H     0.81739   0.96267   0.09053   0.00000  Uiso   1.00
H559   H     0.84710   0.70401   0.24286   0.00000  Uiso   1.00
H560   H     0.77404   0.79000   0.03908   0.00000  Uiso   1.00
H561   H     0.89511   0.87516   0.29548   0.00000  Uiso   1.00
H562   H     0.73105   0.75883   0.10152   0.00000  Uiso   1.00
H563   H     0.71038   0.74217   0.15682   0.00000  Uiso   1.00
H564   H     0.67730   0.72463   0.10158   0.00000  Uiso   1.00
N565   N     0.83335   0.83334   0.28403   0.00000  Uiso   1.00
N566   N     0.83332   0.83332   0.04931   0.00000  Uiso   1.00
O567   O     0.83333   0.77322   0.20625   0.00000  Uiso   1.00
O568   O     0.90376   0.87986   0.05768   0.00000  Uiso   1.00
O569   O     0.83334   0.89345   0.12709   0.00000  Uiso   1.00
O570   O     0.83333   0.77321   0.12706   0.00000  Uiso   1.00
O571   O     0.83334   0.89346   0.20628   0.00000  Uiso   1.00
O572   O     0.75828   0.83334   0.19712   0.00000  Uiso   1.00
O573   O     0.90839   0.83333   0.13621   0.00000  Uiso   1.00
O574   O     0.75828   0.83333   0.11793   0.00000  Uiso   1.00
O575   O     0.90839   0.83334   0.21540   0.00000  Uiso   1.00
O576   O     0.76633   0.78390   0.27438   0.00000  Uiso   1.00
C577   C     0.16654   0.08737   0.50001   0.00000  Uiso   1.00
C578   C     0.17393   0.02129   0.54279   0.00000  Uiso   1.00
C579   C     0.16600   0.29058   0.49996   0.00000  Uiso   1.00
C580   C     0.16609   0.04276   0.50003   0.00000  Uiso   1.00
C581   C     0.13296   0.14253   0.35484   0.00000  Uiso   1.00
C582   C     0.20074   0.19043   0.64532   0.00000  Uiso   1.00
C583   C     0.13222   0.14235   0.63777   0.00000  Uiso   1.00
C584   C     0.20044   0.19126   0.36193   0.00000  Uiso   1.00
C585   C     0.32745   0.12132   0.45223   0.00000  Uiso   1.00
C586   C     0.03067   0.08467   0.45332   0.00000  Uiso   1.00
C587   C     0.00506   0.21272   0.54739   0.00000  Uiso   1.00
C588   C     0.16634   0.24596   0.49995   0.00000  Uiso   1.00
C589   C     0.30403   0.25066   0.54075   0.00000  Uiso   1.00
C590   C     0.05877   0.09926   0.62885   0.00000  Uiso   1.00
C591   C     0.02235   0.07764   0.59129   0.00000  Uiso   1.00
C592   C     0.24330   0.25430   0.37574   0.00000  Uiso   1.00
C593   C     0.29701   0.26044   0.36149   0.00000  Uiso   1.00
C594   C     0.06824   0.16564   0.48857   0.00000  Uiso   1.00
C595   C     0.26508   0.16788   0.51139   0.00000  Uiso   1.00
C596   C     0.01422   0.15704   0.48489   0.00000  Uiso   1.00
C597   C     0.31903   0.17679   0.51485   0.00000  Uiso   1.00
C598   C     0.15780   0.02134   0.45726   0.00000  Uiso   1.00
C599   C     0.17399   0.31200   0.54275   0.00000  Uiso   1.00
C600   C     0.15763   0.31205   0.45724   0.00000  Uiso   1.00
Cu601  Cu    0.16667   0.16667   0.54689   0.00000  Uiso   1.00
Cu602  Cu    0.16667   0.16666   0.45311   0.00000  Uiso   1.00
H603   H     0.15117   0.03744   0.42388   0.00000  Uiso   1.00
H604   H     0.29123   0.10794   0.46211   0.00000  Uiso   1.00
H605   H     0.32013   0.13304   0.41551   0.00000  Uiso   1.00
H606   H     0.29640   0.25882   0.50280   0.00000  Uiso   1.00
H607   H     0.26729   0.24504   0.55531   0.00000  Uiso   1.00
H608   H     0.32328   0.27728   0.56002   0.00000  Uiso   1.00
H609   H     0.00711   0.20227   0.58462   0.00000  Uiso   1.00
H610   H     0.04353   0.22415   0.54127   0.00000  Uiso   1.00
H611   H     0.03670   0.12317   0.64562   0.00000  Uiso   1.00
H612   H     0.07346   0.07550   0.65501   0.00000  Uiso   1.00
H613   H     0.04304   0.05339   0.57388   0.00000  Uiso   1.00
H614   H     0.18063   0.29591   0.57614   0.00000  Uiso   1.00
H615   H     0.32371   0.06303   0.60770   0.00000  Uiso   1.00
H616   H     0.00617   0.10020   0.56453   0.00000  Uiso   1.00
H617   H     0.23960   0.27494   0.40608   0.00000  Uiso   1.00
H618   H     0.21392   0.26465   0.34688   0.00000  Uiso   1.00
H619   H     0.30311   0.24006   0.66487   0.00000  Uiso   1.00
H620   H     0.30226   0.29298   0.35078   0.00000  Uiso   1.00
H621   H     0.32608   0.25320   0.39173   0.00000  Uiso   1.00
H622   H     0.15072   0.29600   0.42387   0.00000  Uiso   1.00
H623   H     0.18043   0.03734   0.57620   0.00000  Uiso   1.00
H624   H     0.10737   0.12333   0.37242   0.00000  Uiso   1.00
H625   H     0.22844   0.20849   0.62882   0.00000  Uiso   1.00
H626   H     0.06438   0.09216   0.43485   0.00000  Uiso   1.00
H627   H     0.04372   0.07550   0.49016   0.00000  Uiso   1.00
H628   H     0.01063   0.05796   0.43491   0.00000  Uiso   1.00
N629   N     0.16668   0.16668   0.61736   0.00000  Uiso   1.00
N630   N     0.16665   0.16666   0.38264   0.00000  Uiso   1.00
O631   O     0.16666   0.10655   0.53958   0.00000  Uiso   1.00
O632   O     0.23709   0.21319   0.39101   0.00000  Uiso   1.00
O633   O     0.16667   0.22678   0.46042   0.00000  Uiso   1.00
O634   O     0.16666   0.10654   0.46039   0.00000  Uiso   1.00
O635   O     0.16667   0.22679   0.53961   0.00000  Uiso   1.00
O636   O     0.09161   0.16667   0.53046   0.00000  Uiso   1.00
O637   O     0.24172   0.16666   0.46954   0.00000  Uiso   1.00
O638   O     0.09161   0.16666   0.45127   0.00000  Uiso   1.00
O639   O     0.24172   0.16667   0.54873   0.00000  Uiso   1.00
O640   O     0.09966   0.11723   0.60771   0.00000  Uiso   1.00
C641   C     0.49988   0.08737   0.50001   0.00000  Uiso   1.00
C642   C     0.50726   0.02129   0.54279   0.00000  Uiso   1.00
C643   C     0.49934   0.29058   0.49996   0.00000  Uiso   1.00
C644   C     0.49943   0.04276   0.50003   0.00000  Uiso   1.00
C645   C     0.46629   0.14253   0.35484   0.00000  Uiso   1.00
C646   C     0.53408   0.19043   0.64532   0.00000  Uiso   1.00
C647   C     0.46555   0.14235   0.63777   0.00000  Uiso   1.00
C648   C     0.53377   0.19126   0.36193   0.00000  Uiso   1.00
C649   C     0.66079   0.12132   0.45223   0.00000  Uiso   1.00
C650   C     0.36400   0.08467   0.45332   0.00000  Uiso   1.00
C651   C     0.33839   0.21272   0.54739   0.00000  Uiso   1.00
C652   C     0.49968   0.24596   0.49995   0.00000  Uiso   1.00
C653   C     0.63736   0.25066   0.54075   0.00000  Uiso   1.00
C654   C     0.39210   0.09926   0.62885   0.00000  Uiso   1.00
C655   C     0.35568   0.07764   0.59129   0.00000  Uiso   1.00
C656   C     0.57663   0.25430   0.37574   0.00000  Uiso   1.00
C657   C     0.63034   0.26044   0.36149   0.00000  Uiso   1.00
C658   C     0.40157   0.16564   0.48857   0.00000  Uiso   1.00
C659   C     0.59841   0.16788   0.51139   0.00000  Uiso   1.00
C660   C     0.34756   0.15704   0.48489   0.00000  Uiso   1.00
C661   C     0.65236   0.17679   0.51485   0.00000  Uiso   1.00
C662   C     0.49114   0.02134   0.45726   0.00000  Uiso   1.00
C663   C     0.50732   0.31200   0.54275   0.00000  Uiso   1.00
C664   C     0.49096   0.31205   0.45724   0.00000  Uiso   1.00
Cu665  Cu    0.50000   0.16667   0.54689   0.00000  Uiso   1.00
Cu666  Cu    0.50000   0.16666   0.45311   0.00000  Uiso   1.00
H667   H     0.48451   0.03744   0.42388   0.00000  Uiso   1.00
H668   H     0.62457   0.10794   0.46211   0.00000  Uiso   1.00
H669   H     0.65347   0.13304   0.41551   0.00000  Uiso   1.00
H670   H     0.62973   0.25882   0.50280   0.00000  Uiso   1.00
H671   H     0.60062   0.24504   0.55531   0.00000  Uiso   1.00
H672   H     0.65662   0.27728   0.56002   0.00000  Uiso   1.00
H673   H     0.34044   0.20227   0.58462   0.00000  Uiso   1.00
H674   H     0.37687   0.22415   0.54127   0.00000  Uiso   1.00
H675   H     0.37003   0.12317   0.64562   0.00000  Uiso   1.00
H676   H     0.40679   0.07550   0.65501   0.00000  Uiso   1.00
H677   H     0.37637   0.05339   0.57388   0.00000  Uiso   1.00
H678   H     0.51396   0.29591   0.57614   0.00000  Uiso   1.00
H679   H     0.65704   0.06303   0.60770   0.00000  Uiso   1.00
H680   H     0.33951   0.10020   0.56453   0.00000  Uiso   1.00
H681   H     0.57294   0.27494   0.40608   0.00000  Uiso   1.00
H682   H     0.54726   0.26465   0.34688   0.00000  Uiso   1.00
H683   H     0.63644   0.24006   0.66487   0.00000  Uiso   1.00
H684   H     0.63559   0.29298   0.35078   0.00000  Uiso   1.00
H685   H     0.65941   0.25320   0.39173   0.00000  Uiso   1.00
H686   H     0.48405   0.29600   0.42387   0.00000  Uiso   1.00
H687   H     0.51376   0.03734   0.57620   0.00000  Uiso   1.00
H688   H     0.44071   0.12333   0.37242   0.00000  Uiso   1.00
H689   H     0.56177   0.20849   0.62882   0.00000  Uiso   1.00
H690   H     0.39772   0.09216   0.43485   0.00000  Uiso   1.00
H691   H     0.37705   0.07550   0.49016   0.00000  Uiso   1.00
H692   H     0.34397   0.05796   0.43491   0.00000  Uiso   1.00
N693   N     0.50001   0.16668   0.61736   0.00000  Uiso   1.00
N694   N     0.49999   0.16666   0.38264   0.00000  Uiso   1.00
O695   O     0.50000   0.10655   0.53958   0.00000  Uiso   1.00
O696   O     0.57042   0.21319   0.39101   0.00000  Uiso   1.00
O697   O     0.50000   0.22678   0.46042   0.00000  Uiso   1.00
O698   O     0.50000   0.10654   0.46039   0.00000  Uiso   1.00
O699   O     0.50000   0.22679   0.53961   0.00000  Uiso   1.00
O700   O     0.42495   0.16667   0.53046   0.00000  Uiso   1.00
O701   O     0.57505   0.16666   0.46954   0.00000  Uiso   1.00
O702   O     0.42494   0.16666   0.45127   0.00000  Uiso   1.00
O703   O     0.57506   0.16667   0.54873   0.00000  Uiso   1.00
O704   O     0.43299   0.11723   0.60771   0.00000  Uiso   1.00
C705   C     0.83321   0.08737   0.50001   0.00000  Uiso   1.00
C706   C     0.84060   0.02129   0.54279   0.00000  Uiso   1.00
C707   C     0.83267   0.29058   0.49996   0.00000  Uiso   1.00
C708   C     0.83276   0.04276   0.50003   0.00000  Uiso   1.00
C709   C     0.79962   0.14253   0.35484   0.00000  Uiso   1.00
C710   C     0.86741   0.19043   0.64532   0.00000  Uiso   1.00
C711   C     0.79889   0.14235   0.63777   0.00000  Uiso   1.00
C712   C     0.86710   0.19126   0.36193   0.00000  Uiso   1.00
C713   C     0.99412   0.12132   0.45223   0.00000  Uiso   1.00
C714   C     0.69733   0.08467   0.45332   0.00000  Uiso   1.00
C715   C     0.67172   0.21272   0.54739   0.00000  Uiso   1.00
C716   C     0.83301   0.24596   0.49995   0.00000  Uiso   1.00
C717   C     0.97070   0.25066   0.54075   0.00000  Uiso   1.00
C718   C     0.72544   0.09926   0.62885   0.00000  Uiso   1.00
C719   C     0.68902   0.07764   0.59129   0.00000  Uiso   1.00
C720   C     0.90997   0.25430   0.37574   0.00000  Uiso   1.00
C721   C     0.96368   0.26044   0.36149   0.00000  Uiso   1.00
C722   C     0.73490   0.16564   0.48857   0.00000  Uiso   1.00
C723   C     0.93174   0.16788   0.51139   0.00000  Uiso   1.00
C724   C     0.68089   0.15704   0.48489   0.00000  Uiso   1.00
C725   C     0.98569   0.17679   0.51485   0.00000  Uiso   1.00
C726   C     0.82447   0.02134   0.45726   0.00000  Uiso   1.00
C727   C     0.84066   0.31200   0.54275   0.00000  Uiso   1.00
C728   C     0.82429   0.31205   0.45724   0.00000  Uiso   1.00
Cu729  Cu    0.83333   0.16667   0.54689   0.00000  Uiso   1.00
Cu730  Cu    0.83333   0.16666   0.45311   0.00000  Uiso   1.00
H731   H     0.81784   0.03744   0.42388   0.00000  Uiso   1.00
H732   H     0.95790   0.10794   0.46211   0.00000  Uiso   1.00
H733   H     0.98680   0.13304   0.41551   0.00000  Uiso   1.00
H734   H     0.96306   0.25882   0.50280   0.00000  Uiso   1.00
H735   H     0.93395   0.24504   0.55531   0.00000  Uiso   1.00
H736   H     0.98995   0.27728   0.56002   0.00000  Uiso   1.00
H737   H     0.67378   0.20227   0.58462   0.00000  Uiso   1.00
H738   H     0.71020   0.22415   0.54127   0.00000  Uiso   1.00
H739   H     0.70336   0.12317   0.64562   0.00000  Uiso   1.00
H740   H     0.74012   0.07550   0.65501   0.00000  Uiso   1.00
H741   H     0.70970   0.05339   0.57388   0.00000  Uiso   1.00
H742   H     0.84730   0.29591   0.57614   0.00000  Uiso   1.00
H743   H     0.99037   0.06303   0.60770   0.00000  Uiso   1.00
H744   H     0.67284   0.10020   0.56453   0.00000  Uiso   1.00
H745   H     0.90627   0.27494   0.40608   0.00000  Uiso   1.00
H746   H     0.88059   0.26465   0.34688   0.00000  Uiso   1.00
H747   H     0.96977   0.24006   0.66487   0.00000  Uiso   1.00
H748   H     0.96892   0.29298   0.35078   0.00000  Uiso   1.00
H749   H     0.99275   0.25320   0.39173   0.00000  Uiso   1.00
H750   H     0.81739   0.29600   0.42387   0.00000  Uiso   1.00
H751   H     0.84710   0.03734   0.57620   0.00000  Uiso   1.00
H752   H     0.77404   0.12333   0.37242   0.00000  Uiso   1.00
H753   H     0.89511   0.20849   0.62882   0.00000  Uiso   1.00
H754   H     0.73105   0.09216   0.43485   0.00000  Uiso   1.00
H755   H     0.71038   0.07550   0.49016   0.00000  Uiso   1.00
H756   H     0.67730   0.05796   0.43491   0.00000  Uiso   1.00
N757   N     0.83335   0.16668   0.61736   0.00000  Uiso   1.00
N758   N     0.83332   0.16666   0.38264   0.00000  Uiso   1.00
O759   O     0.83333   0.10655   0.53958   0.00000  Uiso   1.00
O760   O     0.90376   0.21319   0.39101   0.00000  Uiso   1.00
O761   O     0.83334   0.22678   0.46042   0.00000  Uiso   1.00
O762   O     0.83333   0.10654   0.46039   0.00000  Uiso   1.00
O763   O     0.83334   0.22679   0.53961   0.00000  Uiso   1.00
O764   O     0.75828   0.16667   0.53046   0.00000  Uiso   1.00
O765   O     0.90839   0.16666   0.46954   0.00000  Uiso   1.00
O766   O     0.75828   0.16666   0.45127   0.00000  Uiso   1.00
O767   O     0.90839   0.16667   0.54873   0.00000  Uiso   1.00
O768   O     0.76633   0.11723   0.60771   0.00000  Uiso   1.00
C769   C     0.16654   0.42071   0.50001   0.00000  Uiso   1.00
C770   C     0.17393   0.35462   0.54279   0.00000  Uiso   1.00
C771   C     0.16600   0.62391   0.49996   0.00000  Uiso   1.00
C772   C     0.16609   0.37609   0.50003   0.00000  Uiso   1.00
C773   C     0.13296   0.47586   0.35484   0.00000  Uiso   1.00
C774   C     0.20074   0.52377   0.64532   0.00000  Uiso   1.00
C775   C     0.13222   0.47568   0.63777   0.00000  Uiso   1.00
C776   C     0.20044   0.52459   0.36193   0.00000  Uiso   1.00
C777   C     0.32745   0.45465   0.45223   0.00000  Uiso   1.00
C778   C     0.03067   0.41800   0.45332   0.00000  Uiso   1.00
C779   C     0.00506   0.54605   0.54739   0.00000  Uiso   1.00
C780   C     0.16634   0.57930   0.49995   0.00000  Uiso   1.00
C781   C     0.30403   0.58400   0.54075   0.00000  Uiso   1.00
C782   C     0.05877   0.43259   0.62885   0.00000  Uiso   1.00
C783   C     0.02235   0.41097   0.59129   0.00000  Uiso   1.00
C784   C     0.24330   0.58764   0.37574   0.00000  Uiso   1.00
C785   C     0.29701   0.59377   0.36149   0.00000  Uiso   1.00
C786   C     0.06824   0.49897   0.48857   0.00000  Uiso   1.00
C787   C     0.26508   0.50122   0.51139   0.00000  Uiso   1.00
C788   C     0.01422   0.49038   0.48489   0.00000  Uiso   1.00
C789   C     0.31903   0.51013   0.51485   0.00000  Uiso   1.00
C790   C     0.15780   0.35468   0.45726   0.00000  Uiso   1.00
C791   C     0.17399   0.64533   0.54275   0.00000  Uiso   1.00
C792   C     0.15763   0.64539   0.45724   0.00000  Uiso   1.00
Cu793  Cu    0.16667   0.50001   0.54689   0.00000  Uiso   1.00
Cu794  Cu    0.16667   0.49999   0.45311   0.00000  Uiso   1.00
H795   H     0.15117   0.37078   0.42388   0.00000  Uiso   1.00
H796   H     0.29123   0.44127   0.46211   0.00000  Uiso   1.00
H797   H     0.32013   0.46637   0.41551   0.00000  Uiso   1.00
H798   H     0.29640   0.59216   0.50280   0.00000  Uiso   1.00
H799   H     0.26729   0.57837   0.55531   0.00000  Uiso   1.00
H800   H     0.32328   0.61061   0.56002   0.00000  Uiso   1.00
H801   H     0.00711   0.53560   0.58462   0.00000  Uiso   1.00
H802   H     0.04353   0.55749   0.54127   0.00000  Uiso   1.00
H803   H     0.03670   0.45651   0.64562   0.00000  Uiso   1.00
H804   H     0.07346   0.40883   0.65501   0.00000  Uiso   1.00
H805   H     0.04304   0.38673   0.57388   0.00000  Uiso   1.00
H806   H     0.18063   0.62924   0.57614   0.00000  Uiso   1.00
H807   H     0.32371   0.39637   0.60770   0.00000  Uiso   1.00
H808   H     0.00617   0.43353   0.56453   0.00000  Uiso   1.00
H809   H     0.23960   0.60828   0.40608   0.00000  Uiso   1.00
H810   H     0.21392   0.59798   0.34688   0.00000  Uiso   1.00
H811   H     0.30311   0.57340   0.66487   0.00000  Uiso   1.00
H812   H     0.30226   0.62631   0.35078   0.00000  Uiso   1.00
H813   H     0.32608   0.58653   0.39173   0.00000  Uiso   1.00
H814   H     0.15072   0.62933   0.42387   0.00000  Uiso   1.00
H815   H     0.18043   0.37067   0.57620   0.00000  Uiso   1.00
H816   H     0.10737   0.45666   0.37242   0.00000  Uiso   1.00
H817   H     0.22844   0.54183   0.62882   0.00000  Uiso   1.00
H818   H     0.06438   0.42549   0.43485   0.00000  Uiso   1.00
H819   H     0.04372   0.40884   0.49016   0.00000  Uiso   1.00
H820   H     0.01063   0.39129   0.43491   0.00000  Uiso   1.00
N821   N     0.16668   0.50001   0.61736   0.00000  Uiso   1.00
N822   N     0.16665   0.49999   0.38264   0.00000  Uiso   1.00
O823   O     0.16666   0.43989   0.53958   0.00000  Uiso   1.00
O824   O     0.23709   0.54653   0.39101   0.00000  Uiso   1.00
O825   O     0.16667   0.56011   0.46042   0.00000  Uiso   1.00
O826   O     0.16666   0.43988   0.46039   0.00000  Uiso   1.00
O827   O     0.16667   0.56012   0.53961   0.00000  Uiso   1.00
O828   O     0.09161   0.50000   0.53046   0.00000  Uiso   1.00
O829   O     0.24172   0.50000   0.46954   0.00000  Uiso   1.00
O830   O     0.09161   0.49999   0.45127   0.00000  Uiso   1.00
O831   O     0.24172   0.50001   0.54873   0.00000  Uiso   1.00
O832   O     0.09966   0.45056   0.60771   0.00000  Uiso   1.00
C833   C     0.49988   0.42071   0.50001   0.00000  Uiso   1.00
C834   C     0.50726   0.35462   0.54279   0.00000  Uiso   1.00
C835   C     0.49934   0.62391   0.49996   0.00000  Uiso   1.00
C836   C     0.49943   0.37609   0.50003   0.00000  Uiso   1.00
C837   C     0.46629   0.47586   0.35484   0.00000  Uiso   1.00
C838   C     0.53408   0.52377   0.64532   0.00000  Uiso   1.00
C839   C     0.46555   0.47568   0.63777   0.00000  Uiso   1.00
C840   C     0.53377   0.52459   0.36193   0.00000  Uiso   1.00
C841   C     0.66079   0.45465   0.45223   0.00000  Uiso   1.00
C842   C     0.36400   0.41800   0.45332   0.00000  Uiso   1.00
C843   C     0.33839   0.54605   0.54739   0.00000  Uiso   1.00
C844   C     0.49968   0.57930   0.49995   0.00000  Uiso   1.00
C845   C     0.63736   0.58400   0.54075   0.00000  Uiso   1.00
C846   C     0.39210   0.43259   0.62885   0.00000  Uiso   1.00
C847   C     0.35568   0.41097   0.59129   0.00000  Uiso   1.00
C848   C     0.57663   0.58764   0.37574   0.00000  Uiso   1.00
C849   C     0.63034   0.59377   0.36149   0.00000  Uiso   1.00
C850   C     0.40157   0.49897   0.48857   0.00000  Uiso   1.00
C851   C     0.59841   0.50122   0.51139   0.00000  Uiso   1.00
C852   C     0.34756   0.49038   0.48489   0.00000  Uiso   1.00
C853   C     0.65236   0.51013   0.51485   0.00000  Uiso   1.00
C854   C     0.49114   0.35468   0.45726   0.00000  Uiso   1.00
C855   C     0.50732   0.64533   0.54275   0.00000  Uiso   1.00
C856   C     0.49096   0.64539   0.45724   0.00000  Uiso   1.00
Cu857  Cu    0.50000   0.50001   0.54689   0.00000  Uiso   1.00
Cu858  Cu    0.50000   0.49999   0.45311   0.00000  Uiso   1.00
H859   H     0.48451   0.37078   0.42388   0.00000  Uiso   1.00
H860   H     0.62457   0.44127   0.46211   0.00000  Uiso   1.00
H861   H     0.65347   0.46637   0.41551   0.00000  Uiso   1.00
H862   H     0.62973   0.59216   0.50280   0.00000  Uiso   1.00
H863   H     0.60062   0.57837   0.55531   0.00000  Uiso   1.00
H864   H     0.65662   0.61061   0.56002   0.00000  Uiso   1.00
H865   H     0.34044   0.53560   0.58462   0.00000  Uiso   1.00
H866   H     0.37687   0.55749   0.54127   0.00000  Uiso   1.00
H867   H     0.37003   0.45651   0.64562   0.00000  Uiso   1.00
H868   H     0.40679   0.40883   0.65501   0.00000  Uiso   1.00
H869   H     0.37637   0.38673   0.57388   0.00000  Uiso   1.00
H870   H     0.51396   0.62924   0.57614   0.00000  Uiso   1.00
H871   H     0.65704   0.39637   0.60770   0.00000  Uiso   1.00
H872   H     0.33951   0.43353   0.56453   0.00000  Uiso   1.00
H873   H     0.57294   0.60828   0.40608   0.00000  Uiso   1.00
H874   H     0.54726   0.59798   0.34688   0.00000  Uiso   1.00
H875   H     0.63644   0.57340   0.66487   0.00000  Uiso   1.00
H876   H     0.63559   0.62631   0.35078   0.00000  Uiso   1.00
H877   H     0.65941   0.58653   0.39173   0.00000  Uiso   1.00
H878   H     0.48405   0.62933   0.42387   0.00000  Uiso   1.00
H879   H     0.51376   0.37067   0.57620   0.00000  Uiso   1.00
H880   H     0.44071   0.45666   0.37242   0.00000  Uiso   1.00
H881   H     0.56177   0.54183   0.62882   0.00000  Uiso   1.00
H882   H     0.39772   0.42549   0.43485   0.00000  Uiso   1.00
H883   H     0.37705   0.40884   0.49016   0.00000  Uiso   1.00
H884   H     0.34397   0.39129   0.43491   0.00000  Uiso   1.00
N885   N     0.50001   0.50001   0.61736   0.00000  Uiso   1.00
N886   N     0.49999   0.49999   0.38264   0.00000  Uiso   1.00
O887   O     0.50000   0.43989   0.53958   0.00000  Uiso   1.00
O888   O     0.57042   0.54653   0.39101   0.00000  Uiso   1.00
O889   O     0.50000   0.56011   0.46042   0.00000  Uiso   1.00
O890   O     0.50000   0.43988   0.46039   0.00000  Uiso   1.00
O891   O     0.50000   0.56012   0.53961   0.00000  Uiso   1.00
O892   O     0.42495   0.50000   0.53046   0.00000  Uiso   1.00
O893   O     0.57505   0.50000   0.46954   0.00000  Uiso   1.00
O894   O     0.42494   0.49999   0.45127   0.00000  Uiso   1.00
O895   O     0.57506   0.50001   0.54873   0.00000  Uiso   1.00
O896   O     0.43299   0.45056   0.60771   0.00000  Uiso   1.00
C897   C     0.83321   0.42071   0.50001   0.00000  Uiso   1.00
C898   C     0.84060   0.35462   0.54279   0.00000  Uiso   1.00
C899   C     0.83267   0.62391   0.49996   0.00000  Uiso   1.00
C900   C     0.83276   0.37609   0.50003   0.00000  Uiso   1.00
C901   C     0.79962   0.47586   0.35484   0.00000  Uiso   1.00
C902   C     0.86741   0.52377   0.64532   0.00000  Uiso   1.00
C903   C     0.79889   0.47568   0.63777   0.00000  Uiso   1.00
C904   C     0.86710   0.52459   0.36193   0.00000  Uiso   1.00
C905   C     0.99412   0.45465   0.45223   0.00000  Uiso   1.00
C906   C     0.69733   0.41800   0.45332   0.00000  Uiso   1.00
C907   C     0.67172   0.54605   0.54739   0.00000  Uiso   1.00
C908   C     0.83301   0.57930   0.49995   0.00000  Uiso   1.00
C909   C     0.97070   0.58400   0.54075   0.00000  Uiso   1.00
C910   C     0.72544   0.43259   0.62885   0.00000  Uiso   1.00
C911   C     0.68902   0.41097   0.59129   0.00000  Uiso   1.00
C912   C     0.90997   0.58764   0.37574   0.00000  Uiso   1.00
C913   C     0.96368   0.59377   0.36149   0.00000  Uiso   1.00
C914   C     0.73490   0.49897   0.48857   0.00000  Uiso   1.00
C915   C     0.93174   0.50122   0.51139   0.00000  Uiso   1.00
C916   C     0.68089   0.49038   0.48489   0.00000  Uiso   1.00
C917   C     0.98569   0.51013   0.51485   0.00000  Uiso   1.00
C918   C     0.82447   0.35468   0.45726   0.00000  Uiso   1.00
C919   C     0.84066   0.64533   0.54275   0.00000  Uiso   1.00
C920   C     0.82429   0.64539   0.45724   0.00000  Uiso   1.00
Cu921  Cu    0.83333   0.50001   0.54689   0.00000  Uiso   1.00
Cu922  Cu    0.83333   0.49999   0.45311   0.00000  Uiso   1.00
H923   H     0.81784   0.37078   0.42388   0.00000  Uiso   1.00
H924   H     0.95790   0.44127   0.46211   0.00000  Uiso   1.00
H925   H     0.98680   0.46637   0.41551   0.00000  Uiso   1.00
H926   H     0.96306   0.59216   0.50280   0.00000  Uiso   1.00
H927   H     0.93395   0.57837   0.55531   0.00000  Uiso   1.00
H928   H     0.98995   0.61061   0.56002   0.00000  Uiso   1.00
H929   H     0.67378   0.53560   0.58462   0.00000  Uiso   1.00
H930   H     0.71020   0.55749   0.54127   0.00000  Uiso   1.00
H931   H     0.70336   0.45651   0.64562   0.00000  Uiso   1.00
H932   H     0.74012   0.40883   0.65501   0.00000  Uiso   1.00
H933   H     0.70970   0.38673   0.57388   0.00000  Uiso   1.00
H934   H     0.84730   0.62924   0.57614   0.00000  Uiso   1.00
H935   H     0.99037   0.39637   0.60770   0.00000  Uiso   1.00
H936   H     0.67284   0.43353   0.56453   0.00000  Uiso   1.00
H937   H     0.90627   0.60828   0.40608   0.00000  Uiso   1.00
H938   H     0.88059   0.59798   0.34688   0.00000  Uiso   1.00
H939   H     0.96977   0.57340   0.66487   0.00000  Uiso   1.00
H940   H     0.96892   0.62631   0.35078   0.00000  Uiso   1.00
H941   H     0.99275   0.58653   0.39173   0.00000  Uiso   1.00
H942   H     0.81739   0.62933   0.42387   0.00000  Uiso   1.00
H943   H     0.84710   0.37067   0.57620   0.00000  Uiso   1.00
H944   H     0.77404   0.45666   0.37242   0.00000  Uiso   1.00
H945   H     0.89511   0.54183   0.62882   0.00000  Uiso   1.00
H946   H     0.73105   0.42549   0.43485   0.00000  Uiso   1.00
H947   H     0.71038   0.40884   0.49016   0.00000  Uiso   1.00
H948   H     0.67730   0.39129   0.43491   0.00000  Uiso   1.00
N949   N     0.83335   0.50001   0.61736   0.00000  Uiso   1.00
N950   N     0.83332   0.49999   0.38264   0.00000  Uiso   1.00
O951   O     0.83333   0.43989   0.53958   0.00000  Uiso   1.00
O952   O     0.90376   0.54653   0.39101   0.00000  Uiso   1.00
O953   O     0.83334   0.56011   0.46042   0.00000  Uiso   1.00
O954   O     0.83333   0.43988   0.46039   0.00000  Uiso   1.00
O955   O     0.83334   0.56012   0.53961   0.00000  Uiso   1.00
O956   O     0.75828   0.50000   0.53046   0.00000  Uiso   1.00
O957   O     0.90839   0.50000   0.46954   0.00000  Uiso   1.00
O958   O     0.75828   0.49999   0.45127   0.00000  Uiso   1.00
O959   O     0.90839   0.50001   0.54873   0.00000  Uiso   1.00
O960   O     0.76633   0.45056   0.60771   0.00000  Uiso   1.00
C961   C     0.16654   0.75404   0.50001   0.00000  Uiso   1.00
C962   C     0.17393   0.68795   0.54279   0.00000  Uiso   1.00
C963   C     0.16600   0.95725   0.49996   0.00000  Uiso   1.00
C964   C     0.16609   0.70943   0.50003   0.00000  Uiso   1.00
C965   C     0.13296   0.80919   0.35484   0.00000  Uiso   1.00
C966   C     0.20074   0.85710   0.64532   0.00000  Uiso   1.00
C967   C     0.13222   0.80902   0.63777   0.00000  Uiso   1.00
C968   C     0.20044   0.85792   0.36193   0.00000  Uiso   1.00
C969   C     0.32745   0.78798   0.45223   0.00000  Uiso   1.00
C970   C     0.03067   0.75134   0.45332   0.00000  Uiso   1.00
C971   C     0.00506   0.87939   0.54739   0.00000  Uiso   1.00
C972   C     0.16634   0.91263   0.49995   0.00000  Uiso   1.00
C973   C     0.30403   0.91733   0.54075   0.00000  Uiso   1.00
C974   C     0.05877   0.76592   0.62885   0.00000  Uiso   1.00
C975   C     0.02235   0.74431   0.59129   0.00000  Uiso   1.00
C976   C     0.24330   0.92097   0.37574   0.00000  Uiso   1.00
C977   C     0.29701   0.92711   0.36149   0.00000  Uiso   1.00
C978   C     0.06824   0.83231   0.48857   0.00000  Uiso   1.00
C979   C     0.26508   0.83455   0.51139   0.00000  Uiso   1.00
C980   C     0.01422   0.82371   0.48489   0.00000  Uiso   1.00
C981   C     0.31903   0.84346   0.51485   0.00000  Uiso   1.00
C982   C     0.15780   0.68801   0.45726   0.00000  Uiso   1.00
C983   C     0.17399   0.97867   0.54275   0.00000  Uiso   1.00
C984   C     0.15763   0.97872   0.45724   0.00000  Uiso   1.00
Cu985  Cu    0.16667   0.83334   0.54689   0.00000  Uiso   1.00
Cu986  Cu    0.16667   0.83333   0.45311   0.00000  Uiso   1.00
H987   H     0.15117   0.70411   0.42388   0.00000  Uiso   1.00
H988   H     0.29123   0.77460   0.46211   0.00000  Uiso   1.00
H989   H     0.32013   0.79971   0.41551   0.00000  Uiso   1.00
H990   H     0.29640   0.92549   0.50280   0.00000  Uiso   1.00
H991   H     0.26729   0.91170   0.55531   0.00000  Uiso   1.00
H992   H     0.32328   0.94395   0.56002   0.00000  Uiso   1.00
H993   H     0.00711   0.86894   0.58462   0.00000  Uiso   1.00
H994   H     0.04353   0.89082   0.54127   0.00000  Uiso   1.00
H995   H     0.03670   0.78984   0.64562   0.00000  Uiso   1.00
H996   H     0.07346   0.74216   0.65501   0.00000  Uiso   1.00
H997   H     0.04304   0.72006   0.57388   0.00000  Uiso   1.00
H998   H     0.18063   0.96258   0.57614   0.00000  Uiso   1.00
H999   H     0.32371   0.72970   0.60770   0.00000  Uiso   1.00
H1000  H     0.00617   0.76686   0.56453   0.00000  Uiso   1.00
H1001  H     0.23960   0.94161   0.40608   0.00000  Uiso   1.00
H1002  H     0.21392   0.93131   0.34688   0.00000  Uiso   1.00
H1003  H     0.30311   0.90673   0.66487   0.00000  Uiso   1.00
H1004  H     0.30226   0.95964   0.35078   0.00000  Uiso   1.00
H1005  H     0.32608   0.91986   0.39173   0.00000  Uiso   1.00
H1006  H     0.15072   0.96267   0.42387   0.00000  Uiso   1.00
H1007  H     0.18043   0.70401   0.57620   0.00000  Uiso   1.00
H1008  H     0.10737   0.79000   0.37242   0.00000  Uiso   1.00
H1009  H     0.22844   0.87516   0.62882   0.00000  Uiso   1.00
H1010  H     0.06438   0.75883   0.43485   0.00000  Uiso   1.00
H1011  H     0.04372   0.74217   0.49016   0.00000  Uiso   1.00
H1012  H     0.01063   0.72463   0.43491   0.00000  Uiso   1.00
N1013  N     0.16668   0.83334   0.61736   0.00000  Uiso   1.00
N1014  N     0.16665   0.83332   0.38264   0.00000  Uiso   1.00
O1015  O     0.16666   0.77322   0.53958   0.00000  Uiso   1.00
O1016  O     0.23709   0.87986   0.39101   0.00000  Uiso   1.00
O1017  O     0.16667   0.89345   0.46042   0.00000  Uiso   1.00
O1018  O     0.16666   0.77321   0.46039   0.00000  Uiso   1.00
O1019  O     0.16667   0.89346   0.53961   0.00000  Uiso   1.00
O1020  O     0.09161   0.83334   0.53046   0.00000  Uiso   1.00
O1021  O     0.24172   0.83333   0.46954   0.00000  Uiso   1.00
O1022  O     0.09161   0.83333   0.45127   0.00000  Uiso   1.00
O1023  O     0.24172   0.83334   0.54873   0.00000  Uiso   1.00
O1024  O     0.09966   0.78390   0.60771   0.00000  Uiso   1.00
C1025  C     0.49988   0.75404   0.50001   0.00000  Uiso   1.00
C1026  C     0.50726   0.68795   0.54279   0.00000  Uiso   1.00
C1027  C     0.49934   0.95725   0.49996   0.00000  Uiso   1.00
C1028  C     0.49943   0.70943   0.50003   0.00000  Uiso   1.00
C1029  C     0.46629   0.80919   0.35484   0.00000  Uiso   1.00
C1030  C     0.53408   0.85710   0.64532   0.00000  Uiso   1.00
C1031  C     0.46555   0.80902   0.63777   0.00000  Uiso   1.00
C1032  C     0.53377   0.85792   0.36193   0.00000  Uiso   1.00
C1033  C     0.66079   0.78798   0.45223   0.00000  Uiso   1.00
C1034  C     0.36400   0.75134   0.45332   0.00000  Uiso   1.00
C1035  C     0.33839   0.87939   0.54739   0.00000  Uiso   1.00
C1036  C     0.49968   0.91263   0.49995   0.00000  Uiso   1.00
C1037  C     0.63736   0.91733   0.54075   0.00000  Uiso   1.00
C1038  C     0.39210   0.76592   0.62885   0.00000  Uiso   1.00
C1039  C     0.35568   0.74431   0.59129   0.00000  Uiso   1.00
C1040  C     0.57663   0.92097   0.37574   0.00000  Uiso   1.00
C1041  C     0.63034   0.92711   0.36149   0.00000  Uiso   1.00
C1042  C     0.40157   0.83231   0.48857   0.00000  Uiso   1.00
C1043  C     0.59841   0.83455   0.51139   0.00000  Uiso   1.00
C1044  C     0.34756   0.82371   0.48489   0.00000  Uiso   1.00
C1045  C     0.65236   0.84346   0.51485   0.00000  Uiso   1.00
C1046  C     0.49114   0.68801   0.45726   0.00000  Uiso   1.00
C1047  C     0.50732   0.97867   0.54275   0.00000  Uiso   1.00
C1048  C     0.49096   0.97872   0.45724   0.00000  Uiso   1.00
Cu1049 Cu    0.50000   0.83334   0.54689   0.00000  Uiso   1.00
Cu1050 Cu    0.50000   0.83333   0.45311   0.00000  Uiso   1.00
H1051  H     0.48451   0.70411   0.42388   0.00000  Uiso   1.00
H1052  H     0.62457   0.77460   0.46211   0.00000  Uiso   1.00
H1053  H     0.65347   0.79971   0.41551   0.00000  Uiso   1.00
H1054  H     0.62973   0.92549   0.50280   0.00000  Uiso   1.00
H1055  H     0.60062   0.91170   0.55531   0.00000  Uiso   1.00
H1056  H     0.65662   0.94395   0.56002   0.00000  Uiso   1.00
H1057  H     0.34044   0.86894   0.58462   0.00000  Uiso   1.00
H1058  H     0.37687   0.89082   0.54127   0.00000  Uiso   1.00
H1059  H     0.37003   0.78984   0.64562   0.00000  Uiso   1.00
H1060  H     0.40679   0.74216   0.65501   0.00000  Uiso   1.00
H1061  H     0.37637   0.72006   0.57388   0.00000  Uiso   1.00
H1062  H     0.51396   0.96258   0.57614   0.00000  Uiso   1.00
H1063  H     0.65704   0.72970   0.60770   0.00000  Uiso   1.00
H1064  H     0.33951   0.76686   0.56453   0.00000  Uiso   1.00
H1065  H     0.57294   0.94161   0.40608   0.00000  Uiso   1.00
H1066  H     0.54726   0.93131   0.34688   0.00000  Uiso   1.00
H1067  H     0.63644   0.90673   0.66487   0.00000  Uiso   1.00
H1068  H     0.63559   0.95964   0.35078   0.00000  Uiso   1.00
H1069  H     0.65941   0.91986   0.39173   0.00000  Uiso   1.00
H1070  H     0.48405   0.96267   0.42387   0.00000  Uiso   1.00
H1071  H     0.51376   0.70401   0.57620   0.00000  Uiso   1.00
H1072  H     0.44071   0.79000   0.37242   0.00000  Uiso   1.00
H1073  H     0.56177   0.87516   0.62882   0.00000  Uiso   1.00
H1074  H     0.39772   0.75883   0.43485   0.00000  Uiso   1.00
H1075  H     0.37705   0.74217   0.49016   0.00000  Uiso   1.00
H1076  H     0.34397   0.72463   0.43491   0.00000  Uiso   1.00
N1077  N     0.50001   0.83334   0.61736   0.00000  Uiso   1.00
N1078  N     0.49999   0.83332   0.38264   0.00000  Uiso   1.00
O1079  O     0.50000   0.77322   0.53958   0.00000  Uiso   1.00
O1080  O     0.57042   0.87986   0.39101   0.00000  Uiso   1.00
O1081  O     0.50000   0.89345   0.46042   0.00000  Uiso   1.00
O1082  O     0.50000   0.77321   0.46039   0.00000  Uiso   1.00
O1083  O     0.50000   0.89346   0.53961   0.00000  Uiso   1.00
O1084  O     0.42495   0.83334   0.53046   0.00000  Uiso   1.00
O1085  O     0.57505   0.83333   0.46954   0.00000  Uiso   1.00
O1086  O     0.42494   0.83333   0.45127   0.00000  Uiso   1.00
O1087  O     0.57506   0.83334   0.54873   0.00000  Uiso   1.00
O1088  O     0.43299   0.78390   0.60771   0.00000  Uiso   1.00
C1089  C     0.83321   0.75404   0.50001   0.00000  Uiso   1.00
C1090  C     0.84060   0.68795   0.54279   0.00000  Uiso   1.00
C1091  C     0.83267   0.95725   0.49996   0.00000  Uiso   1.00
C1092  C     0.83276   0.70943   0.50003   0.00000  Uiso   1.00
C1093  C     0.79962   0.80919   0.35484   0.00000  Uiso   1.00
C1094  C     0.86741   0.85710   0.64532   0.00000  Uiso   1.00
C1095  C     0.79889   0.80902   0.63777   0.00000  Uiso   1.00
C1096  C     0.86710   0.85792   0.36193   0.00000  Uiso   1.00
C1097  C     0.99412   0.78798   0.45223   0.00000  Uiso   1.00
C1098  C     0.69733   0.75134   0.45332   0.00000  Uiso   1.00
C1099  C     0.67172   0.87939   0.54739   0.00000  Uiso   1.00
C1100  C     0.83301   0.91263   0.49995   0.00000  Uiso   1.00
C1101  C     0.97070   0.91733   0.54075   0.00000  Uiso   1.00
C1102  C     0.72544   0.76592   0.62885   0.00000  Uiso   1.00
C1103  C     0.68902   0.74431   0.59129   0.00000  Uiso   1.00
C1104  C     0.90997   0.92097   0.37574   0.00000  Uiso   1.00
C1105  C     0.96368   0.92711   0.36149   0.00000  Uiso   1.00
C1106  C     0.73490   0.83231   0.48857   0.00000  Uiso   1.00
C1107  C     0.93174   0.83455   0.51139   0.00000  Uiso   1.00
C1108  C     0.68089   0.82371   0.48489   0.00000  Uiso   1.00
C1109  C     0.98569   0.84346   0.51485   0.00000  Uiso   1.00
C1110  C     0.82447   0.68801   0.45726   0.00000  Uiso   1.00
C1111  C     0.84066   0.97867   0.54275   0.00000  Uiso   1.00
C1112  C     0.82429   0.97872   0.45724   0.00000  Uiso   1.00
Cu1113 Cu    0.83333   0.83334   0.54689   0.00000  Uiso   1.00
Cu1114 Cu    0.83333   0.83333   0.45311   0.00000  Uiso   1.00
H1115  H     0.81784   0.70411   0.42388   0.00000  Uiso   1.00
H1116  H     0.95790   0.77460   0.46211   0.00000  Uiso   1.00
H1117  H     0.98680   0.79971   0.41551   0.00000  Uiso   1.00
H1118  H     0.96306   0.92549   0.50280   0.00000  Uiso   1.00
H1119  H     0.93395   0.91170   0.55531   0.00000  Uiso   1.00
H1120  H     0.98995   0.94395   0.56002   0.00000  Uiso   1.00
H1121  H     0.67378   0.86894   0.58462   0.00000  Uiso   1.00
H1122  H     0.71020   0.89082   0.54127   0.00000  Uiso   1.00
H1123  H     0.70336   0.78984   0.64562   0.00000  Uiso   1.00
H1124  H     0.74012   0.74216   0.65501   0.00000  Uiso   1.00
H1125  H     0.70970   0.72006   0.57388   0.00000  Uiso   1.00
H1126  H     0.84730   0.96258   0.57614   0.00000  Uiso   1.00
H1127  H     0.99037   0.72970   0.60770   0.00000  Uiso   1.00
H1128  H     0.67284   0.76686   0.56453   0.00000  Uiso   1.00
H1129  H     0.90627   0.94161   0.40608   0.00000  Uiso   1.00
H1130  H     0.88059   0.93131   0.34688   0.00000  Uiso   1.00
H1131  H     0.96977   0.90673   0.66487   0.00000  Uiso   1.00
H1132  H     0.96892   0.95964   0.35078   0.00000  Uiso   1.00
H1133  H     0.99275   0.91986   0.39173   0.00000  Uiso   1.00
H1134  H     0.81739   0.96267   0.42387   0.00000  Uiso   1.00
H1135  H     0.84710   0.70401   0.57620   0.00000  Uiso   1.00
H1136  H     0.77404   0.79000   0.37242   0.00000  Uiso   1.00
H1137  H     0.89511   0.87516   0.62882   0.00000  Uiso   1.00
H1138  H     0.73105   0.75883   0.43485   0.00000  Uiso   1.00
H1139  H     0.71038   0.74217   0.49016   0.00000  Uiso   1.00
H1140  H     0.67730   0.72463   0.43491   0.00000  Uiso   1.00
N1141  N     0.83335   0.83334   0.61736   0.00000  Uiso   1.00
N1142  N     0.83332   0.83332   0.38264   0.00000  Uiso   1.00
O1143  O     0.83333   0.77322   0.53958   0.00000  Uiso   1.00
O1144  O     0.90376   0.87986   0.39101   0.00000  Uiso   1.00
O1145  O     0.83334   0.89345   0.46042   0.00000  Uiso   1.00
O1146  O     0.83333   0.77321   0.46039   0.00000  Uiso   1.00
O1147  O     0.83334   0.89346   0.53961   0.00000  Uiso   1.00
O1148  O     0.75828   0.83334   0.53046   0.00000  Uiso   1.00
O1149  O     0.90839   0.83333   0.46954   0.00000  Uiso   1.00
O1150  O     0.75828   0.83333   0.45127   0.00000  Uiso   1.00
O1151  O     0.90839   0.83334   0.54873   0.00000  Uiso   1.00
O1152  O     0.76633   0.78390   0.60771   0.00000  Uiso   1.00
C1153  C     0.16654   0.08737   0.83335   0.00000  Uiso   1.00
C1154  C     0.17393   0.02129   0.87612   0.00000  Uiso   1.00
C1155  C     0.16600   0.29058   0.83329   0.00000  Uiso   1.00
C1156  C     0.16609   0.04276   0.83336   0.00000  Uiso   1.00
C1157  C     0.13296   0.14253   0.68817   0.00000  Uiso   1.00
C1158  C     0.20074   0.19043   0.97866   0.00000  Uiso   1.00
C1159  C     0.13222   0.14235   0.97110   0.00000  Uiso   1.00
C1160  C     0.20044   0.19126   0.69527   0.00000  Uiso   1.00
C1161  C     0.32745   0.12132   0.78556   0.00000  Uiso   1.00
C1162  C     0.03067   0.08467   0.78665   0.00000  Uiso   1.00
C1163  C     0.00506   0.21272   0.88072   0.00000  Uiso   1.00
C1164  C     0.16634   0.24596   0.83329   0.00000  Uiso   1.00
C1165  C     0.30403   0.25066   0.87408   0.00000  Uiso   1.00
C1166  C     0.05877   0.09926   0.96219   0.00000  Uiso   1.00
C1167  C     0.02235   0.07764   0.92463   0.00000  Uiso   1.00
C1168  C     0.24330   0.25430   0.70907   0.00000  Uiso   1.00
C1169  C     0.29701   0.26044   0.69482   0.00000  Uiso   1.00
C1170  C     0.06824   0.16564   0.82191   0.00000  Uiso   1.00
C1171  C     0.26508   0.16788   0.84473   0.00000  Uiso   1.00
C1172  C     0.01422   0.15704   0.81823   0.00000  Uiso   1.00
C1173  C     0.31903   0.17679   0.84818   0.00000  Uiso   1.00
C1174  C     0.15780   0.02134   0.79059   0.00000  Uiso   1.00
C1175  C     0.17399   0.31200   0.87609   0.00000  Uiso   1.00
C1176  C     0.15763   0.31205   0.79057   0.00000  Uiso   1.00
Cu1177 Cu    0.16667   0.16667   0.88022   0.00000  Uiso   1.00
Cu1178 Cu    0.16667   0.16666   0.78645   0.00000  Uiso   1.00
H1179  H     0.15117   0.03744   0.75721   0.00000  Uiso   1.00
H1180  H     0.29123   0.10794   0.79544   0.00000  Uiso   1.00
H1181  H     0.32013   0.13304   0.74885   0.00000  Uiso   1.00
H1182  H     0.29640   0.25882   0.83613   0.00000  Uiso   1.00
H1183  H     0.26729   0.24504   0.88864   0.00000  Uiso   1.00
H1184  H     0.32328   0.27728   0.89335   0.00000  Uiso   1.00
H1185  H     0.00711   0.20227   0.91795   0.00000  Uiso   1.00
H1186  H     0.04353   0.22415   0.87460   0.00000  Uiso   1.00
H1187  H     0.03670   0.12317   0.97895   0.00000  Uiso   1.00
H1188  H     0.07346   0.07550   0.98835   0.00000  Uiso   1.00
H1189  H     0.04304   0.05339   0.90721   0.00000  Uiso   1.00
H1190  H     0.18063   0.29591   0.90948   0.00000  Uiso   1.00
H1191  H     0.32371   0.06303   0.94104   0.00000  Uiso   1.00
H1192  H     0.00617   0.10020   0.89787   0.00000  Uiso   1.00
H1193  H     0.23960   0.27494   0.73942   0.00000  Uiso   1.00
H1194  H     0.21392   0.26465   0.68021   0.00000  Uiso   1.00
H1195  H     0.30311   0.24006   0.99820   0.00000  Uiso   1.00
H1196  H     0.30226   0.29298   0.68411   0.00000  Uiso   1.00
H1197  H     0.32608   0.25320   0.72506   0.00000  Uiso   1.00
H1198  H     0.15072   0.29600   0.75720   0.00000  Uiso   1.00
H1199  H     0.18043   0.03734   0.90953   0.00000  Uiso   1.00
H1200  H     0.10737   0.12333   0.70575   0.00000  Uiso   1.00
H1201  H     0.22844   0.20849   0.96215   0.00000  Uiso   1.00
H1202  H     0.06438   0.09216   0.76818   0.00000  Uiso   1.00
H1203  H     0.04372   0.07550   0.82349   0.00000  Uiso   1.00
H1204  H     0.01063   0.05796   0.76825   0.00000  Uiso   1.00
N1205  N     0.16668   0.16668   0.95069   0.00000  Uiso   1.00
N1206  N     0.16665   0.16666   0.71597   0.00000  Uiso   1.00
O1207  O     0.16666   0.10655   0.87291   0.00000  Uiso   1.00
O1208  O     0.23709   0.21319   0.72435   0.00000  Uiso   1.00
O1209  O     0.16667   0.22678   0.79375   0.00000  Uiso   1.00
O1210  O     0.16666   0.10654   0.79372   0.00000  Uiso   1.00
O1211  O     0.16667   0.22679   0.87294   0.00000  Uiso   1.00
O1212  O     0.09161   0.16667   0.86379   0.00000  Uiso   1.00
O1213  O     0.24172   0.16666   0.80288   0.00000  Uiso   1.00
O1214  O     0.09161   0.16666   0.78460   0.00000  Uiso   1.00
O1215  O     0.24172   0.16667   0.88207   0.00000  Uiso   1.00
O1216  O     0.09966   0.11723   0.94105   0.00000  Uiso   1.00
C1217  C     0.49988   0.08737   0.83335   0.00000  Uiso   1.00
C1218  C     0.50726   0.02129   0.87612   0.00000  Uiso   1.00
C1219  C     0.49934   0.29058   0.83329   0.00000  Uiso   1.00
C1220  C     0.49943   0.04276   0.83336   0.00000  Uiso   1.00
C1221  C     0.46629   0.14253   0.68817   0.00000  Uiso   1.00
C1222  C     0.53408   0.19043   0.97866   0.00000  Uiso   1.00
C1223  C     0.46555   0.14235   0.97110   0.00000  Uiso   1.00
C1224  C     0.53377   0.19126   0.69527   0.00000  Uiso   1.00
C1225  C     0.66079   0.12132   0.78556   0.00000  Uiso   1.00
C1226  C     0.36400   0.08467   0.78665   0.00000  Uiso   1.00
C1227  C     0.33839   0.21272   0.88072   0.00000  Uiso   1.00
C1228  C     0.49968   0.24596   0.83329   0.00000  Uiso   1.00
C1229  C     0.63736   0.25066   0.87408   0.00000  Uiso   1.00
C1230  C     0.39210   0.09926   0.96219   0.00000  Uiso   1.00
C1231  C     0.35568   0.07764   0.92463   0.00000  Uiso   1.00
C1232  C     0.57663   0.25430   0.70907   0.00000  Uiso   1.00
C1233  C     0.63034   0.26044   0.69482   0.00000  Uiso   1.00
C1234  C     0.40157   0.16564   0.82191   0.00000  Uiso   1.00
C1235  C     0.59841   0.16788   0.84473   0.00000  Uiso   1.00
C1236  C     0.34756   0.15704   0.81823   0.00000  Uiso   1.00
C1237  C     0.65236   0.17679   0.84818   0.00000  Uiso   1.00
C1238  C     0.49114   0.02134   0.79059   0.00000  Uiso   1.00
C1239  C     0.50732   0.31200   0.87609   0.00000  Uiso   1.00
C1240  C     0.49096   0.31205   0.79057   0.00000  Uiso   1.00
Cu1241 Cu    0.50000   0.16667   0.88022   0.00000  Uiso   1.00
Cu1242 Cu    0.50000   0.16666   0.78645   0.00000  Uiso   1.00
H1243  H     0.48451   0.03744   0.75721   0.00000  Uiso   1.00
H1244  H     0.62457   0.10794   0.79544   0.00000  Uiso   1.00
H1245  H     0.65347   0.13304   0.74885   0.00000  Uiso   1.00
H1246  H     0.62973   0.25882   0.83613   0.00000  Uiso   1.00
H1247  H     0.60062   0.24504   0.88864   0.00000  Uiso   1.00
H1248  H     0.65662   0.27728   0.89335   0.00000  Uiso   1.00
H1249  H     0.34044   0.20227   0.91795   0.00000  Uiso   1.00
H1250  H     0.37687   0.22415   0.87460   0.00000  Uiso   1.00
H1251  H     0.37003   0.12317   0.97895   0.00000  Uiso   1.00
H1252  H     0.40679   0.07550   0.98835   0.00000  Uiso   1.00
H1253  H     0.37637   0.05339   0.90721   0.00000  Uiso   1.00
H1254  H     0.51396   0.29591   0.90948   0.00000  Uiso   1.00
H1255  H     0.65704   0.06303   0.94104   0.00000  Uiso   1.00
H1256  H     0.33951   0.10020   0.89787   0.00000  Uiso   1.00
H1257  H     0.57294   0.27494   0.73942   0.00000  Uiso   1.00
H1258  H     0.54726   0.26465   0.68021   0.00000  Uiso   1.00
H1259  H     0.63644   0.24006   0.99820   0.00000  Uiso   1.00
H1260  H     0.63559   0.29298   0.68411   0.00000  Uiso   1.00
H1261  H     0.65941   0.25320   0.72506   0.00000  Uiso   1.00
H1262  H     0.48405   0.29600   0.75720   0.00000  Uiso   1.00
H1263  H     0.51376   0.03734   0.90953   0.00000  Uiso   1.00
H1264  H     0.44071   0.12333   0.70575   0.00000  Uiso   1.00
H1265  H     0.56177   0.20849   0.96215   0.00000  Uiso   1.00
H1266  H     0.39772   0.09216   0.76818   0.00000  Uiso   1.00
H1267  H     0.37705   0.07550   0.82349   0.00000  Uiso   1.00
H1268  H     0.34397   0.05796   0.76825   0.00000  Uiso   1.00
N1269  N     0.50001   0.16668   0.95069   0.00000  Uiso   1.00
N1270  N     0.49999   0.16666   0.71597   0.00000  Uiso   1.00
O1271  O     0.50000   0.10655   0.87291   0.00000  Uiso   1.00
O1272  O     0.57042   0.21319   0.72435   0.00000  Uiso   1.00
O1273  O     0.50000   0.22678   0.79375   0.00000  Uiso   1.00
O1274  O     0.50000   0.10654   0.79372   0.00000  Uiso   1.00
O1275  O     0.50000   0.22679   0.87294   0.00000  Uiso   1.00
O1276  O     0.42495   0.16667   0.86379   0.00000  Uiso   1.00
O1277  O     0.57505   0.16666   0.80288   0.00000  Uiso   1.00
O1278  O     0.42494   0.16666   0.78460   0.00000  Uiso   1.00
O1279  O     0.57506   0.16667   0.88207   0.00000  Uiso   1.00
O1280  O     0.43299   0.11723   0.94105   0.00000  Uiso   1.00
C1281  C     0.83321   0.08737   0.83335   0.00000  Uiso   1.00
C1282  C     0.84060   0.02129   0.87612   0.00000  Uiso   1.00
C1283  C     0.83267   0.29058   0.83329   0.00000  Uiso   1.00
C1284  C     0.83276   0.04276   0.83336   0.00000  Uiso   1.00
C1285  C     0.79962   0.14253   0.68817   0.00000  Uiso   1.00
C1286  C     0.86741   0.19043   0.97866   0.00000  Uiso   1.00
C1287  C     0.79889   0.14235   0.97110   0.00000  Uiso   1.00
C1288  C     0.86710   0.19126   0.69527   0.00000  Uiso   1.00
C1289  C     0.99412   0.12132   0.78556   0.00000  Uiso   1.00
C1290  C     0.69733   0.08467   0.78665   0.00000  Uiso   1.00
C1291  C     0.67172   0.21272   0.88072   0.00000  Uiso   1.00
C1292  C     0.83301   0.24596   0.83329   0.00000  Uiso   1.00
C1293  C     0.97070   0.25066   0.87408   0.00000  Uiso   1.00
C1294  C     0.72544   0.09926   0.96219   0.00000  Uiso   1.00
C1295  C     0.68902   0.07764   0.92463   0.00000  Uiso   1.00
C1296  C     0.90997   0.25430   0.70907   0.00000  Uiso   1.00
C1297  C     0.96368   0.26044   0.69482   0.00000  Uiso   1.00
C1298  C     0.73490   0.16564   0.82191   0.00000  Uiso   1.00
C1299  C     0.93174   0.16788   0.84473   0.00000  Uiso   1.00
C1300  C     0.68089   0.15704   0.81823   0.00000  Uiso   1.00
C1301  C     0.98569   0.17679   0.84818   0.00000  Uiso   1.00
C1302  C     0.82447   0.02134   0.79059   0.00000  Uiso   1.00
C1303  C     0.84066   0.31200   0.87609   0.00000  Uiso   1.00
C1304  C     0.82429   0.31205   0.79057   0.00000  Uiso   1.00
Cu1305 Cu    0.83333   0.16667   0.88022   0.00000  Uiso   1.00
Cu1306 Cu    0.83333   0.16666   0.78645   0.00000  Uiso   1.00
H1307  H     0.81784   0.03744   0.75721   0.00000  Uiso   1.00
H1308  H     0.95790   0.10794   0.79544   0.00000  Uiso   1.00
H1309  H     0.98680   0.13304   0.74885   0.00000  Uiso   1.00
H1310  H     0.96306   0.25882   0.83613   0.00000  Uiso   1.00
H1311  H     0.93395   0.24504   0.88864   0.00000  Uiso   1.00
H1312  H     0.98995   0.27728   0.89335   0.00000  Uiso   1.00
H1313  H     0.67378   0.20227   0.91795   0.00000  Uiso   1.00
H1314  H     0.71020   0.22415   0.87460   0.00000  Uiso   1.00
H1315  H     0.70336   0.12317   0.97895   0.00000  Uiso   1.00
H1316  H     0.74012   0.07550   0.98835   0.00000  Uiso   1.00
H1317  H     0.70970   0.05339   0.90721   0.00000  Uiso   1.00
H1318  H     0.84730   0.29591   0.90948   0.00000  Uiso   1.00
H1319  H     0.99037   0.06303   0.94104   0.00000  Uiso   1.00
H1320  H     0.67284   0.10020   0.89787   0.00000  Uiso   1.00
H1321  H     0.90627   0.27494   0.73942   0.00000  Uiso   1.00
H1322  H     0.88059   0.26465   0.68021   0.00000  Uiso   1.00
H1323  H     0.96977   0.24006   0.99820   0.00000  Uiso   1.00
H1324  H     0.96892   0.29298   0.68411   0.00000  Uiso   1.00
H1325  H     0.99275   0.25320   0.72506   0.00000  Uiso   1.00
H1326  H     0.81739   0.29600   0.75720   0.00000  Uiso   1.00
H1327  H     0.84710   0.03734   0.90953   0.00000  Uiso   1.00
H1328  H     0.77404   0.12333   0.70575   0.00000  Uiso   1.00
H1329  H     0.89511   0.20849   0.96215   0.00000  Uiso   1.00
H1330  H     0.73105   0.09216   0.76818   0.00000  Uiso   1.00
H1331  H     0.71038   0.07550   0.82349   0.00000  Uiso   1.00
H1332  H     0.67730   0.05796   0.76825   0.00000  Uiso   1.00
N1333  N     0.83335   0.16668   0.95069   0.00000  Uiso   1.00
N1334  N     0.83332   0.16666   0.71597   0.00000  Uiso   1.00
O1335  O     0.83333   0.10655   0.87291   0.00000  Uiso   1.00
O1336  O     0.90376   0.21319   0.72435   0.00000  Uiso   1.00
O1337  O     0.83334   0.22678   0.79375   0.00000  Uiso   1.00
O1338  O     0.83333   0.10654   0.79372   0.00000  Uiso   1.00
O1339  O     0.83334   0.22679   0.87294   0.00000  Uiso   1.00
O1340  O     0.75828   0.16667   0.86379   0.00000  Uiso   1.00
O1341  O     0.90839   0.16666   0.80288   0.00000  Uiso   1.00
O1342  O     0.75828   0.16666   0.78460   0.00000  Uiso   1.00
O1343  O     0.90839   0.16667   0.88207   0.00000  Uiso   1.00
O1344  O     0.76633   0.11723   0.94105   0.00000  Uiso   1.00
C1345  C     0.16654   0.42071   0.83335   0.00000  Uiso   1.00
C1346  C     0.17393   0.35462   0.87612   0.00000  Uiso   1.00
C1347  C     0.16600   0.62391   0.83329   0.00000  Uiso   1.00
C1348  C     0.16609   0.37609   0.83336   0.00000  Uiso   1.00
C1349  C     0.13296   0.47586   0.68817   0.00000  Uiso   1.00
C1350  C     0.20074   0.52377   0.97866   0.00000  Uiso   1.00
C1351  C     0.13222   0.47568   0.97110   0.00000  Uiso   1.00
C1352  C     0.20044   0.52459   0.69527   0.00000  Uiso   1.00
C1353  C     0.32745   0.45465   0.78556   0.00000  Uiso   1.00
C1354  C     0.03067   0.41800   0.78665   0.00000  Uiso   1.00
C1355  C     0.00506   0.54605   0.88072   0.00000  Uiso   1.00
C1356  C     0.16634   0.57930   0.83329   0.00000  Uiso   1.00
C1357  C     0.30403   0.58400   0.87408   0.00000  Uiso   1.00
C1358  C     0.05877   0.43259   0.96219   0.00000  Uiso   1.00
C1359  C     0.02235   0.41097   0.92463   0.00000  Uiso   1.00
C1360  C     0.24330   0.58764   0.70907   0.00000  Uiso   1.00
C1361  C     0.29701   0.59377   0.69482   0.00000  Uiso   1.00
C1362  C     0.06824   0.49897   0.82191   0.00000  Uiso   1.00
C1363  C     0.26508   0.50122   0.84473   0.00000  Uiso   1.00
C1364  C     0.01422   0.49038   0.81823   0.00000  Uiso   1.00
C1365  C     0.31903   0.51013   0.84818   0.00000  Uiso   1.00
C1366  C     0.15780   0.35468   0.79059   0.00000  Uiso   1.00
C1367  C     0.17399   0.64533   0.87609   0.00000  Uiso   1.00
C1368  C     0.15763   0.64539   0.79057   0.00000  Uiso   1.00
Cu1369 Cu    0.16667   0.50001   0.88022   0.00000  Uiso   1.00
Cu1370 Cu    0.16667   0.49999   0.78645   0.00000  Uiso   1.00
H1371  H     0.15117   0.37078   0.75721   0.00000  Uiso   1.00
H1372  H     0.29123   0.44127   0.79544   0.00000  Uiso   1.00
H1373  H     0.32013   0.46637   0.74885   0.00000  Uiso   1.00
H1374  H     0.29640   0.59216   0.83613   0.00000  Uiso   1.00
H1375  H     0.26729   0.57837   0.88864   0.00000  Uiso   1.00
H1376  H     0.32328   0.61061   0.89335   0.00000  Uiso   1.00
H1377  H     0.00711   0.53560   0.91795   0.00000  Uiso   1.00
H1378  H     0.04353   0.55749   0.87460   0.00000  Uiso   1.00
H1379  H     0.03670   0.45651   0.97895   0.00000  Uiso   1.00
H1380  H     0.07346   0.40883   0.98835   0.00000  Uiso   1.00
H1381  H     0.04304   0.38673   0.90721   0.00000  Uiso   1.00
H1382  H     0.18063   0.62924   0.90948   0.00000  Uiso   1.00
H1383  H     0.32371   0.39637   0.94104   0.00000  Uiso   1.00
H1384  H     0.00617   0.43353   0.89787   0.00000  Uiso   1.00
H1385  H     0.23960   0.60828   0.73942   0.00000  Uiso   1.00
H1386  H     0.21392   0.59798   0.68021   0.00000  Uiso   1.00
H1387  H     0.30311   0.57340   0.99820   0.00000  Uiso   1.00
H1388  H     0.30226   0.62631   0.68411   0.00000  Uiso   1.00
H1389  H     0.32608   0.58653   0.72506   0.00000  Uiso   1.00
H1390  H     0.15072   0.62933   0.75720   0.00000  Uiso   1.00
H1391  H     0.18043   0.37067   0.90953   0.00000  Uiso   1.00
H1392  H     0.10737   0.45666   0.70575   0.00000  Uiso   1.00
H1393  H     0.22844   0.54183   0.96215   0.00000  Uiso   1.00
H1394  H     0.06438   0.42549   0.76818   0.00000  Uiso   1.00
H1395  H     0.04372   0.40884   0.82349   0.00000  Uiso   1.00
H1396  H     0.01063   0.39129   0.76825   0.00000  Uiso   1.00
N1397  N     0.16668   0.50001   0.95069   0.00000  Uiso   1.00
N1398  N     0.16665   0.49999   0.71597   0.00000  Uiso   1.00
O1399  O     0.16666   0.43989   0.87291   0.00000  Uiso   1.00
O1400  O     0.23709   0.54653   0.72435   0.00000  Uiso   1.00
O1401  O     0.16667   0.56011   0.79375   0.00000  Uiso   1.00
O1402  O     0.16666   0.43988   0.79372   0.00000  Uiso   1.00
O1403  O     0.16667   0.56012   0.87294   0.00000  Uiso   1.00
O1404  O     0.09161   0.50000   0.86379   0.00000  Uiso   1.00
O1405  O     0.24172   0.50000   0.80288   0.00000  Uiso   1.00
O1406  O     0.09161   0.49999   0.78460   0.00000  Uiso   1.00
O1407  O     0.24172   0.50001   0.88207   0.00000  Uiso   1.00
O1408  O     0.09966   0.45056   0.94105   0.00000  Uiso   1.00
C1409  C     0.49988   0.42071   0.83335   0.00000  Uiso   1.00
C1410  C     0.50726   0.35462   0.87612   0.00000  Uiso   1.00
C1411  C     0.49934   0.62391   0.83329   0.00000  Uiso   1.00
C1412  C     0.49943   0.37609   0.83336   0.00000  Uiso   1.00
C1413  C     0.46629   0.47586   0.68817   0.00000  Uiso   1.00
C1414  C     0.53408   0.52377   0.97866   0.00000  Uiso   1.00
C1415  C     0.46555   0.47568   0.97110   0.00000  Uiso   1.00
C1416  C     0.53377   0.52459   0.69527   0.00000  Uiso   1.00
C1417  C     0.66079   0.45465   0.78556   0.00000  Uiso   1.00
C1418  C     0.36400   0.41800   0.78665   0.00000  Uiso   1.00
C1419  C     0.33839   0.54605   0.88072   0.00000  Uiso   1.00
C1420  C     0.49968   0.57930   0.83329   0.00000  Uiso   1.00
C1421  C     0.63736   0.58400   0.87408   0.00000  Uiso   1.00
C1422  C     0.39210   0.43259   0.96219   0.00000  Uiso   1.00
C1423  C     0.35568   0.41097   0.92463   0.00000  Uiso   1.00
C1424  C     0.57663   0.58764   0.70907   0.00000  Uiso   1.00
C1425  C     0.63034   0.59377   0.69482   0.00000  Uiso   1.00
C1426  C     0.40157   0.49897   0.82191   0.00000  Uiso   1.00
C1427  C     0.59841   0.50122   0.84473   0.00000  Uiso   1.00
C1428  C     0.34756   0.49038   0.81823   0.00000  Uiso   1.00
C1429  C     0.65236   0.51013   0.84818   0.00000  Uiso   1.00
C1430  C     0.49114   0.35468   0.79059   0.00000  Uiso   1.00
C1431  C     0.50732   0.64533   0.87609   0.00000  Uiso   1.00
C1432  C     0.49096   0.64539   0.79057   0.00000  Uiso   1.00
Cu1433 Cu    0.50000   0.50001   0.88022   0.00000  Uiso   1.00
Cu1434 Cu    0.50000   0.49999   0.78645   0.00000  Uiso   1.00
H1435  H     0.48451   0.37078   0.75721   0.00000  Uiso   1.00
H1436  H     0.62457   0.44127   0.79544   0.00000  Uiso   1.00
H1437  H     0.65347   0.46637   0.74885   0.00000  Uiso   1.00
H1438  H     0.62973   0.59216   0.83613   0.00000  Uiso   1.00
H1439  H     0.60062   0.57837   0.88864   0.00000  Uiso   1.00
H1440  H     0.65662   0.61061   0.89335   0.00000  Uiso   1.00
H1441  H     0.34044   0.53560   0.91795   0.00000  Uiso   1.00
H1442  H     0.37687   0.55749   0.87460   0.00000  Uiso   1.00
H1443  H     0.37003   0.45651   0.97895   0.00000  Uiso   1.00
H1444  H     0.40679   0.40883   0.98835   0.00000  Uiso   1.00
H1445  H     0.37637   0.38673   0.90721   0.00000  Uiso   1.00
H1446  H     0.51396   0.62924   0.90948   0.00000  Uiso   1.00
H1447  H     0.65704   0.39637   0.94104   0.00000  Uiso   1.00
H1448  H     0.33951   0.43353   0.89787   0.00000  Uiso   1.00
H1449  H     0.57294   0.60828   0.73942   0.00000  Uiso   1.00
H1450  H     0.54726   0.59798   0.68021   0.00000  Uiso   1.00
H1451  H     0.63644   0.57340   0.99820   0.00000  Uiso   1.00
H1452  H     0.63559   0.62631   0.68411   0.00000  Uiso   1.00
H1453  H     0.65941   0.58653   0.72506   0.00000  Uiso   1.00
H1454  H     0.48405   0.62933   0.75720   0.00000  Uiso   1.00
H1455  H     0.51376   0.37067   0.90953   0.00000  Uiso   1.00
H1456  H     0.44071   0.45666   0.70575   0.00000  Uiso   1.00
H1457  H     0.56177   0.54183   0.96215   0.00000  Uiso   1.00
H1458  H     0.39772   0.42549   0.76818   0.00000  Uiso   1.00
H1459  H     0.37705   0.40884   0.82349   0.00000  Uiso   1.00
H1460  H     0.34397   0.39129   0.76825   0.00000  Uiso   1.00
N1461  N     0.50001   0.50001   0.95069   0.00000  Uiso   1.00
N1462  N     0.49999   0.49999   0.71597   0.00000  Uiso   1.00
O1463  O     0.50000   0.43989   0.87291   0.00000  Uiso   1.00
O1464  O     0.57042   0.54653   0.72435   0.00000  Uiso   1.00
O1465  O     0.50000   0.56011   0.79375   0.00000  Uiso   1.00
O1466  O     0.50000   0.43988   0.79372   0.00000  Uiso   1.00
O1467  O     0.50000   0.56012   0.87294   0.00000  Uiso   1.00
O1468  O     0.42495   0.50000   0.86379   0.00000  Uiso   1.00
O1469  O     0.57505   0.50000   0.80288   0.00000  Uiso   1.00
O1470  O     0.42494   0.49999   0.78460   0.00000  Uiso   1.00
O1471  O     0.57506   0.50001   0.88207   0.00000  Uiso   1.00
O1472  O     0.43299   0.45056   0.94105   0.00000  Uiso   1.00
C1473  C     0.83321   0.42071   0.83335   0.00000  Uiso   1.00
C1474  C     0.84060   0.35462   0.87612   0.00000  Uiso   1.00
C1475  C     0.83267   0.62391   0.83329   0.00000  Uiso   1.00
C1476  C     0.83276   0.37609   0.83336   0.00000  Uiso   1.00
C1477  C     0.79962   0.47586   0.68817   0.00000  Uiso   1.00
C1478  C     0.86741   0.52377   0.97866   0.00000  Uiso   1.00
C1479  C     0.79889   0.47568   0.97110   0.00000  Uiso   1.00
C1480  C     0.86710   0.52459   0.69527   0.00000  Uiso   1.00
C1481  C     0.99412   0.45465   0.78556   0.00000  Uiso   1.00
C1482  C     0.69733   0.41800   0.78665   0.00000  Uiso   1.00
C1483  C     0.67172   0.54605   0.88072   0.00000  Uiso   1.00
C1484  C     0.83301   0.57930   0.83329   0.00000  Uiso   1.00
C1485  C     0.97070   0.58400   0.87408   0.00000  Uiso   1.00
C1486  C     0.72544   0.43259   0.96219   0.00000  Uiso   1.00
C1487  C     0.68902   0.41097   0.92463   0.00000  Uiso   1.00
C1488  C     0.90997   0.58764   0.70907   0.00000  Uiso   1.00
C1489  C     0.96368   0.59377   0.69482   0.00000  Uiso   1.00
C1490  C     0.73490   0.49897   0.82191   0.00000  Uiso   1.00
C1491  C     0.93174   0.50122   0.84473   0.00000  Uiso   1.00
C1492  C     0.68089   0.49038   0.81823   0.00000  Uiso   1.00
C1493  C     0.98569   0.51013   0.84818   0.00000  Uiso   1.00
C1494  C     0.82447   0.35468   0.79059   0.00000  Uiso   1.00
C1495  C     0.84066   0.64533   0.87609   0.00000  Uiso   1.00
C1496  C     0.82429   0.64539   0.79057   0.00000  Uiso   1.00
Cu1497 Cu    0.83333   0.50001   0.88022   0.00000  Uiso   1.00
Cu1498 Cu    0.83333   0.49999   0.78645   0.00000  Uiso   1.00
H1499  H     0.81784   0.37078   0.75721   0.00000  Uiso   1.00
H1500  H     0.95790   0.44127   0.79544   0.00000  Uiso   1.00
H1501  H     0.98680   0.46637   0.74885   0.00000  Uiso   1.00
H1502  H     0.96306   0.59216   0.83613   0.00000  Uiso   1.00
H1503  H     0.93395   0.57837   0.88864   0.00000  Uiso   1.00
H1504  H     0.98995   0.61061   0.89335   0.00000  Uiso   1.00
H1505  H     0.67378   0.53560   0.91795   0.00000  Uiso   1.00
H1506  H     0.71020   0.55749   0.87460   0.00000  Uiso   1.00
H1507  H     0.70336   0.45651   0.97895   0.00000  Uiso   1.00
H1508  H     0.74012   0.40883   0.98835   0.00000  Uiso   1.00
H1509  H     0.70970   0.38673   0.90721   0.00000  Uiso   1.00
H1510  H     0.84730   0.62924   0.90948   0.00000  Uiso   1.00
H1511  H     0.99037   0.39637   0.94104   0.00000  Uiso   1.00
H1512  H     0.67284   0.43353   0.89787   0.00000  Uiso   1.00
H1513  H     0.90627   0.60828   0.73942   0.00000  Uiso   1.00
H1514  H     0.88059   0.59798   0.68021   0.00000  Uiso   1.00
H1515  H     0.96977   0.57340   0.99820   0.00000  Uiso   1.00
H1516  H     0.96892   0.62631   0.68411   0.00000  Uiso   1.00
H1517  H     0.99275   0.58653   0.72506   0.00000  Uiso   1.00
H1518  H     0.81739   0.62933   0.75720   0.00000  Uiso   1.00
H1519  H     0.84710   0.37067   0.90953   0.00000  Uiso   1.00
H1520  H     0.77404   0.45666   0.70575   0.00000  Uiso   1.00
H1521  H     0.89511   0.54183   0.96215   0.00000  Uiso   1.00
H1522  H     0.73105   0.42549   0.76818   0.00000  Uiso   1.00
H1523  H     0.71038   0.40884   0.82349   0.00000  Uiso   1.00
H1524  H     0.67730   0.39129   0.76825   0.00000  Uiso   1.00
N1525  N     0.83335   0.50001   0.95069   0.00000  Uiso   1.00
N1526  N     0.83332   0.49999   0.71597   0.00000  Uiso   1.00
O1527  O     0.83333   0.43989   0.87291   0.00000  Uiso   1.00
O1528  O     0.90376   0.54653   0.72435   0.00000  Uiso   1.00
O1529  O     0.83334   0.56011   0.79375   0.00000  Uiso   1.00
O1530  O     0.83333   0.43988   0.79372   0.00000  Uiso   1.00
O1531  O     0.83334   0.56012   0.87294   0.00000  Uiso   1.00
O1532  O     0.75828   0.50000   0.86379   0.00000  Uiso   1.00
O1533  O     0.90839   0.50000   0.80288   0.00000  Uiso   1.00
O1534  O     0.75828   0.49999   0.78460   0.00000  Uiso   1.00
O1535  O     0.90839   0.50001   0.88207   0.00000  Uiso   1.00
O1536  O     0.76633   0.45056   0.94105   0.00000  Uiso   1.00
C1537  C     0.16654   0.75404   0.83335   0.00000  Uiso   1.00
C1538  C     0.17393   0.68795   0.87612   0.00000  Uiso   1.00
C1539  C     0.16600   0.95725   0.83329   0.00000  Uiso   1.00
C1540  C     0.16609   0.70943   0.83336   0.00000  Uiso   1.00
C1541  C     0.13296   0.80919   0.68817   0.00000  Uiso   1.00
C1542  C     0.20074   0.85710   0.97866   0.00000  Uiso   1.00
C1543  C     0.13222   0.80902   0.97110   0.00000  Uiso   1.00
C1544  C     0.20044   0.85792   0.69527   0.00000  Uiso   1.00
C1545  C     0.32745   0.78798   0.78556   0.00000  Uiso   1.00
C1546  C     0.03067   0.75134   0.78665   0.00000  Uiso   1.00
C1547  C     0.00506   0.87939   0.88072   0.00000  Uiso   1.00
C1548  C     0.16634   0.91263   0.83329   0.00000  Uiso   1.00
C1549  C     0.30403   0.91733   0.87408   0.00000  Uiso   1.00
C1550  C     0.05877   0.76592   0.96219   0.00000  Uiso   1.00
C1551  C     0.02235   0.74431   0.92463   0.00000  Uiso   1.00
C1552  C     0.24330   0.92097   0.70907   0.00000  Uiso   1.00
C1553  C     0.29701   0.92711   0.69482   0.00000  Uiso   1.00
C1554  C     0.06824   0.83231   0.82191   0.00000  Uiso   1.00
C1555  C     0.26508   0.83455   0.84473   0.00000  Uiso   1.00
C1556  C     0.01422   0.82371   0.81823   0.00000  Uiso   1.00
C1557  C     0.31903   0.84346   0.84818   0.00000  Uiso   1.00
C1558  C     0.15780   0.68801   0.79059   0.00000  Uiso   1.00
C1559  C     0.17399   0.97867   0.87609   0.00000  Uiso   1.00
C1560  C     0.15763   0.97872   0.79057   0.00000  Uiso   1.00
Cu1561 Cu    0.16667   0.83334   0.88022   0.00000  Uiso   1.00
Cu1562 Cu    0.16667   0.83333   0.78645   0.00000  Uiso   1.00
H1563  H     0.15117   0.70411   0.75721   0.00000  Uiso   1.00
H1564  H     0.29123   0.77460   0.79544   0.00000  Uiso   1.00
H1565  H     0.32013   0.79971   0.74885   0.00000  Uiso   1.00
H1566  H     0.29640   0.92549   0.83613   0.00000  Uiso   1.00
H1567  H     0.26729   0.91170   0.88864   0.00000  Uiso   1.00
H1568  H     0.32328   0.94395   0.89335   0.00000  Uiso   1.00
H1569  H     0.00711   0.86894   0.91795   0.00000  Uiso   1.00
H1570  H     0.04353   0.89082   0.87460   0.00000  Uiso   1.00
H1571  H     0.03670   0.78984   0.97895   0.00000  Uiso   1.00
H1572  H     0.07346   0.74216   0.98835   0.00000  Uiso   1.00
H1573  H     0.04304   0.72006   0.90721   0.00000  Uiso   1.00
H1574  H     0.18063   0.96258   0.90948   0.00000  Uiso   1.00
H1575  H     0.32371   0.72970   0.94104   0.00000  Uiso   1.00
H1576  H     0.00617   0.76686   0.89787   0.00000  Uiso   1.00
H1577  H     0.23960   0.94161   0.73942   0.00000  Uiso   1.00
H1578  H     0.21392   0.93131   0.68021   0.00000  Uiso   1.00
H1579  H     0.30311   0.90673   0.99820   0.00000  Uiso   1.00
H1580  H     0.30226   0.95964   0.68411   0.00000  Uiso   1.00
H1581  H     0.32608   0.91986   0.72506   0.00000  Uiso   1.00
H1582  H     0.15072   0.96267   0.75720   0.00000  Uiso   1.00
H1583  H     0.18043   0.70401   0.90953   0.00000  Uiso   1.00
H1584  H     0.10737   0.79000   0.70575   0.00000  Uiso   1.00
H1585  H     0.22844   0.87516   0.96215   0.00000  Uiso   1.00
H1586  H     0.06438   0.75883   0.76818   0.00000  Uiso   1.00
H1587  H     0.04372   0.74217   0.82349   0.00000  Uiso   1.00
H1588  H     0.01063   0.72463   0.76825   0.00000  Uiso   1.00
N1589  N     0.16668   0.83334   0.95069   0.00000  Uiso   1.00
N1590  N     0.16665   0.83332   0.71597   0.00000  Uiso   1.00
O1591  O     0.16666   0.77322   0.87291   0.00000  Uiso   1.00
O1592  O     0.23709   0.87986   0.72435   0.00000  Uiso   1.00
O1593  O     0.16667   0.89345   0.79375   0.00000  Uiso   1.00
O1594  O     0.16666   0.77321   0.79372   0.00000  Uiso   1.00
O1595  O     0.16667   0.89346   0.87294   0.00000  Uiso   1.00
O1596  O     0.09161   0.83334   0.86379   0.00000  Uiso   1.00
O1597  O     0.24172   0.83333   0.80288   0.00000  Uiso   1.00
O1598  O     0.09161   0.83333   0.78460   0.00000  Uiso   1.00
O1599  O     0.24172   0.83334   0.88207   0.00000  Uiso   1.00
O1600  O     0.09966   0.78390   0.94105   0.00000  Uiso   1.00
C1601  C     0.49988   0.75404   0.83335   0.00000  Uiso   1.00
C1602  C     0.50726   0.68795   0.87612   0.00000  Uiso   1.00
C1603  C     0.49934   0.95725   0.83329   0.00000  Uiso   1.00
C1604  C     0.49943   0.70943   0.83336   0.00000  Uiso   1.00
C1605  C     0.46629   0.80919   0.68817   0.00000  Uiso   1.00
C1606  C     0.53408   0.85710   0.97866   0.00000  Uiso   1.00
C1607  C     0.46555   0.80902   0.97110   0.00000  Uiso   1.00
C1608  C     0.53377   0.85792   0.69527   0.00000  Uiso   1.00
C1609  C     0.66079   0.78798   0.78556   0.00000  Uiso   1.00
C1610  C     0.36400   0.75134   0.78665   0.00000  Uiso   1.00
C1611  C     0.33839   0.87939   0.88072   0.00000  Uiso   1.00
C1612  C     0.49968   0.91263   0.83329   0.00000  Uiso   1.00
C1613  C     0.63736   0.91733   0.87408   0.00000  Uiso   1.00
C1614  C     0.39210   0.76592   0.96219   0.00000  Uiso   1.00
C1615  C     0.35568   0.74431   0.92463   0.00000  Uiso   1.00
C1616  C     0.57663   0.92097   0.70907   0.00000  Uiso   1.00
C1617  C     0.63034   0.92711   0.69482   0.00000  Uiso   1.00
C1618  C     0.40157   0.83231   0.82191   0.00000  Uiso   1.00
C1619  C     0.59841   0.83455   0.84473   0.00000  Uiso   1.00
C1620  C     0.34756   0.82371   0.81823   0.00000  Uiso   1.00
C1621  C     0.65236   0.84346   0.84818   0.00000  Uiso   1.00
C1622  C     0.49114   0.68801   0.79059   0.00000  Uiso   1.00
C1623  C     0.50732   0.97867   0.87609   0.00000  Uiso   1.00
C1624  C     0.49096   0.97872   0.79057   0.00000  Uiso   1.00
Cu1625 Cu    0.50000   0.83334   0.88022   0.00000  Uiso   1.00
Cu1626 Cu    0.50000   0.83333   0.78645   0.00000  Uiso   1.00
H1627  H     0.48451   0.70411   0.75721   0.00000  Uiso   1.00
H1628  H     0.62457   0.77460   0.79544   0.00000  Uiso   1.00
H1629  H     0.65347   0.79971   0.74885   0.00000  Uiso   1.00
H1630  H     0.62973   0.92549   0.83613   0.00000  Uiso   1.00
H1631  H     0.60062   0.91170   0.88864   0.00000  Uiso   1.00
H1632  H     0.65662   0.94395   0.89335   0.00000  Uiso   1.00
H1633  H     0.34044   0.86894   0.91795   0.00000  Uiso   1.00
H1634  H     0.37687   0.89082   0.87460   0.00000  Uiso   1.00
H1635  H     0.37003   0.78984   0.97895   0.00000  Uiso   1.00
H1636  H     0.40679   0.74216   0.98835   0.00000  Uiso   1.00
H1637  H     0.37637   0.72006   0.90721   0.00000  Uiso   1.00
H1638  H     0.51396   0.96258   0.90948   0.00000  Uiso   1.00
H1639  H     0.65704   0.72970   0.94104   0.00000  Uiso   1.00
H1640  H     0.33951   0.76686   0.89787   0.00000  Uiso   1.00
H1641  H     0.57294   0.94161   0.73942   0.00000  Uiso   1.00
H1642  H     0.54726   0.93131   0.68021   0.00000  Uiso   1.00
H1643  H     0.63644   0.90673   0.99820   0.00000  Uiso   1.00
H1644  H     0.63559   0.95964   0.68411   0.00000  Uiso   1.00
H1645  H     0.65941   0.91986   0.72506   0.00000  Uiso   1.00
H1646  H     0.48405   0.96267   0.75720   0.00000  Uiso   1.00
H1647  H     0.51376   0.70401   0.90953   0.00000  Uiso   1.00
H1648  H     0.44071   0.79000   0.70575   0.00000  Uiso   1.00
H1649  H     0.56177   0.87516   0.96215   0.00000  Uiso   1.00
H1650  H     0.39772   0.75883   0.76818   0.00000  Uiso   1.00
H1651  H     0.37705   0.74217   0.82349   0.00000  Uiso   1.00
H1652  H     0.34397   0.72463   0.76825   0.00000  Uiso   1.00
N1653  N     0.50001   0.83334   0.95069   0.00000  Uiso   1.00
N1654  N     0.49999   0.83332   0.71597   0.00000  Uiso   1.00
O1655  O     0.50000   0.77322   0.87291   0.00000  Uiso   1.00
O1656  O     0.57042   0.87986   0.72435   0.00000  Uiso   1.00
O1657  O     0.50000   0.89345   0.79375   0.00000  Uiso   1.00
O1658  O     0.50000   0.77321   0.79372   0.00000  Uiso   1.00
O1659  O     0.50000   0.89346   0.87294   0.00000  Uiso   1.00
O1660  O     0.42495   0.83334   0.86379   0.00000  Uiso   1.00
O1661  O     0.57505   0.83333   0.80288   0.00000  Uiso   1.00
O1662  O     0.42494   0.83333   0.78460   0.00000  Uiso   1.00
O1663  O     0.57506   0.83334   0.88207   0.00000  Uiso   1.00
O1664  O     0.43299   0.78390   0.94105   0.00000  Uiso   1.00
C1665  C     0.83321   0.75404   0.83335   0.00000  Uiso   1.00
C1666  C     0.84060   0.68795   0.87612   0.00000  Uiso   1.00
C1667  C     0.83267   0.95725   0.83329   0.00000  Uiso   1.00
C1668  C     0.83276   0.70943   0.83336   0.00000  Uiso   1.00
C1669  C     0.79962   0.80919   0.68817   0.00000  Uiso   1.00
C1670  C     0.86741   0.85710   0.97866   0.00000  Uiso   1.00
C1671  C     0.79889   0.80902   0.97110   0.00000  Uiso   1.00
C1672  C     0.86710   0.85792   0.69527   0.00000  Uiso   1.00
C1673  C     0.99412   0.78798   0.78556   0.00000  Uiso   1.00
C1674  C     0.69733   0.75134   0.78665   0.00000  Uiso   1.00
C1675  C     0.67172   0.87939   0.88072   0.00000  Uiso   1.00
C1676  C     0.83301   0.91263   0.83329   0.00000  Uiso   1.00
C1677  C     0.97070   0.91733   0.87408   0.00000  Uiso   1.00
C1678  C     0.72544   0.76592   0.96219   0.00000  Uiso   1.00
C1679  C     0.68902   0.74431   0.92463   0.00000  Uiso   1.00
C1680  C     0.90997   0.92097   0.70907   0.00000  Uiso   1.00
C1681  C     0.96368   0.92711   0.69482   0.00000  Uiso   1.00
C1682  C     0.73490   0.83231   0.82191   0.00000  Uiso   1.00
C1683  C     0.93174   0.83455   0.84473   0.00000  Uiso   1.00
C1684  C     0.68089   0.82371   0.81823   0.00000  Uiso   1.00
C1685  C     0.98569   0.84346   0.84818   0.00000  Uiso   1.00
C1686  C     0.82447   0.68801   0.79059   0.00000  Uiso   1.00
C1687  C     0.84066   0.97867   0.87609   0.00000  Uiso   1.00
C1688  C     0.82429   0.97872   0.79057   0.00000  Uiso   1.00
Cu1689 Cu    0.83333   0.83334   0.88022   0.00000  Uiso   1.00
Cu1690 Cu    0.83333   0.83333   0.78645   0.00000  Uiso   1.00
H1691  H     0.81784   0.70411   0.75721   0.00000  Uiso   1.00
H1692  H     0.95790   0.77460   0.79544   0.00000  Uiso   1.00
H1693  H     0.98680   0.79971   0.74885   0.00000  Uiso   1.00
H1694  H     0.96306   0.92549   0.83613   0.00000  Uiso   1.00
H1695  H     0.93395   0.91170   0.88864   0.00000  Uiso   1.00
H1696  H     0.98995   0.94395   0.89335   0.00000  Uiso   1.00
H1697  H     0.67378   0.86894   0.91795   0.00000  Uiso   1.00
H1698  H     0.71020   0.89082   0.87460   0.00000  Uiso   1.00
H1699  H     0.70336   0.78984   0.97895   0.00000  Uiso   1.00
H1700  H     0.74012   0.74216   0.98835   0.00000  Uiso   1.00
H1701  H     0.70970   0.72006   0.90721   0.00000  Uiso   1.00
H1702  H     0.84730   0.96258   0.90948   0.00000  Uiso   1.00
H1703  H     0.99037   0.72970   0.94104   0.00000  Uiso   1.00
H1704  H     0.67284   0.76686   0.89787   0.00000  Uiso   1.00
H1705  H     0.90627   0.94161   0.73942   0.00000  Uiso   1.00
H1706  H     0.88059   0.93131   0.68021   0.00000  Uiso   1.00
H1707  H     0.96977   0.90673   0.99820   0.00000  Uiso   1.00
H1708  H     0.96892   0.95964   0.68411   0.00000  Uiso   1.00
H1709  H     0.99275   0.91986   0.72506   0.00000  Uiso   1.00
H1710  H     0.81739   0.96267   0.75720   0.00000  Uiso   1.00
H1711  H     0.84710   0.70401   0.90953   0.00000  Uiso   1.00
H1712  H     0.77404   0.79000   0.70575   0.00000  Uiso   1.00
H1713  H     0.89511   0.87516   0.96215   0.00000  Uiso   1.00
H1714  H     0.73105   0.75883   0.76818   0.00000  Uiso   1.00
H1715  H     0.71038   0.74217   0.82349   0.00000  Uiso   1.00
H1716  H     0.67730   0.72463   0.76825   0.00000  Uiso   1.00
N1717  N     0.83335   0.83334   0.95069   0.00000  Uiso   1.00
N1718  N     0.83332   0.83332   0.71597   0.00000  Uiso   1.00
O1719  O     0.83333   0.77322   0.87291   0.00000  Uiso   1.00
O1720  O     0.90376   0.87986   0.72435   0.00000  Uiso   1.00
O1721  O     0.83334   0.89345   0.79375   0.00000  Uiso   1.00
O1722  O     0.83333   0.77321   0.79372   0.00000  Uiso   1.00
O1723  O     0.83334   0.89346   0.87294   0.00000  Uiso   1.00
O1724  O     0.75828   0.83334   0.86379   0.00000  Uiso   1.00
O1725  O     0.90839   0.83333   0.80288   0.00000  Uiso   1.00
O1726  O     0.75828   0.83333   0.78460   0.00000  Uiso   1.00
O1727  O     0.90839   0.83334   0.88207   0.00000  Uiso   1.00
O1728  O     0.76633   0.78390   0.94105   0.00000  Uiso   1.00
loop_
_geom_bond_atom_site_label_1
_geom_bond_atom_site_label_2
_geom_bond_distance
_geom_bond_site_symmetry_2
_ccdc_geom_bond_type
C1     C4      1.447   .     S
C1     O58     1.291   .     A
C1     O55     1.291   .     A
C2     C4      1.400   .     A
C2     H47     1.083   .     S
C2     C407    1.383   1_545 S
C3     C23     1.401   .     A
C3     C24     1.400   .     A
C3     C12     1.448   .     S
C4     C22     1.401   .     A
C5     H48     1.078   .     S
C5     N54     1.362   .     A
C5     C1159   1.438   1_554 S
C6     H49     1.080   .     S
C6     N53     1.363   .     A
C6     C584    1.428   .     S
C7     O64     1.398   .     S
C7     N53     1.375   .     A
C7     C581    1.438   .     S
C8     O56     1.389   .     S
C8     N54     1.372   .     A
C8     C1158   1.428   1_554 S
C9     H29     1.111   .     S
C9     H28     1.108   .     S
C9     C74     1.533   .     S
C9     C84     1.540   .     S
C10    H52     1.111   .     S
C10    H51     1.109   .     S
C10    H50     1.107   .     S
C10    C137    1.533   1_455 S
C11    H33     1.111   .     S
C11    H34     1.106   .     S
C11    C141    1.532   1_455 S
C11    C149    1.538   1_455 S
C12    O57     1.292   .     A
C12    O59     1.291   .     A
C13    H30     1.111   .     S
C13    H32     1.111   .     S
C13    H31     1.108   .     S
C13    C75     1.532   .     S
C14    O64     1.413   .     S
C14    H36     1.113   .     S
C14    C15     1.520   .     S
C14    H35     1.114   .     S
C15    H40     1.109   .     S
C15    H37     1.111   .     S
C15    H167    1.110   1_455 S
C16    O56     1.417   .     S
C16    C17     1.524   .     S
C16    H42     1.115   .     S
C16    H41     1.110   .     S
C17    H44     1.110   .     S
C17    H45     1.111   .     S
C17    H1195   1.109   1_554 S
C18    O60     1.280   .     A
C18    C20     1.435   .     S
C18    O62     1.290   .     A
C19    O61     1.280   .     A
C19    C21     1.436   .     S
C19    O63     1.291   .     A
C20    C137    1.540   1_455 S
C20    C149    1.365   1_455 S
C21    C75     1.538   .     S
C21    C84     1.365   .     S
C22    H27     1.083   .     S
C22    C408    1.383   1_545 S
C23    H38     1.083   .     S
C23    C194    1.383   .     S
C24    H46     1.083   .     S
C24    C214    1.383   .     S
Cu25   O60     1.973   .     S
Cu25   N53     2.013   .     S
Cu25   O63     1.966   .     S
Cu25   O59     1.961   .     S
Cu25   Cu26    2.679   .     S
Cu25   O55     1.962   .     S
Cu26   O62     1.966   .     S
Cu26   O58     1.961   .     S
Cu26   N54     2.013   .     S
Cu26   O61     1.973   .     S
Cu26   O57     1.962   .     S
H39    C79     1.110   .     S
H43    C593    1.109   .     S
C65    C68     1.447   .     S
C65    O122    1.291   .     A
C65    O119    1.291   .     A
C66    C68     1.400   .     A
C66    H111    1.083   .     S
C66    C471    1.383   1_545 S
C67    C87     1.401   .     A
C67    C88     1.400   .     A
C67    C76     1.448   .     S
C68    C86     1.401   .     A
C69    H112    1.078   .     S
C69    N118    1.362   .     A
C69    C1223   1.438   1_554 S
C70    H113    1.080   .     S
C70    N117    1.363   .     A
C70    C648    1.428   .     S
C71    O128    1.398   .     S
C71    N117    1.375   .     A
C71    C645    1.438   .     S
C72    O120    1.389   .     S
C72    N118    1.372   .     A
C72    C1222   1.428   1_554 S
C73    H93     1.111   .     S
C73    H92     1.108   .     S
C73    C138    1.533   .     S
C73    C148    1.540   .     S
C74    H116    1.111   .     S
C74    H115    1.109   .     S
C74    H114    1.107   .     S
C75    H97     1.111   .     S
C75    H98     1.106   .     S
C76    O121    1.292   .     A
C76    O123    1.291   .     A
C77    H94     1.111   .     S
C77    H96     1.111   .     S
C77    H95     1.108   .     S
C77    C139    1.532   .     S
C78    O128    1.413   .     S
C78    H100    1.113   .     S
C78    C79     1.520   .     S
C78    H99     1.114   .     S
C79    H104    1.109   .     S
C79    H101    1.111   .     S
C80    O120    1.417   .     S
C80    C81     1.524   .     S
C80    H106    1.115   .     S
C80    H105    1.110   .     S
C81    H108    1.110   .     S
C81    H109    1.111   .     S
C81    H1259   1.109   1_554 S
C82    O124    1.280   .     A
C82    C84     1.435   .     S
C82    O126    1.290   .     A
C83    O125    1.280   .     A
C83    C85     1.436   .     S
C83    O127    1.291   .     A
C85    C139    1.538   .     S
C85    C148    1.365   .     S
C86    H91     1.083   .     S
C86    C472    1.383   1_545 S
C87    H102    1.083   .     S
C87    C258    1.383   .     S
C88    H110    1.083   .     S
C88    C278    1.383   .     S
Cu89   O124    1.973   .     S
Cu89   N117    2.013   .     S
Cu89   O127    1.966   .     S
Cu89   O123    1.961   .     S
Cu89   Cu90    2.679   .     S
Cu89   O119    1.962   .     S
Cu90   O126    1.966   .     S
Cu90   O122    1.961   .     S
Cu90   N118    2.013   .     S
Cu90   O125    1.973   .     S
Cu90   O121    1.962   .     S
H103   C143    1.110   .     S
H107   C657    1.109   .     S
C129   C132    1.447   .     S
C129   O186    1.291   .     A
C129   O183    1.291   .     A
C130   C132    1.400   .     A
C130   H175    1.083   .     S
C130   C535    1.383   1_545 S
C131   C151    1.401   .     A
C131   C152    1.400   .     A
C131   C140    1.448   .     S
C132   C150    1.401   .     A
C133   H176    1.078   .     S
C133   N182    1.362   .     A
C133   C1287   1.438   1_554 S
C134   H177    1.080   .     S
C134   N181    1.363   .     A
C134   C712    1.428   .     S
C135   O192    1.398   .     S
C135   N181    1.375   .     A
C135   C709    1.438   .     S
C136   O184    1.389   .     S
C136   N182    1.372   .     A
C136   C1286   1.428   1_554 S
C137   H157    1.111   .     S
C137   H156    1.108   .     S
C137   C10     1.533   1_655 S
C137   C20     1.540   1_655 S
C138   H180    1.111   .     S
C138   H179    1.109   .     S
C138   H178    1.107   .     S
C139   H161    1.111   .     S
C139   H162    1.106   .     S
C140   O185    1.292   .     A
C140   O187    1.291   .     A
C141   H158    1.111   .     S
C141   H160    1.111   .     S
C141   H159    1.108   .     S
C141   C11     1.532   1_655 S
C142   O192    1.413   .     S
C142   H164    1.113   .     S
C142   C143    1.520   .     S
C142   H163    1.114   .     S
C143   H168    1.109   .     S
C143   H165    1.111   .     S
C144   O184    1.417   .     S
C144   C145    1.524   .     S
C144   H170    1.115   .     S
C144   H169    1.110   .     S
C145   H172    1.110   .     S
C145   H173    1.111   .     S
C145   H1323   1.109   1_554 S
C146   O188    1.280   .     A
C146   C148    1.435   .     S
C146   O190    1.290   .     A
C147   O189    1.280   .     A
C147   C149    1.436   .     S
C147   O191    1.291   .     A
C149   C11     1.538   1_655 S
C149   C20     1.365   1_655 S
C150   H155    1.083   .     S
C150   C536    1.383   1_545 S
C151   H166    1.083   .     S
C151   C322    1.383   .     S
C152   H174    1.083   .     S
C152   C342    1.383   .     S
Cu153  O188    1.973   .     S
Cu153  N181    2.013   .     S
Cu153  O191    1.966   .     S
Cu153  O187    1.961   .     S
Cu153  Cu154   2.679   .     S
Cu153  O183    1.962   .     S
Cu154  O190    1.966   .     S
Cu154  O186    1.961   .     S
Cu154  N182    2.013   .     S
Cu154  O189    1.973   .     S
Cu154  O185    1.962   .     S
H167   C15     1.110   1_655 S
H171   C721    1.109   .     S
C193   C196    1.447   .     S
C193   O250    1.291   .     A
C193   O247    1.291   .     A
C194   C196    1.400   .     A
C194   H239    1.083   .     S
C195   C215    1.401   .     A
C195   C216    1.400   .     A
C195   C204    1.448   .     S
C196   C214    1.401   .     A
C197   H240    1.078   .     S
C197   N246    1.362   .     A
C197   C1351   1.438   1_554 S
C198   H241    1.080   .     S
C198   N245    1.363   .     A
C198   C776    1.428   .     S
C199   O256    1.398   .     S
C199   N245    1.375   .     A
C199   C773    1.438   .     S
C200   O248    1.389   .     S
C200   N246    1.372   .     A
C200   C1350   1.428   1_554 S
C201   H221    1.111   .     S
C201   H220    1.108   .     S
C201   C266    1.533   .     S
C201   C276    1.540   .     S
C202   H244    1.111   .     S
C202   H243    1.109   .     S
C202   H242    1.107   .     S
C202   C329    1.533   1_455 S
C203   H225    1.111   .     S
C203   H226    1.106   .     S
C203   C333    1.532   1_455 S
C203   C341    1.538   1_455 S
C204   O249    1.292   .     A
C204   O251    1.291   .     A
C205   H222    1.111   .     S
C205   H224    1.111   .     S
C205   H223    1.108   .     S
C205   C267    1.532   .     S
C206   O256    1.413   .     S
C206   H228    1.113   .     S
C206   C207    1.520   .     S
C206   H227    1.114   .     S
C207   H232    1.109   .     S
C207   H229    1.111   .     S
C207   H359    1.110   1_455 S
C208   O248    1.417   .     S
C208   C209    1.524   .     S
C208   H234    1.115   .     S
C208   H233    1.110   .     S
C209   H236    1.110   .     S
C209   H237    1.111   .     S
C209   H1387   1.109   1_554 S
C210   O252    1.280   .     A
C210   C212    1.435   .     S
C210   O254    1.290   .     A
C211   O253    1.280   .     A
C211   C213    1.436   .     S
C211   O255    1.291   .     A
C212   C329    1.540   1_455 S
C212   C341    1.365   1_455 S
C213   C267    1.538   .     S
C213   C276    1.365   .     S
C214   H219    1.083   .     S
C215   H230    1.083   .     S
C215   C386    1.383   .     S
C216   H238    1.083   .     S
C216   C406    1.383   .     S
Cu217  O252    1.973   .     S
Cu217  N245    2.013   .     S
Cu217  O255    1.966   .     S
Cu217  O251    1.961   .     S
Cu217  Cu218   2.679   .     S
Cu217  O247    1.962   .     S
Cu218  O254    1.966   .     S
Cu218  O250    1.961   .     S
Cu218  N246    2.013   .     S
Cu218  O253    1.973   .     S
Cu218  O249    1.962   .     S
H231   C271    1.110   .     S
H235   C785    1.109   .     S
C257   C260    1.447   .     S
C257   O314    1.291   .     A
C257   O311    1.291   .     A
C258   C260    1.400   .     A
C258   H303    1.083   .     S
C259   C279    1.401   .     A
C259   C280    1.400   .     A
C259   C268    1.448   .     S
C260   C278    1.401   .     A
C261   H304    1.078   .     S
C261   N310    1.362   .     A
C261   C1415   1.438   1_554 S
C262   H305    1.080   .     S
C262   N309    1.363   .     A
C262   C840    1.428   .     S
C263   O320    1.398   .     S
C263   N309    1.375   .     A
C263   C837    1.438   .     S
C264   O312    1.389   .     S
C264   N310    1.372   .     A
C264   C1414   1.428   1_554 S
C265   H285    1.111   .     S
C265   H284    1.108   .     S
C265   C330    1.533   .     S
C265   C340    1.540   .     S
C266   H308    1.111   .     S
C266   H307    1.109   .     S
C266   H306    1.107   .     S
C267   H289    1.111   .     S
C267   H290    1.106   .     S
C268   O313    1.292   .     A
C268   O315    1.291   .     A
C269   H286    1.111   .     S
C269   H288    1.111   .     S
C269   H287    1.108   .     S
C269   C331    1.532   .     S
C270   O320    1.413   .     S
C270   H292    1.113   .     S
C270   C271    1.520   .     S
C270   H291    1.114   .     S
C271   H296    1.109   .     S
C271   H293    1.111   .     S
C272   O312    1.417   .     S
C272   C273    1.524   .     S
C272   H298    1.115   .     S
C272   H297    1.110   .     S
C273   H300    1.110   .     S
C273   H301    1.111   .     S
C273   H1451   1.109   1_554 S
C274   O316    1.280   .     A
C274   C276    1.435   .     S
C274   O318    1.290   .     A
C275   O317    1.280   .     A
C275   C277    1.436   .     S
C275   O319    1.291   .     A
C277   C331    1.538   .     S
C277   C340    1.365   .     S
C278   H283    1.083   .     S
C279   H294    1.083   .     S
C279   C450    1.383   .     S
C280   H302    1.083   .     S
C280   C470    1.383   .     S
Cu281  O316    1.973   .     S
Cu281  N309    2.013   .     S
Cu281  O319    1.966   .     S
Cu281  O315    1.961   .     S
Cu281  Cu282   2.679   .     S
Cu281  O311    1.962   .     S
Cu282  O318    1.966   .     S
Cu282  O314    1.961   .     S
Cu282  N310    2.013   .     S
Cu282  O317    1.973   .     S
Cu282  O313    1.962   .     S
H295   C335    1.110   .     S
H299   C849    1.109   .     S
C321   C324    1.447   .     S
C321   O378    1.291   .     A
C321   O375    1.291   .     A
C322   C324    1.400   .     A
C322   H367    1.083   .     S
C323   C343    1.401   .     A
C323   C344    1.400   .     A
C323   C332    1.448   .     S
C324   C342    1.401   .     A
C325   H368    1.078   .     S
C325   N374    1.362   .     A
C325   C1479   1.438   1_554 S
C326   H369    1.080   .     S
C326   N373    1.363   .     A
C326   C904    1.428   .     S
C327   O384    1.398   .     S
C327   N373    1.375   .     A
C327   C901    1.438   .     S
C328   O376    1.389   .     S
C328   N374    1.372   .     A
C328   C1478   1.428   1_554 S
C329   H349    1.111   .     S
C329   H348    1.108   .     S
C329   C202    1.533   1_655 S
C329   C212    1.540   1_655 S
C330   H372    1.111   .     S
C330   H371    1.109   .     S
C330   H370    1.107   .     S
C331   H353    1.111   .     S
C331   H354    1.106   .     S
C332   O377    1.292   .     A
C332   O379    1.291   .     A
C333   H350    1.111   .     S
C333   H352    1.111   .     S
C333   H351    1.108   .     S
C333   C203    1.532   1_655 S
C334   O384    1.413   .     S
C334   H356    1.113   .     S
C334   C335    1.520   .     S
C334   H355    1.114   .     S
C335   H360    1.109   .     S
C335   H357    1.111   .     S
C336   O376    1.417   .     S
C336   C337    1.524   .     S
C336   H362    1.115   .     S
C336   H361    1.110   .     S
C337   H364    1.110   .     S
C337   H365    1.111   .     S
C337   H1515   1.109   1_554 S
C338   O380    1.280   .     A
C338   C340    1.435   .     S
C338   O382    1.290   .     A
C339   O381    1.280   .     A
C339   C341    1.436   .     S
C339   O383    1.291   .     A
C341   C203    1.538   1_655 S
C341   C212    1.365   1_655 S
C342   H347    1.083   .     S
C343   H358    1.083   .     S
C343   C514    1.383   .     S
C344   H366    1.083   .     S
C344   C534    1.383   .     S
Cu345  O380    1.973   .     S
Cu345  N373    2.013   .     S
Cu345  O383    1.966   .     S
Cu345  O379    1.961   .     S
Cu345  Cu346   2.679   .     S
Cu345  O375    1.962   .     S
Cu346  O382    1.966   .     S
Cu346  O378    1.961   .     S
Cu346  N374    2.013   .     S
Cu346  O381    1.973   .     S
Cu346  O377    1.962   .     S
H359   C207    1.110   1_655 S
H363   C913    1.109   .     S
C385   C388    1.447   .     S
C385   O442    1.291   .     A
C385   O439    1.291   .     A
C386   C388    1.400   .     A
C386   H431    1.083   .     S
C387   C407    1.401   .     A
C387   C408    1.400   .     A
C387   C396    1.448   .     S
C388   C406    1.401   .     A
C389   H432    1.078   .     S
C389   N438    1.362   .     A
C389   C1543   1.438   1_554 S
C390   H433    1.080   .     S
C390   N437    1.363   .     A
C390   C968    1.428   .     S
C391   O448    1.398   .     S
C391   N437    1.375   .     A
C391   C965    1.438   .     S
C392   O440    1.389   .     S
C392   N438    1.372   .     A
C392   C1542   1.428   1_554 S
C393   H413    1.111   .     S
C393   H412    1.108   .     S
C393   C458    1.533   .     S
C393   C468    1.540   .     S
C394   H436    1.111   .     S
C394   H435    1.109   .     S
C394   H434    1.107   .     S
C394   C521    1.533   1_455 S
C395   H417    1.111   .     S
C395   H418    1.106   .     S
C395   C525    1.532   1_455 S
C395   C533    1.538   1_455 S
C396   O441    1.292   .     A
C396   O443    1.291   .     A
C397   H414    1.111   .     S
C397   H416    1.111   .     S
C397   H415    1.108   .     S
C397   C459    1.532   .     S
C398   O448    1.413   .     S
C398   H420    1.113   .     S
C398   C399    1.520   .     S
C398   H419    1.114   .     S
C399   H424    1.109   .     S
C399   H421    1.111   .     S
C399   H551    1.110   1_455 S
C400   O440    1.417   .     S
C400   C401    1.524   .     S
C400   H426    1.115   .     S
C400   H425    1.110   .     S
C401   H428    1.110   .     S
C401   H429    1.111   .     S
C401   H1579   1.109   1_554 S
C402   O444    1.280   .     A
C402   C404    1.435   .     S
C402   O446    1.290   .     A
C403   O445    1.280   .     A
C403   C405    1.436   .     S
C403   O447    1.291   .     A
C404   C521    1.540   1_455 S
C404   C533    1.365   1_455 S
C405   C459    1.538   .     S
C405   C468    1.365   .     S
C406   H411    1.083   .     S
C407   H422    1.083   .     S
C407   C2      1.383   1_565 S
C408   H430    1.083   .     S
C408   C22     1.383   1_565 S
Cu409  O444    1.973   .     S
Cu409  N437    2.013   .     S
Cu409  O447    1.966   .     S
Cu409  O443    1.961   .     S
Cu409  Cu410   2.679   .     S
Cu409  O439    1.962   .     S
Cu410  O446    1.966   .     S
Cu410  O442    1.961   .     S
Cu410  N438    2.013   .     S
Cu410  O445    1.973   .     S
Cu410  O441    1.962   .     S
H423   C463    1.110   .     S
H427   C977    1.109   .     S
C449   C452    1.447   .     S
C449   O506    1.291   .     A
C449   O503    1.291   .     A
C450   C452    1.400   .     A
C450   H495    1.083   .     S
C451   C471    1.401   .     A
C451   C472    1.400   .     A
C451   C460    1.448   .     S
C452   C470    1.401   .     A
C453   H496    1.078   .     S
C453   N502    1.362   .     A
C453   C1607   1.438   1_554 S
C454   H497    1.080   .     S
C454   N501    1.363   .     A
C454   C1032   1.428   .     S
C455   O512    1.398   .     S
C455   N501    1.375   .     A
C455   C1029   1.438   .     S
C456   O504    1.389   .     S
C456   N502    1.372   .     A
C456   C1606   1.428   1_554 S
C457   H477    1.111   .     S
C457   H476    1.108   .     S
C457   C522    1.533   .     S
C457   C532    1.540   .     S
C458   H500    1.111   .     S
C458   H499    1.109   .     S
C458   H498    1.107   .     S
C459   H481    1.111   .     S
C459   H482    1.106   .     S
C460   O505    1.292   .     A
C460   O507    1.291   .     A
C461   H478    1.111   .     S
C461   H480    1.111   .     S
C461   H479    1.108   .     S
C461   C523    1.532   .     S
C462   O512    1.413   .     S
C462   H484    1.113   .     S
C462   C463    1.520   .     S
C462   H483    1.114   .     S
C463   H488    1.109   .     S
C463   H485    1.111   .     S
C464   O504    1.417   .     S
C464   C465    1.524   .     S
C464   H490    1.115   .     S
C464   H489    1.110   .     S
C465   H492    1.110   .     S
C465   H493    1.111   .     S
C465   H1643   1.109   1_554 S
C466   O508    1.280   .     A
C466   C468    1.435   .     S
C466   O510    1.290   .     A
C467   O509    1.280   .     A
C467   C469    1.436   .     S
C467   O511    1.291   .     A
C469   C523    1.538   .     S
C469   C532    1.365   .     S
C470   H475    1.083   .     S
C471   H486    1.083   .     S
C471   C66     1.383   1_565 S
C472   H494    1.083   .     S
C472   C86     1.383   1_565 S
Cu473  O508    1.973   .     S
Cu473  N501    2.013   .     S
Cu473  O511    1.966   .     S
Cu473  O507    1.961   .     S
Cu473  Cu474   2.679   .     S
Cu473  O503    1.962   .     S
Cu474  O510    1.966   .     S
Cu474  O506    1.961   .     S
Cu474  N502    2.013   .     S
Cu474  O509    1.973   .     S
Cu474  O505    1.962   .     S
H487   C527    1.110   .     S
H491   C1041   1.109   .     S
C513   C516    1.447   .     S
C513   O570    1.291   .     A
C513   O567    1.291   .     A
C514   C516    1.400   .     A
C514   H559    1.083   .     S
C515   C535    1.401   .     A
C515   C536    1.400   .     A
C515   C524    1.448   .     S
C516   C534    1.401   .     A
C517   H560    1.078   .     S
C517   N566    1.362   .     A
C517   C1671   1.438   1_554 S
C518   H561    1.080   .     S
C518   N565    1.363   .     A
C518   C1096   1.428   .     S
C519   O576    1.398   .     S
C519   N565    1.375   .     A
C519   C1093   1.438   .     S
C520   O568    1.389   .     S
C520   N566    1.372   .     A
C520   C1670   1.428   1_554 S
C521   H541    1.111   .     S
C521   H540    1.108   .     S
C521   C394    1.533   1_655 S
C521   C404    1.540   1_655 S
C522   H564    1.111   .     S
C522   H563    1.109   .     S
C522   H562    1.107   .     S
C523   H545    1.111   .     S
C523   H546    1.106   .     S
C524   O569    1.292   .     A
C524   O571    1.291   .     A
C525   H542    1.111   .     S
C525   H544    1.111   .     S
C525   H543    1.108   .     S
C525   C395    1.532   1_655 S
C526   O576    1.413   .     S
C526   H548    1.113   .     S
C526   C527    1.520   .     S
C526   H547    1.114   .     S
C527   H552    1.109   .     S
C527   H549    1.111   .     S
C528   O568    1.417   .     S
C528   C529    1.524   .     S
C528   H554    1.115   .     S
C528   H553    1.110   .     S
C529   H556    1.110   .     S
C529   H557    1.111   .     S
C529   H1707   1.109   1_554 S
C530   O572    1.280   .     A
C530   C532    1.435   .     S
C530   O574    1.290   .     A
C531   O573    1.280   .     A
C531   C533    1.436   .     S
C531   O575    1.291   .     A
C533   C395    1.538   1_655 S
C533   C404    1.365   1_655 S
C534   H539    1.083   .     S
C535   H550    1.083   .     S
C535   C130    1.383   1_565 S
C536   H558    1.083   .     S
C536   C150    1.383   1_565 S
Cu537  O572    1.973   .     S
Cu537  N565    2.013   .     S
Cu537  O575    1.966   .     S
Cu537  O571    1.961   .     S
Cu537  Cu538   2.679   .     S
Cu537  O567    1.962   .     S
Cu538  O574    1.966   .     S
Cu538  O570    1.961   .     S
Cu538  N566    2.013   .     S
Cu538  O573    1.973   .     S
Cu538  O569    1.962   .     S
H551   C399    1.110   1_655 S
H555   C1105   1.109   .     S
C577   C580    1.447   .     S
C577   O634    1.291   .     A
C577   O631    1.291   .     A
C578   C580    1.400   .     A
C578   H623    1.083   .     S
C578   C983    1.383   1_545 S
C579   C599    1.401   .     A
C579   C600    1.400   .     A
C579   C588    1.448   .     S
C580   C598    1.401   .     A
C581   H624    1.078   .     S
C581   N630    1.362   .     A
C582   H625    1.080   .     S
C582   N629    1.363   .     A
C582   C1160   1.428   .     S
C583   O640    1.398   .     S
C583   N629    1.375   .     A
C583   C1157   1.438   .     S
C584   O632    1.389   .     S
C584   N630    1.372   .     A
C585   H605    1.111   .     S
C585   H604    1.108   .     S
C585   C650    1.533   .     S
C585   C660    1.540   .     S
C586   H628    1.111   .     S
C586   H627    1.109   .     S
C586   H626    1.107   .     S
C586   C713    1.533   1_455 S
C587   H609    1.111   .     S
C587   H610    1.106   .     S
C587   C717    1.532   1_455 S
C587   C725    1.538   1_455 S
C588   O633    1.292   .     A
C588   O635    1.291   .     A
C589   H606    1.111   .     S
C589   H608    1.111   .     S
C589   H607    1.108   .     S
C589   C651    1.532   .     S
C590   O640    1.413   .     S
C590   H612    1.113   .     S
C590   C591    1.520   .     S
C590   H611    1.114   .     S
C591   H616    1.109   .     S
C591   H613    1.111   .     S
C591   H743    1.110   1_455 S
C592   O632    1.417   .     S
C592   C593    1.524   .     S
C592   H618    1.115   .     S
C592   H617    1.110   .     S
C593   H620    1.110   .     S
C593   H621    1.111   .     S
C594   O636    1.280   .     A
C594   C596    1.435   .     S
C594   O638    1.290   .     A
C595   O637    1.280   .     A
C595   C597    1.436   .     S
C595   O639    1.291   .     A
C596   C713    1.540   1_455 S
C596   C725    1.365   1_455 S
C597   C651    1.538   .     S
C597   C660    1.365   .     S
C598   H603    1.083   .     S
C598   C984    1.383   1_545 S
C599   H614    1.083   .     S
C599   C770    1.383   .     S
C600   H622    1.083   .     S
C600   C790    1.383   .     S
Cu601  O636    1.973   .     S
Cu601  N629    2.013   .     S
Cu601  O639    1.966   .     S
Cu601  O635    1.961   .     S
Cu601  Cu602   2.679   .     S
Cu601  O631    1.962   .     S
Cu602  O638    1.966   .     S
Cu602  O634    1.961   .     S
Cu602  N630    2.013   .     S
Cu602  O637    1.973   .     S
Cu602  O633    1.962   .     S
H615   C655    1.110   .     S
H619   C1169   1.109   .     S
C641   C644    1.447   .     S
C641   O698    1.291   .     A
C641   O695    1.291   .     A
C642   C644    1.400   .     A
C642   H687    1.083   .     S
C642   C1047   1.383   1_545 S
C643   C663    1.401   .     A
C643   C664    1.400   .     A
C643   C652    1.448   .     S
C644   C662    1.401   .     A
C645   H688    1.078   .     S
C645   N694    1.362   .     A
C646   H689    1.080   .     S
C646   N693    1.363   .     A
C646   C1224   1.428   .     S
C647   O704    1.398   .     S
C647   N693    1.375   .     A
C647   C1221   1.438   .     S
C648   O696    1.389   .     S
C648   N694    1.372   .     A
C649   H669    1.111   .     S
C649   H668    1.108   .     S
C649   C714    1.533   .     S
C649   C724    1.540   .     S
C650   H692    1.111   .     S
C650   H691    1.109   .     S
C650   H690    1.107   .     S
C651   H673    1.111   .     S
C651   H674    1.106   .     S
C652   O697    1.292   .     A
C652   O699    1.291   .     A
C653   H670    1.111   .     S
C653   H672    1.111   .     S
C653   H671    1.108   .     S
C653   C715    1.532   .     S
C654   O704    1.413   .     S
C654   H676    1.113   .     S
C654   C655    1.520   .     S
C654   H675    1.114   .     S
C655   H680    1.109   .     S
C655   H677    1.111   .     S
C656   O696    1.417   .     S
C656   C657    1.524   .     S
C656   H682    1.115   .     S
C656   H681    1.110   .     S
C657   H684    1.110   .     S
C657   H685    1.111   .     S
C658   O700    1.280   .     A
C658   C660    1.435   .     S
C658   O702    1.290   .     A
C659   O701    1.280   .     A
C659   C661    1.436   .     S
C659   O703    1.291   .     A
C661   C715    1.538   .     S
C661   C724    1.365   .     S
C662   H667    1.083   .     S
C662   C1048   1.383   1_545 S
C663   H678    1.083   .     S
C663   C834    1.383   .     S
C664   H686    1.083   .     S
C664   C854    1.383   .     S
Cu665  O700    1.973   .     S
Cu665  N693    2.013   .     S
Cu665  O703    1.966   .     S
Cu665  O699    1.961   .     S
Cu665  Cu666   2.679   .     S
Cu665  O695    1.962   .     S
Cu666  O702    1.966   .     S
Cu666  O698    1.961   .     S
Cu666  N694    2.013   .     S
Cu666  O701    1.973   .     S
Cu666  O697    1.962   .     S
H679   C719    1.110   .     S
H683   C1233   1.109   .     S
C705   C708    1.447   .     S
C705   O762    1.291   .     A
C705   O759    1.291   .     A
C706   C708    1.400   .     A
C706   H751    1.083   .     S
C706   C1111   1.383   1_545 S
C707   C727    1.401   .     A
C707   C728    1.400   .     A
C707   C716    1.448   .     S
C708   C726    1.401   .     A
C709   H752    1.078   .     S
C709   N758    1.362   .     A
C710   H753    1.080   .     S
C710   N757    1.363   .     A
C710   C1288   1.428   .     S
C711   O768    1.398   .     S
C711   N757    1.375   .     A
C711   C1285   1.438   .     S
C712   O760    1.389   .     S
C712   N758    1.372   .     A
C713   H733    1.111   .     S
C713   H732    1.108   .     S
C713   C586    1.533   1_655 S
C713   C596    1.540   1_655 S
C714   H756    1.111   .     S
C714   H755    1.109   .     S
C714   H754    1.107   .     S
C715   H737    1.111   .     S
C715   H738    1.106   .     S
C716   O761    1.292   .     A
C716   O763    1.291   .     A
C717   H734    1.111   .     S
C717   H736    1.111   .     S
C717   H735    1.108   .     S
C717   C587    1.532   1_655 S
C718   O768    1.413   .     S
C718   H740    1.113   .     S
C718   C719    1.520   .     S
C718   H739    1.114   .     S
C719   H744    1.109   .     S
C719   H741    1.111   .     S
C720   O760    1.417   .     S
C720   C721    1.524   .     S
C720   H746    1.115   .     S
C720   H745    1.110   .     S
C721   H748    1.110   .     S
C721   H749    1.111   .     S
C722   O764    1.280   .     A
C722   C724    1.435   .     S
C722   O766    1.290   .     A
C723   O765    1.280   .     A
C723   C725    1.436   .     S
C723   O767    1.291   .     A
C725   C587    1.538   1_655 S
C725   C596    1.365   1_655 S
C726   H731    1.083   .     S
C726   C1112   1.383   1_545 S
C727   H742    1.083   .     S
C727   C898    1.383   .     S
C728   H750    1.083   .     S
C728   C918    1.383   .     S
Cu729  O764    1.973   .     S
Cu729  N757    2.013   .     S
Cu729  O767    1.966   .     S
Cu729  O763    1.961   .     S
Cu729  Cu730   2.679   .     S
Cu729  O759    1.962   .     S
Cu730  O766    1.966   .     S
Cu730  O762    1.961   .     S
Cu730  N758    2.013   .     S
Cu730  O765    1.973   .     S
Cu730  O761    1.962   .     S
H743   C591    1.110   1_655 S
H747   C1297   1.109   .     S
C769   C772    1.447   .     S
C769   O826    1.291   .     A
C769   O823    1.291   .     A
C770   C772    1.400   .     A
C770   H815    1.083   .     S
C771   C791    1.401   .     A
C771   C792    1.400   .     A
C771   C780    1.448   .     S
C772   C790    1.401   .     A
C773   H816    1.078   .     S
C773   N822    1.362   .     A
C774   H817    1.080   .     S
C774   N821    1.363   .     A
C774   C1352   1.428   .     S
C775   O832    1.398   .     S
C775   N821    1.375   .     A
C775   C1349   1.438   .     S
C776   O824    1.389   .     S
C776   N822    1.372   .     A
C777   H797    1.111   .     S
C777   H796    1.108   .     S
C777   C842    1.533   .     S
C777   C852    1.540   .     S
C778   H820    1.111   .     S
C778   H819    1.109   .     S
C778   H818    1.107   .     S
C778   C905    1.533   1_455 S
C779   H801    1.111   .     S
C779   H802    1.106   .     S
C779   C909    1.532   1_455 S
C779   C917    1.538   1_455 S
C780   O825    1.292   .     A
C780   O827    1.291   .     A
C781   H798    1.111   .     S
C781   H800    1.111   .     S
C781   H799    1.108   .     S
C781   C843    1.532   .     S
C782   O832    1.413   .     S
C782   H804    1.113   .     S
C782   C783    1.520   .     S
C782   H803    1.114   .     S
C783   H808    1.109   .     S
C783   H805    1.111   .     S
C783   H935    1.110   1_455 S
C784   O824    1.417   .     S
C784   C785    1.524   .     S
C784   H810    1.115   .     S
C784   H809    1.110   .     S
C785   H812    1.110   .     S
C785   H813    1.111   .     S
C786   O828    1.280   .     A
C786   C788    1.435   .     S
C786   O830    1.290   .     A
C787   O829    1.280   .     A
C787   C789    1.436   .     S
C787   O831    1.291   .     A
C788   C905    1.540   1_455 S
C788   C917    1.365   1_455 S
C789   C843    1.538   .     S
C789   C852    1.365   .     S
C790   H795    1.083   .     S
C791   H806    1.083   .     S
C791   C962    1.383   .     S
C792   H814    1.083   .     S
C792   C982    1.383   .     S
Cu793  O828    1.973   .     S
Cu793  N821    2.013   .     S
Cu793  O831    1.966   .     S
Cu793  O827    1.961   .     S
Cu793  Cu794   2.679   .     S
Cu793  O823    1.962   .     S
Cu794  O830    1.966   .     S
Cu794  O826    1.961   .     S
Cu794  N822    2.013   .     S
Cu794  O829    1.973   .     S
Cu794  O825    1.962   .     S
H807   C847    1.110   .     S
H811   C1361   1.109   .     S
C833   C836    1.447   .     S
C833   O890    1.291   .     A
C833   O887    1.291   .     A
C834   C836    1.400   .     A
C834   H879    1.083   .     S
C835   C855    1.401   .     A
C835   C856    1.400   .     A
C835   C844    1.448   .     S
C836   C854    1.401   .     A
C837   H880    1.078   .     S
C837   N886    1.362   .     A
C838   H881    1.080   .     S
C838   N885    1.363   .     A
C838   C1416   1.428   .     S
C839   O896    1.398   .     S
C839   N885    1.375   .     A
C839   C1413   1.438   .     S
C840   O888    1.389   .     S
C840   N886    1.372   .     A
C841   H861    1.111   .     S
C841   H860    1.108   .     S
C841   C906    1.533   .     S
C841   C916    1.540   .     S
C842   H884    1.111   .     S
C842   H883    1.109   .     S
C842   H882    1.107   .     S
C843   H865    1.111   .     S
C843   H866    1.106   .     S
C844   O889    1.292   .     A
C844   O891    1.291   .     A
C845   H862    1.111   .     S
C845   H864    1.111   .     S
C845   H863    1.108   .     S
C845   C907    1.532   .     S
C846   O896    1.413   .     S
C846   H868    1.113   .     S
C846   C847    1.520   .     S
C846   H867    1.114   .     S
C847   H872    1.109   .     S
C847   H869    1.111   .     S
C848   O888    1.417   .     S
C848   C849    1.524   .     S
C848   H874    1.115   .     S
C848   H873    1.110   .     S
C849   H876    1.110   .     S
C849   H877    1.111   .     S
C850   O892    1.280   .     A
C850   C852    1.435   .     S
C850   O894    1.290   .     A
C851   O893    1.280   .     A
C851   C853    1.436   .     S
C851   O895    1.291   .     A
C853   C907    1.538   .     S
C853   C916    1.365   .     S
C854   H859    1.083   .     S
C855   H870    1.083   .     S
C855   C1026   1.383   .     S
C856   H878    1.083   .     S
C856   C1046   1.383   .     S
Cu857  O892    1.973   .     S
Cu857  N885    2.013   .     S
Cu857  O895    1.966   .     S
Cu857  O891    1.961   .     S
Cu857  Cu858   2.679   .     S
Cu857  O887    1.962   .     S
Cu858  O894    1.966   .     S
Cu858  O890    1.961   .     S
Cu858  N886    2.013   .     S
Cu858  O893    1.973   .     S
Cu858  O889    1.962   .     S
H871   C911    1.110   .     S
H875   C1425   1.109   .     S
C897   C900    1.447   .     S
C897   O954    1.291   .     A
C897   O951    1.291   .     A
C898   C900    1.400   .     A
C898   H943    1.083   .     S
C899   C919    1.401   .     A
C899   C920    1.400   .     A
C899   C908    1.448   .     S
C900   C918    1.401   .     A
C901   H944    1.078   .     S
C901   N950    1.362   .     A
C902   H945    1.080   .     S
C902   N949    1.363   .     A
C902   C1480   1.428   .     S
C903   O960    1.398   .     S
C903   N949    1.375   .     A
C903   C1477   1.438   .     S
C904   O952    1.389   .     S
C904   N950    1.372   .     A
C905   H925    1.111   .     S
C905   H924    1.108   .     S
C905   C778    1.533   1_655 S
C905   C788    1.540   1_655 S
C906   H948    1.111   .     S
C906   H947    1.109   .     S
C906   H946    1.107   .     S
C907   H929    1.111   .     S
C907   H930    1.106   .     S
C908   O953    1.292   .     A
C908   O955    1.291   .     A
C909   H926    1.111   .     S
C909   H928    1.111   .     S
C909   H927    1.108   .     S
C909   C779    1.532   1_655 S
C910   O960    1.413   .     S
C910   H932    1.113   .     S
C910   C911    1.520   .     S
C910   H931    1.114   .     S
C911   H936    1.109   .     S
C911   H933    1.111   .     S
C912   O952    1.417   .     S
C912   C913    1.524   .     S
C912   H938    1.115   .     S
C912   H937    1.110   .     S
C913   H940    1.110   .     S
C913   H941    1.111   .     S
C914   O956    1.280   .     A
C914   C916    1.435   .     S
C914   O958    1.290   .     A
C915   O957    1.280   .     A
C915   C917    1.436   .     S
C915   O959    1.291   .     A
C917   C779    1.538   1_655 S
C917   C788    1.365   1_655 S
C918   H923    1.083   .     S
C919   H934    1.083   .     S
C919   C1090   1.383   .     S
C920   H942    1.083   .     S
C920   C1110   1.383   .     S
Cu921  O956    1.973   .     S
Cu921  N949    2.013   .     S
Cu921  O959    1.966   .     S
Cu921  O955    1.961   .     S
Cu921  Cu922   2.679   .     S
Cu921  O951    1.962   .     S
Cu922  O958    1.966   .     S
Cu922  O954    1.961   .     S
Cu922  N950    2.013   .     S
Cu922  O957    1.973   .     S
Cu922  O953    1.962   .     S
H935   C783    1.110   1_655 S
H939   C1489   1.109   .     S
C961   C964    1.447   .     S
C961   O1018   1.291   .     A
C961   O1015   1.291   .     A
C962   C964    1.400   .     A
C962   H1007   1.083   .     S
C963   C983    1.401   .     A
C963   C984    1.400   .     A
C963   C972    1.448   .     S
C964   C982    1.401   .     A
C965   H1008   1.078   .     S
C965   N1014   1.362   .     A
C966   H1009   1.080   .     S
C966   N1013   1.363   .     A
C966   C1544   1.428   .     S
C967   O1024   1.398   .     S
C967   N1013   1.375   .     A
C967   C1541   1.438   .     S
C968   O1016   1.389   .     S
C968   N1014   1.372   .     A
C969   H989    1.111   .     S
C969   H988    1.108   .     S
C969   C1034   1.533   .     S
C969   C1044   1.540   .     S
C970   H1012   1.111   .     S
C970   H1011   1.109   .     S
C970   H1010   1.107   .     S
C970   C1097   1.533   1_455 S
C971   H993    1.111   .     S
C971   H994    1.106   .     S
C971   C1101   1.532   1_455 S
C971   C1109   1.538   1_455 S
C972   O1017   1.292   .     A
C972   O1019   1.291   .     A
C973   H990    1.111   .     S
C973   H992    1.111   .     S
C973   H991    1.108   .     S
C973   C1035   1.532   .     S
C974   O1024   1.413   .     S
C974   H996    1.113   .     S
C974   C975    1.520   .     S
C974   H995    1.114   .     S
C975   H1000   1.109   .     S
C975   H997    1.111   .     S
C975   H1127   1.110   1_455 S
C976   O1016   1.417   .     S
C976   C977    1.524   .     S
C976   H1002   1.115   .     S
C976   H1001   1.110   .     S
C977   H1004   1.110   .     S
C977   H1005   1.111   .     S
C978   O1020   1.280   .     A
C978   C980    1.435   .     S
C978   O1022   1.290   .     A
C979   O1021   1.280   .     A
C979   C981    1.436   .     S
C979   O1023   1.291   .     A
C980   C1097   1.540   1_455 S
C980   C1109   1.365   1_455 S
C981   C1035   1.538   .     S
C981   C1044   1.365   .     S
C982   H987    1.083   .     S
C983   H998    1.083   .     S
C983   C578    1.383   1_565 S
C984   H1006   1.083   .     S
C984   C598    1.383   1_565 S
Cu985  O1020   1.973   .     S
Cu985  N1013   2.013   .     S
Cu985  O1023   1.966   .     S
Cu985  O1019   1.961   .     S
Cu985  Cu986   2.679   .     S
Cu985  O1015   1.962   .     S
Cu986  O1022   1.966   .     S
Cu986  O1018   1.961   .     S
Cu986  N1014   2.013   .     S
Cu986  O1021   1.973   .     S
Cu986  O1017   1.962   .     S
H999   C1039   1.110   .     S
H1003  C1553   1.109   .     S
C1025  C1028   1.447   .     S
C1025  O1082   1.291   .     A
C1025  O1079   1.291   .     A
C1026  C1028   1.400   .     A
C1026  H1071   1.083   .     S
C1027  C1047   1.401   .     A
C1027  C1048   1.400   .     A
C1027  C1036   1.448   .     S
C1028  C1046   1.401   .     A
C1029  H1072   1.078   .     S
C1029  N1078   1.362   .     A
C1030  H1073   1.080   .     S
C1030  N1077   1.363   .     A
C1030  C1608   1.428   .     S
C1031  O1088   1.398   .     S
C1031  N1077   1.375   .     A
C1031  C1605   1.438   .     S
C1032  O1080   1.389   .     S
C1032  N1078   1.372   .     A
C1033  H1053   1.111   .     S
C1033  H1052   1.108   .     S
C1033  C1098   1.533   .     S
C1033  C1108   1.540   .     S
C1034  H1076   1.111   .     S
C1034  H1075   1.109   .     S
C1034  H1074   1.107   .     S
C1035  H1057   1.111   .     S
C1035  H1058   1.106   .     S
C1036  O1081   1.292   .     A
C1036  O1083   1.291   .     A
C1037  H1054   1.111   .     S
C1037  H1056   1.111   .     S
C1037  H1055   1.108   .     S
C1037  C1099   1.532   .     S
C1038  O1088   1.413   .     S
C1038  H1060   1.113   .     S
C1038  C1039   1.520   .     S
C1038  H1059   1.114   .     S
C1039  H1064   1.109   .     S
C1039  H1061   1.111   .     S
C1040  O1080   1.417   .     S
C1040  C1041   1.524   .     S
C1040  H1066   1.115   .     S
C1040  H1065   1.110   .     S
C1041  H1068   1.110   .     S
C1041  H1069   1.111   .     S
C1042  O1084   1.280   .     A
C1042  C1044   1.435   .     S
C1042  O1086   1.290   .     A
C1043  O1085   1.280   .     A
C1043  C1045   1.436   .     S
C1043  O1087   1.291   .     A
C1045  C1099   1.538   .     S
C1045  C1108   1.365   .     S
C1046  H1051   1.083   .     S
C1047  H1062   1.083   .     S
C1047  C642    1.383   1_565 S
C1048  H1070   1.083   .     S
C1048  C662    1.383   1_565 S
Cu1049 O1084   1.973   .     S
Cu1049 N1077   2.013   .     S
Cu1049 O1087   1.966   .     S
Cu1049 O1083   1.961   .     S
Cu1049 Cu1050  2.679   .     S
Cu1049 O1079   1.962   .     S
Cu1050 O1086   1.966   .     S
Cu1050 O1082   1.961   .     S
Cu1050 N1078   2.013   .     S
Cu1050 O1085   1.973   .     S
Cu1050 O1081   1.962   .     S
H1063  C1103   1.110   .     S
H1067  C1617   1.109   .     S
C1089  C1092   1.447   .     S
C1089  O1146   1.291   .     A
C1089  O1143   1.291   .     A
C1090  C1092   1.400   .     A
C1090  H1135   1.083   .     S
C1091  C1111   1.401   .     A
C1091  C1112   1.400   .     A
C1091  C1100   1.448   .     S
C1092  C1110   1.401   .     A
C1093  H1136   1.078   .     S
C1093  N1142   1.362   .     A
C1094  H1137   1.080   .     S
C1094  N1141   1.363   .     A
C1094  C1672   1.428   .     S
C1095  O1152   1.398   .     S
C1095  N1141   1.375   .     A
C1095  C1669   1.438   .     S
C1096  O1144   1.389   .     S
C1096  N1142   1.372   .     A
C1097  H1117   1.111   .     S
C1097  H1116   1.108   .     S
C1097  C970    1.533   1_655 S
C1097  C980    1.540   1_655 S
C1098  H1140   1.111   .     S
C1098  H1139   1.109   .     S
C1098  H1138   1.107   .     S
C1099  H1121   1.111   .     S
C1099  H1122   1.106   .     S
C1100  O1145   1.292   .     A
C1100  O1147   1.291   .     A
C1101  H1118   1.111   .     S
C1101  H1120   1.111   .     S
C1101  H1119   1.108   .     S
C1101  C971    1.532   1_655 S
C1102  O1152   1.413   .     S
C1102  H1124   1.113   .     S
C1102  C1103   1.520   .     S
C1102  H1123   1.114   .     S
C1103  H1128   1.109   .     S
C1103  H1125   1.111   .     S
C1104  O1144   1.417   .     S
C1104  C1105   1.524   .     S
C1104  H1130   1.115   .     S
C1104  H1129   1.110   .     S
C1105  H1132   1.110   .     S
C1105  H1133   1.111   .     S
C1106  O1148   1.280   .     A
C1106  C1108   1.435   .     S
C1106  O1150   1.290   .     A
C1107  O1149   1.280   .     A
C1107  C1109   1.436   .     S
C1107  O1151   1.291   .     A
C1109  C971    1.538   1_655 S
C1109  C980    1.365   1_655 S
C1110  H1115   1.083   .     S
C1111  H1126   1.083   .     S
C1111  C706    1.383   1_565 S
C1112  H1134   1.083   .     S
C1112  C726    1.383   1_565 S
Cu1113 O1148   1.973   .     S
Cu1113 N1141   2.013   .     S
Cu1113 O1151   1.966   .     S
Cu1113 O1147   1.961   .     S
Cu1113 Cu1114  2.679   .     S
Cu1113 O1143   1.962   .     S
Cu1114 O1150   1.966   .     S
Cu1114 O1146   1.961   .     S
Cu1114 N1142   2.013   .     S
Cu1114 O1149   1.973   .     S
Cu1114 O1145   1.962   .     S
H1127  C975    1.110   1_655 S
H1131  C1681   1.109   .     S
C1153  C1156   1.447   .     S
C1153  O1210   1.291   .     A
C1153  O1207   1.291   .     A
C1154  C1156   1.400   .     A
C1154  H1199   1.083   .     S
C1154  C1559   1.383   1_545 S
C1155  C1175   1.401   .     A
C1155  C1176   1.400   .     A
C1155  C1164   1.448   .     S
C1156  C1174   1.401   .     A
C1157  H1200   1.078   .     S
C1157  N1206   1.362   .     A
C1158  H1201   1.080   .     S
C1158  N1205   1.363   .     A
C1158  C8      1.428   1_556 S
C1159  O1216   1.398   .     S
C1159  N1205   1.375   .     A
C1159  C5      1.438   1_556 S
C1160  O1208   1.389   .     S
C1160  N1206   1.372   .     A
C1161  H1181   1.111   .     S
C1161  H1180   1.108   .     S
C1161  C1226   1.533   .     S
C1161  C1236   1.540   .     S
C1162  H1204   1.111   .     S
C1162  H1203   1.109   .     S
C1162  H1202   1.107   .     S
C1162  C1289   1.533   1_455 S
C1163  H1185   1.111   .     S
C1163  H1186   1.106   .     S
C1163  C1293   1.532   1_455 S
C1163  C1301   1.538   1_455 S
C1164  O1209   1.292   .     A
C1164  O1211   1.291   .     A
C1165  H1182   1.111   .     S
C1165  H1184   1.111   .     S
C1165  H1183   1.108   .     S
C1165  C1227   1.532   .     S
C1166  O1216   1.413   .     S
C1166  H1188   1.113   .     S
C1166  C1167   1.520   .     S
C1166  H1187   1.114   .     S
C1167  H1192   1.109   .     S
C1167  H1189   1.111   .     S
C1167  H1319   1.110   1_455 S
C1168  O1208   1.417   .     S
C1168  C1169   1.524   .     S
C1168  H1194   1.115   .     S
C1168  H1193   1.110   .     S
C1169  H1196   1.110   .     S
C1169  H1197   1.111   .     S
C1170  O1212   1.280   .     A
C1170  C1172   1.435   .     S
C1170  O1214   1.290   .     A
C1171  O1213   1.280   .     A
C1171  C1173   1.436   .     S
C1171  O1215   1.291   .     A
C1172  C1289   1.540   1_455 S
C1172  C1301   1.365   1_455 S
C1173  C1227   1.538   .     S
C1173  C1236   1.365   .     S
C1174  H1179   1.083   .     S
C1174  C1560   1.383   1_545 S
C1175  H1190   1.083   .     S
C1175  C1346   1.383   .     S
C1176  H1198   1.083   .     S
C1176  C1366   1.383   .     S
Cu1177 O1212   1.973   .     S
Cu1177 N1205   2.013   .     S
Cu1177 O1215   1.966   .     S
Cu1177 O1211   1.961   .     S
Cu1177 Cu1178  2.679   .     S
Cu1177 O1207   1.962   .     S
Cu1178 O1214   1.966   .     S
Cu1178 O1210   1.961   .     S
Cu1178 N1206   2.013   .     S
Cu1178 O1213   1.973   .     S
Cu1178 O1209   1.962   .     S
H1191  C1231   1.110   .     S
H1195  C17     1.109   1_556 S
C1217  C1220   1.447   .     S
C1217  O1274   1.291   .     A
C1217  O1271   1.291   .     A
C1218  C1220   1.400   .     A
C1218  H1263   1.083   .     S
C1218  C1623   1.383   1_545 S
C1219  C1239   1.401   .     A
C1219  C1240   1.400   .     A
C1219  C1228   1.448   .     S
C1220  C1238   1.401   .     A
C1221  H1264   1.078   .     S
C1221  N1270   1.362   .     A
C1222  H1265   1.080   .     S
C1222  N1269   1.363   .     A
C1222  C72     1.428   1_556 S
C1223  O1280   1.398   .     S
C1223  N1269   1.375   .     A
C1223  C69     1.438   1_556 S
C1224  O1272   1.389   .     S
C1224  N1270   1.372   .     A
C1225  H1245   1.111   .     S
C1225  H1244   1.108   .     S
C1225  C1290   1.533   .     S
C1225  C1300   1.540   .     S
C1226  H1268   1.111   .     S
C1226  H1267   1.109   .     S
C1226  H1266   1.107   .     S
C1227  H1249   1.111   .     S
C1227  H1250   1.106   .     S
C1228  O1273   1.292   .     A
C1228  O1275   1.291   .     A
C1229  H1246   1.111   .     S
C1229  H1248   1.111   .     S
C1229  H1247   1.108   .     S
C1229  C1291   1.532   .     S
C1230  O1280   1.413   .     S
C1230  H1252   1.113   .     S
C1230  C1231   1.520   .     S
C1230  H1251   1.114   .     S
C1231  H1256   1.109   .     S
C1231  H1253   1.111   .     S
C1232  O1272   1.417   .     S
C1232  C1233   1.524   .     S
C1232  H1258   1.115   .     S
C1232  H1257   1.110   .     S
C1233  H1260   1.110   .     S
C1233  H1261   1.111   .     S
C1234  O1276   1.280   .     A
C1234  C1236   1.435   .     S
C1234  O1278   1.290   .     A
C1235  O1277   1.280   .     A
C1235  C1237   1.436   .     S
C1235  O1279   1.291   .     A
C1237  C1291   1.538   .     S
C1237  C1300   1.365   .     S
C1238  H1243   1.083   .     S
C1238  C1624   1.383   1_545 S
C1239  H1254   1.083   .     S
C1239  C1410   1.383   .     S
C1240  H1262   1.083   .     S
C1240  C1430   1.383   .     S
Cu1241 O1276   1.973   .     S
Cu1241 N1269   2.013   .     S
Cu1241 O1279   1.966   .     S
Cu1241 O1275   1.961   .     S
Cu1241 Cu1242  2.679   .     S
Cu1241 O1271   1.962   .     S
Cu1242 O1278   1.966   .     S
Cu1242 O1274   1.961   .     S
Cu1242 N1270   2.013   .     S
Cu1242 O1277   1.973   .     S
Cu1242 O1273   1.962   .     S
H1255  C1295   1.110   .     S
H1259  C81     1.109   1_556 S
C1281  C1284   1.447   .     S
C1281  O1338   1.291   .     A
C1281  O1335   1.291   .     A
C1282  C1284   1.400   .     A
C1282  H1327   1.083   .     S
C1282  C1687   1.383   1_545 S
C1283  C1303   1.401   .     A
C1283  C1304   1.400   .     A
C1283  C1292   1.448   .     S
C1284  C1302   1.401   .     A
C1285  H1328   1.078   .     S
C1285  N1334   1.362   .     A
C1286  H1329   1.080   .     S
C1286  N1333   1.363   .     A
C1286  C136    1.428   1_556 S
C1287  O1344   1.398   .     S
C1287  N1333   1.375   .     A
C1287  C133    1.438   1_556 S
C1288  O1336   1.389   .     S
C1288  N1334   1.372   .     A
C1289  H1309   1.111   .     S
C1289  H1308   1.108   .     S
C1289  C1162   1.533   1_655 S
C1289  C1172   1.540   1_655 S
C1290  H1332   1.111   .     S
C1290  H1331   1.109   .     S
C1290  H1330   1.107   .     S
C1291  H1313   1.111   .     S
C1291  H1314   1.106   .     S
C1292  O1337   1.292   .     A
C1292  O1339   1.291   .     A
C1293  H1310   1.111   .     S
C1293  H1312   1.111   .     S
C1293  H1311   1.108   .     S
C1293  C1163   1.532   1_655 S
C1294  O1344   1.413   .     S
C1294  H1316   1.113   .     S
C1294  C1295   1.520   .     S
C1294  H1315   1.114   .     S
C1295  H1320   1.109   .     S
C1295  H1317   1.111   .     S
C1296  O1336   1.417   .     S
C1296  C1297   1.524   .     S
C1296  H1322   1.115   .     S
C1296  H1321   1.110   .     S
C1297  H1324   1.110   .     S
C1297  H1325   1.111   .     S
C1298  O1340   1.280   .     A
C1298  C1300   1.435   .     S
C1298  O1342   1.290   .     A
C1299  O1341   1.280   .     A
C1299  C1301   1.436   .     S
C1299  O1343   1.291   .     A
C1301  C1163   1.538   1_655 S
C1301  C1172   1.365   1_655 S
C1302  H1307   1.083   .     S
C1302  C1688   1.383   1_545 S
C1303  H1318   1.083   .     S
C1303  C1474   1.383   .     S
C1304  H1326   1.083   .     S
C1304  C1494   1.383   .     S
Cu1305 O1340   1.973   .     S
Cu1305 N1333   2.013   .     S
Cu1305 O1343   1.966   .     S
Cu1305 O1339   1.961   .     S
Cu1305 Cu1306  2.679   .     S
Cu1305 O1335   1.962   .     S
Cu1306 O1342   1.966   .     S
Cu1306 O1338   1.961   .     S
Cu1306 N1334   2.013   .     S
Cu1306 O1341   1.973   .     S
Cu1306 O1337   1.962   .     S
H1319  C1167   1.110   1_655 S
H1323  C145    1.109   1_556 S
C1345  C1348   1.447   .     S
C1345  O1402   1.291   .     A
C1345  O1399   1.291   .     A
C1346  C1348   1.400   .     A
C1346  H1391   1.083   .     S
C1347  C1367   1.401   .     A
C1347  C1368   1.400   .     A
C1347  C1356   1.448   .     S
C1348  C1366   1.401   .     A
C1349  H1392   1.078   .     S
C1349  N1398   1.362   .     A
C1350  H1393   1.080   .     S
C1350  N1397   1.363   .     A
C1350  C200    1.428   1_556 S
C1351  O1408   1.398   .     S
C1351  N1397   1.375   .     A
C1351  C197    1.438   1_556 S
C1352  O1400   1.389   .     S
C1352  N1398   1.372   .     A
C1353  H1373   1.111   .     S
C1353  H1372   1.108   .     S
C1353  C1418   1.533   .     S
C1353  C1428   1.540   .     S
C1354  H1396   1.111   .     S
C1354  H1395   1.109   .     S
C1354  H1394   1.107   .     S
C1354  C1481   1.533   1_455 S
C1355  H1377   1.111   .     S
C1355  H1378   1.106   .     S
C1355  C1485   1.532   1_455 S
C1355  C1493   1.538   1_455 S
C1356  O1401   1.292   .     A
C1356  O1403   1.291   .     A
C1357  H1374   1.111   .     S
C1357  H1376   1.111   .     S
C1357  H1375   1.108   .     S
C1357  C1419   1.532   .     S
C1358  O1408   1.413   .     S
C1358  H1380   1.113   .     S
C1358  C1359   1.520   .     S
C1358  H1379   1.114   .     S
C1359  H1384   1.109   .     S
C1359  H1381   1.111   .     S
C1359  H1511   1.110   1_455 S
C1360  O1400   1.417   .     S
C1360  C1361   1.524   .     S
C1360  H1386   1.115   .     S
C1360  H1385   1.110   .     S
C1361  H1388   1.110   .     S
C1361  H1389   1.111   .     S
C1362  O1404   1.280   .     A
C1362  C1364   1.435   .     S
C1362  O1406   1.290   .     A
C1363  O1405   1.280   .     A
C1363  C1365   1.436   .     S
C1363  O1407   1.291   .     A
C1364  C1481   1.540   1_455 S
C1364  C1493   1.365   1_455 S
C1365  C1419   1.538   .     S
C1365  C1428   1.365   .     S
C1366  H1371   1.083   .     S
C1367  H1382   1.083   .     S
C1367  C1538   1.383   .     S
C1368  H1390   1.083   .     S
C1368  C1558   1.383   .     S
Cu1369 O1404   1.973   .     S
Cu1369 N1397   2.013   .     S
Cu1369 O1407   1.966   .     S
Cu1369 O1403   1.961   .     S
Cu1369 Cu1370  2.679   .     S
Cu1369 O1399   1.962   .     S
Cu1370 O1406   1.966   .     S
Cu1370 O1402   1.961   .     S
Cu1370 N1398   2.013   .     S
Cu1370 O1405   1.973   .     S
Cu1370 O1401   1.962   .     S
H1383  C1423   1.110   .     S
H1387  C209    1.109   1_556 S
C1409  C1412   1.447   .     S
C1409  O1466   1.291   .     A
C1409  O1463   1.291   .     A
C1410  C1412   1.400   .     A
C1410  H1455   1.083   .     S
C1411  C1431   1.401   .     A
C1411  C1432   1.400   .     A
C1411  C1420   1.448   .     S
C1412  C1430   1.401   .     A
C1413  H1456   1.078   .     S
C1413  N1462   1.362   .     A
C1414  H1457   1.080   .     S
C1414  N1461   1.363   .     A
C1414  C264    1.428   1_556 S
C1415  O1472   1.398   .     S
C1415  N1461   1.375   .     A
C1415  C261    1.438   1_556 S
C1416  O1464   1.389   .     S
C1416  N1462   1.372   .     A
C1417  H1437   1.111   .     S
C1417  H1436   1.108   .     S
C1417  C1482   1.533   .     S
C1417  C1492   1.540   .     S
C1418  H1460   1.111   .     S
C1418  H1459   1.109   .     S
C1418  H1458   1.107   .     S
C1419  H1441   1.111   .     S
C1419  H1442   1.106   .     S
C1420  O1465   1.292   .     A
C1420  O1467   1.291   .     A
C1421  H1438   1.111   .     S
C1421  H1440   1.111   .     S
C1421  H1439   1.108   .     S
C1421  C1483   1.532   .     S
C1422  O1472   1.413   .     S
C1422  H1444   1.113   .     S
C1422  C1423   1.520   .     S
C1422  H1443   1.114   .     S
C1423  H1448   1.109   .     S
C1423  H1445   1.111   .     S
C1424  O1464   1.417   .     S
C1424  C1425   1.524   .     S
C1424  H1450   1.115   .     S
C1424  H1449   1.110   .     S
C1425  H1452   1.110   .     S
C1425  H1453   1.111   .     S
C1426  O1468   1.280   .     A
C1426  C1428   1.435   .     S
C1426  O1470   1.290   .     A
C1427  O1469   1.280   .     A
C1427  C1429   1.436   .     S
C1427  O1471   1.291   .     A
C1429  C1483   1.538   .     S
C1429  C1492   1.365   .     S
C1430  H1435   1.083   .     S
C1431  H1446   1.083   .     S
C1431  C1602   1.383   .     S
C1432  H1454   1.083   .     S
C1432  C1622   1.383   .     S
Cu1433 O1468   1.973   .     S
Cu1433 N1461   2.013   .     S
Cu1433 O1471   1.966   .     S
Cu1433 O1467   1.961   .     S
Cu1433 Cu1434  2.679   .     S
Cu1433 O1463   1.962   .     S
Cu1434 O1470   1.966   .     S
Cu1434 O1466   1.961   .     S
Cu1434 N1462   2.013   .     S
Cu1434 O1469   1.973   .     S
Cu1434 O1465   1.962   .     S
H1447  C1487   1.110   .     S
H1451  C273    1.109   1_556 S
C1473  C1476   1.447   .     S
C1473  O1530   1.291   .     A
C1473  O1527   1.291   .     A
C1474  C1476   1.400   .     A
C1474  H1519   1.083   .     S
C1475  C1495   1.401   .     A
C1475  C1496   1.400   .     A
C1475  C1484   1.448   .     S
C1476  C1494   1.401   .     A
C1477  H1520   1.078   .     S
C1477  N1526   1.362   .     A
C1478  H1521   1.080   .     S
C1478  N1525   1.363   .     A
C1478  C328    1.428   1_556 S
C1479  O1536   1.398   .     S
C1479  N1525   1.375   .     A
C1479  C325    1.438   1_556 S
C1480  O1528   1.389   .     S
C1480  N1526   1.372   .     A
C1481  H1501   1.111   .     S
C1481  H1500   1.108   .     S
C1481  C1354   1.533   1_655 S
C1481  C1364   1.540   1_655 S
C1482  H1524   1.111   .     S
C1482  H1523   1.109   .     S
C1482  H1522   1.107   .     S
C1483  H1505   1.111   .     S
C1483  H1506   1.106   .     S
C1484  O1529   1.292   .     A
C1484  O1531   1.291   .     A
C1485  H1502   1.111   .     S
C1485  H1504   1.111   .     S
C1485  H1503   1.108   .     S
C1485  C1355   1.532   1_655 S
C1486  O1536   1.413   .     S
C1486  H1508   1.113   .     S
C1486  C1487   1.520   .     S
C1486  H1507   1.114   .     S
C1487  H1512   1.109   .     S
C1487  H1509   1.111   .     S
C1488  O1528   1.417   .     S
C1488  C1489   1.524   .     S
C1488  H1514   1.115   .     S
C1488  H1513   1.110   .     S
C1489  H1516   1.110   .     S
C1489  H1517   1.111   .     S
C1490  O1532   1.280   .     A
C1490  C1492   1.435   .     S
C1490  O1534   1.290   .     A
C1491  O1533   1.280   .     A
C1491  C1493   1.436   .     S
C1491  O1535   1.291   .     A
C1493  C1355   1.538   1_655 S
C1493  C1364   1.365   1_655 S
C1494  H1499   1.083   .     S
C1495  H1510   1.083   .     S
C1495  C1666   1.383   .     S
C1496  H1518   1.083   .     S
C1496  C1686   1.383   .     S
Cu1497 O1532   1.973   .     S
Cu1497 N1525   2.013   .     S
Cu1497 O1535   1.966   .     S
Cu1497 O1531   1.961   .     S
Cu1497 Cu1498  2.679   .     S
Cu1497 O1527   1.962   .     S
Cu1498 O1534   1.966   .     S
Cu1498 O1530   1.961   .     S
Cu1498 N1526   2.013   .     S
Cu1498 O1533   1.973   .     S
Cu1498 O1529   1.962   .     S
H1511  C1359   1.110   1_655 S
H1515  C337    1.109   1_556 S
C1537  C1540   1.447   .     S
C1537  O1594   1.291   .     A
C1537  O1591   1.291   .     A
C1538  C1540   1.400   .     A
C1538  H1583   1.083   .     S
C1539  C1559   1.401   .     A
C1539  C1560   1.400   .     A
C1539  C1548   1.448   .     S
C1540  C1558   1.401   .     A
C1541  H1584   1.078   .     S
C1541  N1590   1.362   .     A
C1542  H1585   1.080   .     S
C1542  N1589   1.363   .     A
C1542  C392    1.428   1_556 S
C1543  O1600   1.398   .     S
C1543  N1589   1.375   .     A
C1543  C389    1.438   1_556 S
C1544  O1592   1.389   .     S
C1544  N1590   1.372   .     A
C1545  H1565   1.111   .     S
C1545  H1564   1.108   .     S
C1545  C1610   1.533   .     S
C1545  C1620   1.540   .     S
C1546  H1588   1.111   .     S
C1546  H1587   1.109   .     S
C1546  H1586   1.107   .     S
C1546  C1673   1.533   1_455 S
C1547  H1569   1.111   .     S
C1547  H1570   1.106   .     S
C1547  C1677   1.532   1_455 S
C1547  C1685   1.538   1_455 S
C1548  O1593   1.292   .     A
C1548  O1595   1.291   .     A
C1549  H1566   1.111   .     S
C1549  H1568   1.111   .     S
C1549  H1567   1.108   .     S
C1549  C1611   1.532   .     S
C1550  O1600   1.413   .     S
C1550  H1572   1.113   .     S
C1550  C1551   1.520   .     S
C1550  H1571   1.114   .     S
C1551  H1576   1.109   .     S
C1551  H1573   1.111   .     S
C1551  H1703   1.110   1_455 S
C1552  O1592   1.417   .     S
C1552  C1553   1.524   .     S
C1552  H1578   1.115   .     S
C1552  H1577   1.110   .     S
C1553  H1580   1.110   .     S
C1553  H1581   1.111   .     S
C1554  O1596   1.280   .     A
C1554  C1556   1.435   .     S
C1554  O1598   1.290   .     A
C1555  O1597   1.280   .     A
C1555  C1557   1.436   .     S
C1555  O1599   1.291   .     A
C1556  C1673   1.540   1_455 S
C1556  C1685   1.365   1_455 S
C1557  C1611   1.538   .     S
C1557  C1620   1.365   .     S
C1558  H1563   1.083   .     S
C1559  H1574   1.083   .     S
C1559  C1154   1.383   1_565 S
C1560  H1582   1.083   .     S
C1560  C1174   1.383   1_565 S
Cu1561 O1596   1.973   .     S
Cu1561 N1589   2.013   .     S
Cu1561 O1599   1.966   .     S
Cu1561 O1595   1.961   .     S
Cu1561 Cu1562  2.679   .     S
Cu1561 O1591   1.962   .     S
Cu1562 O1598   1.966   .     S
Cu1562 O1594   1.961   .     S
Cu1562 N1590   2.013   .     S
Cu1562 O1597   1.973   .     S
Cu1562 O1593   1.962   .     S
H1575  C1615   1.110   .     S
H1579  C401    1.109   1_556 S
C1601  C1604   1.447   .     S
C1601  O1658   1.291   .     A
C1601  O1655   1.291   .     A
C1602  C1604   1.400   .     A
C1602  H1647   1.083   .     S
C1603  C1623   1.401   .     A
C1603  C1624   1.400   .     A
C1603  C1612   1.448   .     S
C1604  C1622   1.401   .     A
C1605  H1648   1.078   .     S
C1605  N1654   1.362   .     A
C1606  H1649   1.080   .     S
C1606  N1653   1.363   .     A
C1606  C456    1.428   1_556 S
C1607  O1664   1.398   .     S
C1607  N1653   1.375   .     A
C1607  C453    1.438   1_556 S
C1608  O1656   1.389   .     S
C1608  N1654   1.372   .     A
C1609  H1629   1.111   .     S
C1609  H1628   1.108   .     S
C1609  C1674   1.533   .     S
C1609  C1684   1.540   .     S
C1610  H1652   1.111   .     S
C1610  H1651   1.109   .     S
C1610  H1650   1.107   .     S
C1611  H1633   1.111   .     S
C1611  H1634   1.106   .     S
C1612  O1657   1.292   .     A
C1612  O1659   1.291   .     A
C1613  H1630   1.111   .     S
C1613  H1632   1.111   .     S
C1613  H1631   1.108   .     S
C1613  C1675   1.532   .     S
C1614  O1664   1.413   .     S
C1614  H1636   1.113   .     S
C1614  C1615   1.520   .     S
C1614  H1635   1.114   .     S
C1615  H1640   1.109   .     S
C1615  H1637   1.111   .     S
C1616  O1656   1.417   .     S
C1616  C1617   1.524   .     S
C1616  H1642   1.115   .     S
C1616  H1641   1.110   .     S
C1617  H1644   1.110   .     S
C1617  H1645   1.111   .     S
C1618  O1660   1.280   .     A
C1618  C1620   1.435   .     S
C1618  O1662   1.290   .     A
C1619  O1661   1.280   .     A
C1619  C1621   1.436   .     S
C1619  O1663   1.291   .     A
C1621  C1675   1.538   .     S
C1621  C1684   1.365   .     S
C1622  H1627   1.083   .     S
C1623  H1638   1.083   .     S
C1623  C1218   1.383   1_565 S
C1624  H1646   1.083   .     S
C1624  C1238   1.383   1_565 S
Cu1625 O1660   1.973   .     S
Cu1625 N1653   2.013   .     S
Cu1625 O1663   1.966   .     S
Cu1625 O1659   1.961   .     S
Cu1625 Cu1626  2.679   .     S
Cu1625 O1655   1.962   .     S
Cu1626 O1662   1.966   .     S
Cu1626 O1658   1.961   .     S
Cu1626 N1654   2.013   .     S
Cu1626 O1661   1.973   .     S
Cu1626 O1657   1.962   .     S
H1639  C1679   1.110   .     S
H1643  C465    1.109   1_556 S
C1665  C1668   1.447   .     S
C1665  O1722   1.291   .     A
C1665  O1719   1.291   .     A
C1666  C1668   1.400   .     A
C1666  H1711   1.083   .     S
C1667  C1687   1.401   .     A
C1667  C1688   1.400   .     A
C1667  C1676   1.448   .     S
C1668  C1686   1.401   .     A
C1669  H1712   1.078   .     S
C1669  N1718   1.362   .     A
C1670  H1713   1.080   .     S
C1670  N1717   1.363   .     A
C1670  C520    1.428   1_556 S
C1671  O1728   1.398   .     S
C1671  N1717   1.375   .     A
C1671  C517    1.438   1_556 S
C1672  O1720   1.389   .     S
C1672  N1718   1.372   .     A
C1673  H1693   1.111   .     S
C1673  H1692   1.108   .     S
C1673  C1546   1.533   1_655 S
C1673  C1556   1.540   1_655 S
C1674  H1716   1.111   .     S
C1674  H1715   1.109   .     S
C1674  H1714   1.107   .     S
C1675  H1697   1.111   .     S
C1675  H1698   1.106   .     S
C1676  O1721   1.292   .     A
C1676  O1723   1.291   .     A
C1677  H1694   1.111   .     S
C1677  H1696   1.111   .     S
C1677  H1695   1.108   .     S
C1677  C1547   1.532   1_655 S
C1678  O1728   1.413   .     S
C1678  H1700   1.113   .     S
C1678  C1679   1.520   .     S
C1678  H1699   1.114   .     S
C1679  H1704   1.109   .     S
C1679  H1701   1.111   .     S
C1680  O1720   1.417   .     S
C1680  C1681   1.524   .     S
C1680  H1706   1.115   .     S
C1680  H1705   1.110   .     S
C1681  H1708   1.110   .     S
C1681  H1709   1.111   .     S
C1682  O1724   1.280   .     A
C1682  C1684   1.435   .     S
C1682  O1726   1.290   .     A
C1683  O1725   1.280   .     A
C1683  C1685   1.436   .     S
C1683  O1727   1.291   .     A
C1685  C1547   1.538   1_655 S
C1685  C1556   1.365   1_655 S
C1686  H1691   1.083   .     S
C1687  H1702   1.083   .     S
C1687  C1282   1.383   1_565 S
C1688  H1710   1.083   .     S
C1688  C1302   1.383   1_565 S
Cu1689 O1724   1.973   .     S
Cu1689 N1717   2.013   .     S
Cu1689 O1727   1.966   .     S
Cu1689 O1723   1.961   .     S
Cu1689 Cu1690  2.679   .     S
Cu1689 O1719   1.962   .     S
Cu1690 O1726   1.966   .     S
Cu1690 O1722   1.961   .     S
Cu1690 N1718   2.013   .     S
Cu1690 O1725   1.973   .     S
Cu1690 O1721   1.962   .     S
H1703  C1551   1.110   1_655 S
H1707  C529    1.109   1_556 S
