data_str_m2_o10_o16_pcu_sym.57
_audit_creation_date              2020-01-03
_audit_creation_method            'Materials Studio'
_symmetry_space_group_name_H-M    'P1'
_symmetry_Int_Tables_number       1
_symmetry_cell_setting            triclinic
loop_
_symmetry_equiv_pos_as_xyz
  x,y,z
_cell_length_a                    22.4227
_cell_length_b                    26.0857
_cell_length_c                    26.7645
_cell_angle_alpha                 94.4808
_cell_angle_beta                  77.3088
_cell_angle_gamma                 103.4447
loop_
_atom_site_label
_atom_site_type_symbol
_atom_site_fract_x
_atom_site_fract_y
_atom_site_fract_z
_atom_site_U_iso_or_equiv
_atom_site_adp_type
_atom_site_occupancy
O1     O     0.12797   0.23807   0.24633   0.00000  Uiso   1.00
O2     O     0.22858   0.24755   0.25587   0.00000  Uiso   1.00
C3     C     0.18180   0.26672   0.25160   0.00000  Uiso   1.00
O4     O     0.09181   0.15960   0.31840   0.00000  Uiso   1.00
O5     O     0.19242   0.16908   0.32793   0.00000  Uiso   1.00
C6     C     0.13313   0.16531   0.34724   0.00000  Uiso   1.00
Cu7    Cu    0.10710   0.16105   0.24436   0.00000  Uiso   1.00
Cu8    Cu    0.22623   0.17228   0.25565   0.00000  Uiso   1.00
O9     O     0.10476   0.08578   0.24414   0.00000  Uiso   1.00
O10    O     0.20536   0.09526   0.25367   0.00000  Uiso   1.00
O11    O     0.14092   0.16425   0.17207   0.00000  Uiso   1.00
O12    O     0.24152   0.17373   0.18161   0.00000  Uiso   1.00
C13    C     0.15151   0.06662   0.24846   0.00000  Uiso   1.00
C14    C     0.20049   0.17043   0.15298   0.00000  Uiso   1.00
C15    C     0.29110   0.22866   0.02732   0.00000  Uiso   1.00
H16    H     0.31416   0.22397   0.10025   0.00000  Uiso   1.00
H17    H     0.29787   0.26433   0.43480   0.00000  Uiso   1.00
C18    C     0.22062   0.17934   0.09787   0.00000  Uiso   1.00
C19    C     0.05262   0.13225   0.42362   0.00000  Uiso   1.00
C20    C     0.03460   0.12196   0.47548   0.00000  Uiso   1.00
C21    C     0.07707   0.13868   0.00741   0.00000  Uiso   1.00
C22    C     0.13853   0.16805   0.48817   0.00000  Uiso   1.00
C23    C     0.15365   0.18443   0.43674   0.00000  Uiso   1.00
C24    C     0.18545   0.18182   0.01820   0.00000  Uiso   1.00
C25    C     0.24418   0.21551   0.49816   0.00000  Uiso   1.00
C26    C     0.25460   0.23662   0.44989   0.00000  Uiso   1.00
C27    C     0.20968   0.22202   0.42001   0.00000  Uiso   1.00
C28    C     0.17594   0.16274   0.06752   0.00000  Uiso   1.00
C29    C     0.27907   0.21092   0.07715   0.00000  Uiso   1.00
C30    C     0.11217   0.16279   0.40342   0.00000  Uiso   1.00
H31    H     0.13325   0.13569   0.08408   0.00000  Uiso   1.00
H32    H     0.02058   0.11455   0.39902   0.00000  Uiso   1.00
H33    H     0.05989   0.12856   0.04704   0.00000  Uiso   1.00
H34    H     0.32143   0.09904   0.49074   0.00000  Uiso   1.00
H35    H     0.21944   0.24088   0.38364   0.00000  Uiso   1.00
C36    C     0.19017   0.32279   0.25247   0.00000  Uiso   1.00
H37    H     0.23535   0.01348   0.25713   0.00000  Uiso   1.00
C38    C     0.14316   0.01055   0.24761   0.00000  Uiso   1.00
H39    H     0.09800   0.31987   0.24288   0.00000  Uiso   1.00
N40    N     0.31574   0.18074   0.26416   0.00000  Uiso   1.00
N41    N     0.01759   0.15259   0.23584   0.00000  Uiso   1.00
H42    H     0.00127   0.13517   0.20413   0.00000  Uiso   1.00
N43    N     0.33046   0.19783   0.31112   0.00000  Uiso   1.00
O44    O     0.01797   0.24795   0.31929   0.00000  Uiso   1.00
O45    O     0.30556   0.16788   0.35031   0.00000  Uiso   1.00
F46    F     0.01441   0.26024   0.00835   0.00000  Uiso   1.00
O47    O     0.46131   0.23807   0.24633   0.00000  Uiso   1.00
O48    O     0.56191   0.24755   0.25587   0.00000  Uiso   1.00
C49    C     0.51514   0.26672   0.25160   0.00000  Uiso   1.00
O50    O     0.42515   0.15960   0.31840   0.00000  Uiso   1.00
O51    O     0.52575   0.16908   0.32793   0.00000  Uiso   1.00
C52    C     0.46646   0.16531   0.34724   0.00000  Uiso   1.00
Cu53   Cu    0.44043   0.16105   0.24436   0.00000  Uiso   1.00
Cu54   Cu    0.55957   0.17228   0.25565   0.00000  Uiso   1.00
O55    O     0.43809   0.08578   0.24414   0.00000  Uiso   1.00
O56    O     0.53869   0.09526   0.25367   0.00000  Uiso   1.00
O57    O     0.47425   0.16425   0.17207   0.00000  Uiso   1.00
O58    O     0.57485   0.17373   0.18161   0.00000  Uiso   1.00
C59    C     0.48484   0.06662   0.24846   0.00000  Uiso   1.00
C60    C     0.53382   0.17043   0.15298   0.00000  Uiso   1.00
C61    C     0.62444   0.22866   0.02732   0.00000  Uiso   1.00
H62    H     0.64749   0.22397   0.10025   0.00000  Uiso   1.00
H63    H     0.63120   0.26433   0.43480   0.00000  Uiso   1.00
C64    C     0.55396   0.17934   0.09787   0.00000  Uiso   1.00
C65    C     0.38596   0.13225   0.42362   0.00000  Uiso   1.00
C66    C     0.36793   0.12196   0.47548   0.00000  Uiso   1.00
C67    C     0.41040   0.13868   0.00741   0.00000  Uiso   1.00
C68    C     0.47186   0.16805   0.48817   0.00000  Uiso   1.00
C69    C     0.48698   0.18443   0.43674   0.00000  Uiso   1.00
C70    C     0.51878   0.18182   0.01820   0.00000  Uiso   1.00
C71    C     0.57751   0.21551   0.49816   0.00000  Uiso   1.00
C72    C     0.58794   0.23662   0.44989   0.00000  Uiso   1.00
C73    C     0.54302   0.22202   0.42001   0.00000  Uiso   1.00
C74    C     0.50927   0.16274   0.06752   0.00000  Uiso   1.00
C75    C     0.61241   0.21092   0.07715   0.00000  Uiso   1.00
C76    C     0.44550   0.16279   0.40342   0.00000  Uiso   1.00
H77    H     0.46659   0.13569   0.08408   0.00000  Uiso   1.00
H78    H     0.35391   0.11455   0.39902   0.00000  Uiso   1.00
H79    H     0.39323   0.12856   0.04704   0.00000  Uiso   1.00
H80    H     0.65476   0.09904   0.49074   0.00000  Uiso   1.00
H81    H     0.55277   0.24088   0.38364   0.00000  Uiso   1.00
C82    C     0.52350   0.32279   0.25247   0.00000  Uiso   1.00
H83    H     0.56868   0.01348   0.25713   0.00000  Uiso   1.00
C84    C     0.47649   0.01055   0.24761   0.00000  Uiso   1.00
H85    H     0.43134   0.31987   0.24288   0.00000  Uiso   1.00
N86    N     0.64908   0.18074   0.26416   0.00000  Uiso   1.00
N87    N     0.35092   0.15259   0.23584   0.00000  Uiso   1.00
H88    H     0.33460   0.13517   0.20413   0.00000  Uiso   1.00
N89    N     0.66379   0.19783   0.31112   0.00000  Uiso   1.00
O90    O     0.35130   0.24795   0.31929   0.00000  Uiso   1.00
O91    O     0.63889   0.16788   0.35031   0.00000  Uiso   1.00
F92    F     0.34775   0.26024   0.00835   0.00000  Uiso   1.00
O93    O     0.79464   0.23807   0.24633   0.00000  Uiso   1.00
O94    O     0.89524   0.24755   0.25587   0.00000  Uiso   1.00
C95    C     0.84847   0.26672   0.25160   0.00000  Uiso   1.00
O96    O     0.75848   0.15960   0.31840   0.00000  Uiso   1.00
O97    O     0.85908   0.16908   0.32793   0.00000  Uiso   1.00
C98    C     0.79980   0.16531   0.34724   0.00000  Uiso   1.00
Cu99   Cu    0.77377   0.16105   0.24436   0.00000  Uiso   1.00
Cu100  Cu    0.89290   0.17228   0.25565   0.00000  Uiso   1.00
O101   O     0.77142   0.08578   0.24414   0.00000  Uiso   1.00
O102   O     0.87203   0.09526   0.25367   0.00000  Uiso   1.00
O103   O     0.80758   0.16425   0.17207   0.00000  Uiso   1.00
O104   O     0.90819   0.17373   0.18161   0.00000  Uiso   1.00
C105   C     0.81818   0.06662   0.24846   0.00000  Uiso   1.00
C106   C     0.86716   0.17043   0.15298   0.00000  Uiso   1.00
C107   C     0.95777   0.22866   0.02732   0.00000  Uiso   1.00
H108   H     0.98082   0.22397   0.10025   0.00000  Uiso   1.00
H109   H     0.96454   0.26433   0.43480   0.00000  Uiso   1.00
C110   C     0.88729   0.17934   0.09787   0.00000  Uiso   1.00
C111   C     0.71929   0.13225   0.42362   0.00000  Uiso   1.00
C112   C     0.70127   0.12196   0.47548   0.00000  Uiso   1.00
C113   C     0.74374   0.13868   0.00741   0.00000  Uiso   1.00
C114   C     0.80520   0.16805   0.48817   0.00000  Uiso   1.00
C115   C     0.82031   0.18443   0.43674   0.00000  Uiso   1.00
C116   C     0.85211   0.18182   0.01820   0.00000  Uiso   1.00
C117   C     0.91085   0.21551   0.49816   0.00000  Uiso   1.00
C118   C     0.92127   0.23662   0.44989   0.00000  Uiso   1.00
C119   C     0.87635   0.22202   0.42001   0.00000  Uiso   1.00
C120   C     0.84260   0.16274   0.06752   0.00000  Uiso   1.00
C121   C     0.94574   0.21092   0.07715   0.00000  Uiso   1.00
C122   C     0.77884   0.16279   0.40342   0.00000  Uiso   1.00
H123   H     0.79992   0.13569   0.08408   0.00000  Uiso   1.00
H124   H     0.68724   0.11455   0.39902   0.00000  Uiso   1.00
H125   H     0.72656   0.12856   0.04704   0.00000  Uiso   1.00
H126   H     0.98809   0.09904   0.49074   0.00000  Uiso   1.00
H127   H     0.88610   0.24088   0.38364   0.00000  Uiso   1.00
C128   C     0.85683   0.32279   0.25247   0.00000  Uiso   1.00
H129   H     0.90201   0.01348   0.25713   0.00000  Uiso   1.00
C130   C     0.80982   0.01055   0.24761   0.00000  Uiso   1.00
H131   H     0.76467   0.31987   0.24288   0.00000  Uiso   1.00
N132   N     0.98241   0.18074   0.26416   0.00000  Uiso   1.00
N133   N     0.68426   0.15259   0.23584   0.00000  Uiso   1.00
H134   H     0.66794   0.13517   0.20413   0.00000  Uiso   1.00
N135   N     0.99712   0.19783   0.31112   0.00000  Uiso   1.00
O136   O     0.68464   0.24795   0.31929   0.00000  Uiso   1.00
O137   O     0.97223   0.16788   0.35031   0.00000  Uiso   1.00
F138   F     0.68108   0.26024   0.00835   0.00000  Uiso   1.00
O139   O     0.12797   0.57141   0.24633   0.00000  Uiso   1.00
O140   O     0.22858   0.58089   0.25587   0.00000  Uiso   1.00
C141   C     0.18180   0.60005   0.25160   0.00000  Uiso   1.00
O142   O     0.09181   0.49293   0.31840   0.00000  Uiso   1.00
O143   O     0.19242   0.50241   0.32793   0.00000  Uiso   1.00
C144   C     0.13313   0.49864   0.34724   0.00000  Uiso   1.00
Cu145  Cu    0.10710   0.49439   0.24436   0.00000  Uiso   1.00
Cu146  Cu    0.22623   0.50561   0.25565   0.00000  Uiso   1.00
O147   O     0.10476   0.41911   0.24414   0.00000  Uiso   1.00
O148   O     0.20536   0.42859   0.25367   0.00000  Uiso   1.00
O149   O     0.14092   0.49759   0.17207   0.00000  Uiso   1.00
O150   O     0.24152   0.50707   0.18161   0.00000  Uiso   1.00
C151   C     0.15151   0.39995   0.24846   0.00000  Uiso   1.00
C152   C     0.20049   0.50376   0.15298   0.00000  Uiso   1.00
C153   C     0.29110   0.56199   0.02732   0.00000  Uiso   1.00
H154   H     0.31416   0.55730   0.10025   0.00000  Uiso   1.00
H155   H     0.29787   0.59766   0.43480   0.00000  Uiso   1.00
C156   C     0.22062   0.51267   0.09787   0.00000  Uiso   1.00
C157   C     0.05262   0.46558   0.42362   0.00000  Uiso   1.00
C158   C     0.03460   0.45529   0.47548   0.00000  Uiso   1.00
C159   C     0.07707   0.47201   0.00741   0.00000  Uiso   1.00
C160   C     0.13853   0.50139   0.48817   0.00000  Uiso   1.00
C161   C     0.15365   0.51776   0.43674   0.00000  Uiso   1.00
C162   C     0.18545   0.51515   0.01820   0.00000  Uiso   1.00
C163   C     0.24418   0.54885   0.49816   0.00000  Uiso   1.00
C164   C     0.25460   0.56995   0.44989   0.00000  Uiso   1.00
C165   C     0.20968   0.55535   0.42001   0.00000  Uiso   1.00
C166   C     0.17594   0.49608   0.06752   0.00000  Uiso   1.00
C167   C     0.27907   0.54425   0.07715   0.00000  Uiso   1.00
C168   C     0.11217   0.49613   0.40342   0.00000  Uiso   1.00
H169   H     0.13325   0.46902   0.08408   0.00000  Uiso   1.00
H170   H     0.02058   0.44788   0.39902   0.00000  Uiso   1.00
H171   H     0.05989   0.46190   0.04704   0.00000  Uiso   1.00
H172   H     0.32143   0.43238   0.49074   0.00000  Uiso   1.00
H173   H     0.21944   0.57421   0.38364   0.00000  Uiso   1.00
C174   C     0.19017   0.65612   0.25247   0.00000  Uiso   1.00
H175   H     0.23535   0.34681   0.25713   0.00000  Uiso   1.00
C176   C     0.14316   0.34388   0.24761   0.00000  Uiso   1.00
H177   H     0.09800   0.65321   0.24288   0.00000  Uiso   1.00
N178   N     0.31574   0.51407   0.26416   0.00000  Uiso   1.00
N179   N     0.01759   0.48593   0.23584   0.00000  Uiso   1.00
H180   H     0.00127   0.46851   0.20413   0.00000  Uiso   1.00
N181   N     0.33046   0.53117   0.31112   0.00000  Uiso   1.00
O182   O     0.01797   0.58128   0.31929   0.00000  Uiso   1.00
O183   O     0.30556   0.50121   0.35031   0.00000  Uiso   1.00
F184   F     0.01441   0.59357   0.00835   0.00000  Uiso   1.00
O185   O     0.46131   0.57141   0.24633   0.00000  Uiso   1.00
O186   O     0.56191   0.58089   0.25587   0.00000  Uiso   1.00
C187   C     0.51514   0.60005   0.25160   0.00000  Uiso   1.00
O188   O     0.42515   0.49293   0.31840   0.00000  Uiso   1.00
O189   O     0.52575   0.50241   0.32793   0.00000  Uiso   1.00
C190   C     0.46646   0.49864   0.34724   0.00000  Uiso   1.00
Cu191  Cu    0.44043   0.49439   0.24436   0.00000  Uiso   1.00
Cu192  Cu    0.55957   0.50561   0.25565   0.00000  Uiso   1.00
O193   O     0.43809   0.41911   0.24414   0.00000  Uiso   1.00
O194   O     0.53869   0.42859   0.25367   0.00000  Uiso   1.00
O195   O     0.47425   0.49759   0.17207   0.00000  Uiso   1.00
O196   O     0.57485   0.50707   0.18161   0.00000  Uiso   1.00
C197   C     0.48484   0.39995   0.24846   0.00000  Uiso   1.00
C198   C     0.53382   0.50376   0.15298   0.00000  Uiso   1.00
C199   C     0.62444   0.56199   0.02732   0.00000  Uiso   1.00
H200   H     0.64749   0.55730   0.10025   0.00000  Uiso   1.00
H201   H     0.63120   0.59766   0.43480   0.00000  Uiso   1.00
C202   C     0.55396   0.51267   0.09787   0.00000  Uiso   1.00
C203   C     0.38596   0.46558   0.42362   0.00000  Uiso   1.00
C204   C     0.36793   0.45529   0.47548   0.00000  Uiso   1.00
C205   C     0.41040   0.47201   0.00741   0.00000  Uiso   1.00
C206   C     0.47186   0.50139   0.48817   0.00000  Uiso   1.00
C207   C     0.48698   0.51776   0.43674   0.00000  Uiso   1.00
C208   C     0.51878   0.51515   0.01820   0.00000  Uiso   1.00
C209   C     0.57751   0.54885   0.49816   0.00000  Uiso   1.00
C210   C     0.58794   0.56995   0.44989   0.00000  Uiso   1.00
C211   C     0.54302   0.55535   0.42001   0.00000  Uiso   1.00
C212   C     0.50927   0.49608   0.06752   0.00000  Uiso   1.00
C213   C     0.61241   0.54425   0.07715   0.00000  Uiso   1.00
C214   C     0.44550   0.49613   0.40342   0.00000  Uiso   1.00
H215   H     0.46659   0.46902   0.08408   0.00000  Uiso   1.00
H216   H     0.35391   0.44788   0.39902   0.00000  Uiso   1.00
H217   H     0.39323   0.46190   0.04704   0.00000  Uiso   1.00
H218   H     0.65476   0.43238   0.49074   0.00000  Uiso   1.00
H219   H     0.55277   0.57421   0.38364   0.00000  Uiso   1.00
C220   C     0.52350   0.65612   0.25247   0.00000  Uiso   1.00
H221   H     0.56868   0.34681   0.25713   0.00000  Uiso   1.00
C222   C     0.47649   0.34388   0.24761   0.00000  Uiso   1.00
H223   H     0.43134   0.65321   0.24288   0.00000  Uiso   1.00
N224   N     0.64908   0.51407   0.26416   0.00000  Uiso   1.00
N225   N     0.35092   0.48593   0.23584   0.00000  Uiso   1.00
H226   H     0.33460   0.46851   0.20413   0.00000  Uiso   1.00
N227   N     0.66379   0.53117   0.31112   0.00000  Uiso   1.00
O228   O     0.35130   0.58128   0.31929   0.00000  Uiso   1.00
O229   O     0.63889   0.50121   0.35031   0.00000  Uiso   1.00
F230   F     0.34775   0.59357   0.00835   0.00000  Uiso   1.00
O231   O     0.79464   0.57141   0.24633   0.00000  Uiso   1.00
O232   O     0.89524   0.58089   0.25587   0.00000  Uiso   1.00
C233   C     0.84847   0.60005   0.25160   0.00000  Uiso   1.00
O234   O     0.75848   0.49293   0.31840   0.00000  Uiso   1.00
O235   O     0.85908   0.50241   0.32793   0.00000  Uiso   1.00
C236   C     0.79980   0.49864   0.34724   0.00000  Uiso   1.00
Cu237  Cu    0.77377   0.49439   0.24436   0.00000  Uiso   1.00
Cu238  Cu    0.89290   0.50561   0.25565   0.00000  Uiso   1.00
O239   O     0.77142   0.41911   0.24414   0.00000  Uiso   1.00
O240   O     0.87203   0.42859   0.25367   0.00000  Uiso   1.00
O241   O     0.80758   0.49759   0.17207   0.00000  Uiso   1.00
O242   O     0.90819   0.50707   0.18161   0.00000  Uiso   1.00
C243   C     0.81818   0.39995   0.24846   0.00000  Uiso   1.00
C244   C     0.86716   0.50376   0.15298   0.00000  Uiso   1.00
C245   C     0.95777   0.56199   0.02732   0.00000  Uiso   1.00
H246   H     0.98082   0.55730   0.10025   0.00000  Uiso   1.00
H247   H     0.96454   0.59766   0.43480   0.00000  Uiso   1.00
C248   C     0.88729   0.51267   0.09787   0.00000  Uiso   1.00
C249   C     0.71929   0.46558   0.42362   0.00000  Uiso   1.00
C250   C     0.70127   0.45529   0.47548   0.00000  Uiso   1.00
C251   C     0.74374   0.47201   0.00741   0.00000  Uiso   1.00
C252   C     0.80520   0.50139   0.48817   0.00000  Uiso   1.00
C253   C     0.82031   0.51776   0.43674   0.00000  Uiso   1.00
C254   C     0.85211   0.51515   0.01820   0.00000  Uiso   1.00
C255   C     0.91085   0.54885   0.49816   0.00000  Uiso   1.00
C256   C     0.92127   0.56995   0.44989   0.00000  Uiso   1.00
C257   C     0.87635   0.55535   0.42001   0.00000  Uiso   1.00
C258   C     0.84260   0.49608   0.06752   0.00000  Uiso   1.00
C259   C     0.94574   0.54425   0.07715   0.00000  Uiso   1.00
C260   C     0.77884   0.49613   0.40342   0.00000  Uiso   1.00
H261   H     0.79992   0.46902   0.08408   0.00000  Uiso   1.00
H262   H     0.68724   0.44788   0.39902   0.00000  Uiso   1.00
H263   H     0.72656   0.46190   0.04704   0.00000  Uiso   1.00
H264   H     0.98809   0.43238   0.49074   0.00000  Uiso   1.00
H265   H     0.88610   0.57421   0.38364   0.00000  Uiso   1.00
C266   C     0.85683   0.65612   0.25247   0.00000  Uiso   1.00
H267   H     0.90201   0.34681   0.25713   0.00000  Uiso   1.00
C268   C     0.80982   0.34388   0.24761   0.00000  Uiso   1.00
H269   H     0.76467   0.65321   0.24288   0.00000  Uiso   1.00
N270   N     0.98241   0.51407   0.26416   0.00000  Uiso   1.00
N271   N     0.68426   0.48593   0.23584   0.00000  Uiso   1.00
H272   H     0.66794   0.46851   0.20413   0.00000  Uiso   1.00
N273   N     0.99712   0.53117   0.31112   0.00000  Uiso   1.00
O274   O     0.68464   0.58128   0.31929   0.00000  Uiso   1.00
O275   O     0.97223   0.50121   0.35031   0.00000  Uiso   1.00
F276   F     0.68108   0.59357   0.00835   0.00000  Uiso   1.00
O277   O     0.12797   0.90474   0.24633   0.00000  Uiso   1.00
O278   O     0.22858   0.91422   0.25587   0.00000  Uiso   1.00
C279   C     0.18180   0.93339   0.25160   0.00000  Uiso   1.00
O280   O     0.09181   0.82627   0.31840   0.00000  Uiso   1.00
O281   O     0.19242   0.83575   0.32793   0.00000  Uiso   1.00
C282   C     0.13313   0.83198   0.34724   0.00000  Uiso   1.00
Cu283  Cu    0.10710   0.82772   0.24436   0.00000  Uiso   1.00
Cu284  Cu    0.22623   0.83895   0.25565   0.00000  Uiso   1.00
O285   O     0.10476   0.75245   0.24414   0.00000  Uiso   1.00
O286   O     0.20536   0.76193   0.25367   0.00000  Uiso   1.00
O287   O     0.14092   0.83092   0.17207   0.00000  Uiso   1.00
O288   O     0.24152   0.84040   0.18161   0.00000  Uiso   1.00
C289   C     0.15151   0.73328   0.24846   0.00000  Uiso   1.00
C290   C     0.20049   0.83710   0.15298   0.00000  Uiso   1.00
C291   C     0.29110   0.89532   0.02732   0.00000  Uiso   1.00
H292   H     0.31416   0.89063   0.10025   0.00000  Uiso   1.00
H293   H     0.29787   0.93100   0.43480   0.00000  Uiso   1.00
C294   C     0.22062   0.84601   0.09787   0.00000  Uiso   1.00
C295   C     0.05262   0.79892   0.42362   0.00000  Uiso   1.00
C296   C     0.03460   0.78863   0.47548   0.00000  Uiso   1.00
C297   C     0.07707   0.80535   0.00741   0.00000  Uiso   1.00
C298   C     0.13853   0.83472   0.48817   0.00000  Uiso   1.00
C299   C     0.15365   0.85110   0.43674   0.00000  Uiso   1.00
C300   C     0.18545   0.84849   0.01820   0.00000  Uiso   1.00
C301   C     0.24418   0.88218   0.49816   0.00000  Uiso   1.00
C302   C     0.25460   0.90328   0.44989   0.00000  Uiso   1.00
C303   C     0.20968   0.88868   0.42001   0.00000  Uiso   1.00
C304   C     0.17594   0.82941   0.06752   0.00000  Uiso   1.00
C305   C     0.27907   0.87758   0.07715   0.00000  Uiso   1.00
C306   C     0.11217   0.82946   0.40342   0.00000  Uiso   1.00
H307   H     0.13325   0.80235   0.08408   0.00000  Uiso   1.00
H308   H     0.02058   0.78121   0.39902   0.00000  Uiso   1.00
H309   H     0.05989   0.79523   0.04704   0.00000  Uiso   1.00
H310   H     0.32143   0.76571   0.49074   0.00000  Uiso   1.00
H311   H     0.21944   0.90755   0.38364   0.00000  Uiso   1.00
C312   C     0.19017   0.98945   0.25247   0.00000  Uiso   1.00
H313   H     0.23535   0.68014   0.25713   0.00000  Uiso   1.00
C314   C     0.14316   0.67722   0.24761   0.00000  Uiso   1.00
H315   H     0.09800   0.98654   0.24288   0.00000  Uiso   1.00
N316   N     0.31574   0.84741   0.26416   0.00000  Uiso   1.00
N317   N     0.01759   0.81926   0.23584   0.00000  Uiso   1.00
H318   H     0.00127   0.80184   0.20413   0.00000  Uiso   1.00
N319   N     0.33046   0.86450   0.31112   0.00000  Uiso   1.00
O320   O     0.01797   0.91462   0.31929   0.00000  Uiso   1.00
O321   O     0.30556   0.83455   0.35031   0.00000  Uiso   1.00
F322   F     0.01441   0.92691   0.00835   0.00000  Uiso   1.00
O323   O     0.46131   0.90474   0.24633   0.00000  Uiso   1.00
O324   O     0.56191   0.91422   0.25587   0.00000  Uiso   1.00
C325   C     0.51514   0.93339   0.25160   0.00000  Uiso   1.00
O326   O     0.42515   0.82627   0.31840   0.00000  Uiso   1.00
O327   O     0.52575   0.83575   0.32793   0.00000  Uiso   1.00
C328   C     0.46646   0.83198   0.34724   0.00000  Uiso   1.00
Cu329  Cu    0.44043   0.82772   0.24436   0.00000  Uiso   1.00
Cu330  Cu    0.55957   0.83895   0.25565   0.00000  Uiso   1.00
O331   O     0.43809   0.75245   0.24414   0.00000  Uiso   1.00
O332   O     0.53869   0.76193   0.25367   0.00000  Uiso   1.00
O333   O     0.47425   0.83092   0.17207   0.00000  Uiso   1.00
O334   O     0.57485   0.84040   0.18161   0.00000  Uiso   1.00
C335   C     0.48484   0.73328   0.24846   0.00000  Uiso   1.00
C336   C     0.53382   0.83710   0.15298   0.00000  Uiso   1.00
C337   C     0.62444   0.89532   0.02732   0.00000  Uiso   1.00
H338   H     0.64749   0.89063   0.10025   0.00000  Uiso   1.00
H339   H     0.63120   0.93100   0.43480   0.00000  Uiso   1.00
C340   C     0.55396   0.84601   0.09787   0.00000  Uiso   1.00
C341   C     0.38596   0.79892   0.42362   0.00000  Uiso   1.00
C342   C     0.36793   0.78863   0.47548   0.00000  Uiso   1.00
C343   C     0.41040   0.80535   0.00741   0.00000  Uiso   1.00
C344   C     0.47186   0.83472   0.48817   0.00000  Uiso   1.00
C345   C     0.48698   0.85110   0.43674   0.00000  Uiso   1.00
C346   C     0.51878   0.84849   0.01820   0.00000  Uiso   1.00
C347   C     0.57751   0.88218   0.49816   0.00000  Uiso   1.00
C348   C     0.58794   0.90328   0.44989   0.00000  Uiso   1.00
C349   C     0.54302   0.88868   0.42001   0.00000  Uiso   1.00
C350   C     0.50927   0.82941   0.06752   0.00000  Uiso   1.00
C351   C     0.61241   0.87758   0.07715   0.00000  Uiso   1.00
C352   C     0.44550   0.82946   0.40342   0.00000  Uiso   1.00
H353   H     0.46659   0.80235   0.08408   0.00000  Uiso   1.00
H354   H     0.35391   0.78121   0.39902   0.00000  Uiso   1.00
H355   H     0.39323   0.79523   0.04704   0.00000  Uiso   1.00
H356   H     0.65476   0.76571   0.49074   0.00000  Uiso   1.00
H357   H     0.55277   0.90755   0.38364   0.00000  Uiso   1.00
C358   C     0.52350   0.98945   0.25247   0.00000  Uiso   1.00
H359   H     0.56868   0.68014   0.25713   0.00000  Uiso   1.00
C360   C     0.47649   0.67722   0.24761   0.00000  Uiso   1.00
H361   H     0.43134   0.98654   0.24288   0.00000  Uiso   1.00
N362   N     0.64908   0.84741   0.26416   0.00000  Uiso   1.00
N363   N     0.35092   0.81926   0.23584   0.00000  Uiso   1.00
H364   H     0.33460   0.80184   0.20413   0.00000  Uiso   1.00
N365   N     0.66379   0.86450   0.31112   0.00000  Uiso   1.00
O366   O     0.35130   0.91462   0.31929   0.00000  Uiso   1.00
O367   O     0.63889   0.83455   0.35031   0.00000  Uiso   1.00
F368   F     0.34775   0.92691   0.00835   0.00000  Uiso   1.00
O369   O     0.79464   0.90474   0.24633   0.00000  Uiso   1.00
O370   O     0.89524   0.91422   0.25587   0.00000  Uiso   1.00
C371   C     0.84847   0.93339   0.25160   0.00000  Uiso   1.00
O372   O     0.75848   0.82627   0.31840   0.00000  Uiso   1.00
O373   O     0.85908   0.83575   0.32793   0.00000  Uiso   1.00
C374   C     0.79980   0.83198   0.34724   0.00000  Uiso   1.00
Cu375  Cu    0.77377   0.82772   0.24436   0.00000  Uiso   1.00
Cu376  Cu    0.89290   0.83895   0.25565   0.00000  Uiso   1.00
O377   O     0.77142   0.75245   0.24414   0.00000  Uiso   1.00
O378   O     0.87203   0.76193   0.25367   0.00000  Uiso   1.00
O379   O     0.80758   0.83092   0.17207   0.00000  Uiso   1.00
O380   O     0.90819   0.84040   0.18161   0.00000  Uiso   1.00
C381   C     0.81818   0.73328   0.24846   0.00000  Uiso   1.00
C382   C     0.86716   0.83710   0.15298   0.00000  Uiso   1.00
C383   C     0.95777   0.89532   0.02732   0.00000  Uiso   1.00
H384   H     0.98082   0.89063   0.10025   0.00000  Uiso   1.00
H385   H     0.96454   0.93100   0.43480   0.00000  Uiso   1.00
C386   C     0.88729   0.84601   0.09787   0.00000  Uiso   1.00
C387   C     0.71929   0.79892   0.42362   0.00000  Uiso   1.00
C388   C     0.70127   0.78863   0.47548   0.00000  Uiso   1.00
C389   C     0.74374   0.80535   0.00741   0.00000  Uiso   1.00
C390   C     0.80520   0.83472   0.48817   0.00000  Uiso   1.00
C391   C     0.82031   0.85110   0.43674   0.00000  Uiso   1.00
C392   C     0.85211   0.84849   0.01820   0.00000  Uiso   1.00
C393   C     0.91085   0.88218   0.49816   0.00000  Uiso   1.00
C394   C     0.92127   0.90328   0.44989   0.00000  Uiso   1.00
C395   C     0.87635   0.88868   0.42001   0.00000  Uiso   1.00
C396   C     0.84260   0.82941   0.06752   0.00000  Uiso   1.00
C397   C     0.94574   0.87758   0.07715   0.00000  Uiso   1.00
C398   C     0.77884   0.82946   0.40342   0.00000  Uiso   1.00
H399   H     0.79992   0.80235   0.08408   0.00000  Uiso   1.00
H400   H     0.68724   0.78121   0.39902   0.00000  Uiso   1.00
H401   H     0.72656   0.79523   0.04704   0.00000  Uiso   1.00
H402   H     0.98809   0.76571   0.49074   0.00000  Uiso   1.00
H403   H     0.88610   0.90755   0.38364   0.00000  Uiso   1.00
C404   C     0.85683   0.98945   0.25247   0.00000  Uiso   1.00
H405   H     0.90201   0.68014   0.25713   0.00000  Uiso   1.00
C406   C     0.80982   0.67722   0.24761   0.00000  Uiso   1.00
H407   H     0.76467   0.98654   0.24288   0.00000  Uiso   1.00
N408   N     0.98241   0.84741   0.26416   0.00000  Uiso   1.00
N409   N     0.68426   0.81926   0.23584   0.00000  Uiso   1.00
H410   H     0.66794   0.80184   0.20413   0.00000  Uiso   1.00
N411   N     0.99712   0.86450   0.31112   0.00000  Uiso   1.00
O412   O     0.68464   0.91462   0.31929   0.00000  Uiso   1.00
O413   O     0.97223   0.83455   0.35031   0.00000  Uiso   1.00
F414   F     0.68108   0.92691   0.00835   0.00000  Uiso   1.00
O415   O     0.12797   0.23807   0.74633   0.00000  Uiso   1.00
O416   O     0.22858   0.24755   0.75587   0.00000  Uiso   1.00
C417   C     0.18180   0.26672   0.75160   0.00000  Uiso   1.00
O418   O     0.09181   0.15960   0.81840   0.00000  Uiso   1.00
O419   O     0.19242   0.16908   0.82793   0.00000  Uiso   1.00
C420   C     0.13313   0.16531   0.84724   0.00000  Uiso   1.00
Cu421  Cu    0.10710   0.16105   0.74436   0.00000  Uiso   1.00
Cu422  Cu    0.22623   0.17228   0.75565   0.00000  Uiso   1.00
O423   O     0.10476   0.08578   0.74414   0.00000  Uiso   1.00
O424   O     0.20536   0.09526   0.75367   0.00000  Uiso   1.00
O425   O     0.14092   0.16425   0.67207   0.00000  Uiso   1.00
O426   O     0.24152   0.17373   0.68161   0.00000  Uiso   1.00
C427   C     0.15151   0.06662   0.74846   0.00000  Uiso   1.00
C428   C     0.20049   0.17043   0.65298   0.00000  Uiso   1.00
C429   C     0.29110   0.22866   0.52732   0.00000  Uiso   1.00
H430   H     0.31416   0.22397   0.60025   0.00000  Uiso   1.00
H431   H     0.29787   0.26433   0.93480   0.00000  Uiso   1.00
C432   C     0.22062   0.17934   0.59787   0.00000  Uiso   1.00
C433   C     0.05262   0.13225   0.92362   0.00000  Uiso   1.00
C434   C     0.03460   0.12196   0.97548   0.00000  Uiso   1.00
C435   C     0.07707   0.13868   0.50741   0.00000  Uiso   1.00
C436   C     0.13853   0.16805   0.98817   0.00000  Uiso   1.00
C437   C     0.15365   0.18443   0.93674   0.00000  Uiso   1.00
C438   C     0.18545   0.18182   0.51820   0.00000  Uiso   1.00
C439   C     0.24418   0.21551   0.99816   0.00000  Uiso   1.00
C440   C     0.25460   0.23662   0.94989   0.00000  Uiso   1.00
C441   C     0.20968   0.22202   0.92001   0.00000  Uiso   1.00
C442   C     0.17594   0.16274   0.56752   0.00000  Uiso   1.00
C443   C     0.27907   0.21092   0.57715   0.00000  Uiso   1.00
C444   C     0.11217   0.16279   0.90342   0.00000  Uiso   1.00
H445   H     0.13325   0.13569   0.58408   0.00000  Uiso   1.00
H446   H     0.02058   0.11455   0.89902   0.00000  Uiso   1.00
H447   H     0.05989   0.12856   0.54704   0.00000  Uiso   1.00
H448   H     0.32143   0.09904   0.99074   0.00000  Uiso   1.00
H449   H     0.21944   0.24088   0.88364   0.00000  Uiso   1.00
C450   C     0.19017   0.32279   0.75247   0.00000  Uiso   1.00
H451   H     0.23535   0.01348   0.75713   0.00000  Uiso   1.00
C452   C     0.14316   0.01055   0.74761   0.00000  Uiso   1.00
H453   H     0.09800   0.31987   0.74288   0.00000  Uiso   1.00
N454   N     0.31574   0.18074   0.76416   0.00000  Uiso   1.00
N455   N     0.01759   0.15259   0.73584   0.00000  Uiso   1.00
H456   H     0.00127   0.13517   0.70413   0.00000  Uiso   1.00
N457   N     0.33046   0.19783   0.81112   0.00000  Uiso   1.00
O458   O     0.01797   0.24795   0.81929   0.00000  Uiso   1.00
O459   O     0.30556   0.16788   0.85031   0.00000  Uiso   1.00
F460   F     0.01441   0.26024   0.50835   0.00000  Uiso   1.00
O461   O     0.46131   0.23807   0.74633   0.00000  Uiso   1.00
O462   O     0.56191   0.24755   0.75587   0.00000  Uiso   1.00
C463   C     0.51514   0.26672   0.75160   0.00000  Uiso   1.00
O464   O     0.42515   0.15960   0.81840   0.00000  Uiso   1.00
O465   O     0.52575   0.16908   0.82793   0.00000  Uiso   1.00
C466   C     0.46646   0.16531   0.84724   0.00000  Uiso   1.00
Cu467  Cu    0.44043   0.16105   0.74436   0.00000  Uiso   1.00
Cu468  Cu    0.55957   0.17228   0.75565   0.00000  Uiso   1.00
O469   O     0.43809   0.08578   0.74414   0.00000  Uiso   1.00
O470   O     0.53869   0.09526   0.75367   0.00000  Uiso   1.00
O471   O     0.47425   0.16425   0.67207   0.00000  Uiso   1.00
O472   O     0.57485   0.17373   0.68161   0.00000  Uiso   1.00
C473   C     0.48484   0.06662   0.74846   0.00000  Uiso   1.00
C474   C     0.53382   0.17043   0.65298   0.00000  Uiso   1.00
C475   C     0.62444   0.22866   0.52732   0.00000  Uiso   1.00
H476   H     0.64749   0.22397   0.60025   0.00000  Uiso   1.00
H477   H     0.63120   0.26433   0.93480   0.00000  Uiso   1.00
C478   C     0.55396   0.17934   0.59787   0.00000  Uiso   1.00
C479   C     0.38596   0.13225   0.92362   0.00000  Uiso   1.00
C480   C     0.36793   0.12196   0.97548   0.00000  Uiso   1.00
C481   C     0.41040   0.13868   0.50741   0.00000  Uiso   1.00
C482   C     0.47186   0.16805   0.98817   0.00000  Uiso   1.00
C483   C     0.48698   0.18443   0.93674   0.00000  Uiso   1.00
C484   C     0.51878   0.18182   0.51820   0.00000  Uiso   1.00
C485   C     0.57751   0.21551   0.99816   0.00000  Uiso   1.00
C486   C     0.58794   0.23662   0.94989   0.00000  Uiso   1.00
C487   C     0.54302   0.22202   0.92001   0.00000  Uiso   1.00
C488   C     0.50927   0.16274   0.56752   0.00000  Uiso   1.00
C489   C     0.61241   0.21092   0.57715   0.00000  Uiso   1.00
C490   C     0.44550   0.16279   0.90342   0.00000  Uiso   1.00
H491   H     0.46659   0.13569   0.58408   0.00000  Uiso   1.00
H492   H     0.35391   0.11455   0.89902   0.00000  Uiso   1.00
H493   H     0.39323   0.12856   0.54704   0.00000  Uiso   1.00
H494   H     0.65476   0.09904   0.99074   0.00000  Uiso   1.00
H495   H     0.55277   0.24088   0.88364   0.00000  Uiso   1.00
C496   C     0.52350   0.32279   0.75247   0.00000  Uiso   1.00
H497   H     0.56868   0.01348   0.75713   0.00000  Uiso   1.00
C498   C     0.47649   0.01055   0.74761   0.00000  Uiso   1.00
H499   H     0.43134   0.31987   0.74288   0.00000  Uiso   1.00
N500   N     0.64908   0.18074   0.76416   0.00000  Uiso   1.00
N501   N     0.35092   0.15259   0.73584   0.00000  Uiso   1.00
H502   H     0.33460   0.13517   0.70413   0.00000  Uiso   1.00
N503   N     0.66379   0.19783   0.81112   0.00000  Uiso   1.00
O504   O     0.35130   0.24795   0.81929   0.00000  Uiso   1.00
O505   O     0.63889   0.16788   0.85031   0.00000  Uiso   1.00
F506   F     0.34775   0.26024   0.50835   0.00000  Uiso   1.00
O507   O     0.79464   0.23807   0.74633   0.00000  Uiso   1.00
O508   O     0.89524   0.24755   0.75587   0.00000  Uiso   1.00
C509   C     0.84847   0.26672   0.75160   0.00000  Uiso   1.00
O510   O     0.75848   0.15960   0.81840   0.00000  Uiso   1.00
O511   O     0.85908   0.16908   0.82793   0.00000  Uiso   1.00
C512   C     0.79980   0.16531   0.84724   0.00000  Uiso   1.00
Cu513  Cu    0.77377   0.16105   0.74436   0.00000  Uiso   1.00
Cu514  Cu    0.89290   0.17228   0.75565   0.00000  Uiso   1.00
O515   O     0.77142   0.08578   0.74414   0.00000  Uiso   1.00
O516   O     0.87203   0.09526   0.75367   0.00000  Uiso   1.00
O517   O     0.80758   0.16425   0.67207   0.00000  Uiso   1.00
O518   O     0.90819   0.17373   0.68161   0.00000  Uiso   1.00
C519   C     0.81818   0.06662   0.74846   0.00000  Uiso   1.00
C520   C     0.86716   0.17043   0.65298   0.00000  Uiso   1.00
C521   C     0.95777   0.22866   0.52732   0.00000  Uiso   1.00
H522   H     0.98082   0.22397   0.60025   0.00000  Uiso   1.00
H523   H     0.96454   0.26433   0.93480   0.00000  Uiso   1.00
C524   C     0.88729   0.17934   0.59787   0.00000  Uiso   1.00
C525   C     0.71929   0.13225   0.92362   0.00000  Uiso   1.00
C526   C     0.70127   0.12196   0.97548   0.00000  Uiso   1.00
C527   C     0.74374   0.13868   0.50741   0.00000  Uiso   1.00
C528   C     0.80520   0.16805   0.98817   0.00000  Uiso   1.00
C529   C     0.82031   0.18443   0.93674   0.00000  Uiso   1.00
C530   C     0.85211   0.18182   0.51820   0.00000  Uiso   1.00
C531   C     0.91085   0.21551   0.99816   0.00000  Uiso   1.00
C532   C     0.92127   0.23662   0.94989   0.00000  Uiso   1.00
C533   C     0.87635   0.22202   0.92001   0.00000  Uiso   1.00
C534   C     0.84260   0.16274   0.56752   0.00000  Uiso   1.00
C535   C     0.94574   0.21092   0.57715   0.00000  Uiso   1.00
C536   C     0.77884   0.16279   0.90342   0.00000  Uiso   1.00
H537   H     0.79992   0.13569   0.58408   0.00000  Uiso   1.00
H538   H     0.68724   0.11455   0.89902   0.00000  Uiso   1.00
H539   H     0.72656   0.12856   0.54704   0.00000  Uiso   1.00
H540   H     0.98809   0.09904   0.99074   0.00000  Uiso   1.00
H541   H     0.88610   0.24088   0.88364   0.00000  Uiso   1.00
C542   C     0.85683   0.32279   0.75247   0.00000  Uiso   1.00
H543   H     0.90201   0.01348   0.75713   0.00000  Uiso   1.00
C544   C     0.80982   0.01055   0.74761   0.00000  Uiso   1.00
H545   H     0.76467   0.31987   0.74288   0.00000  Uiso   1.00
N546   N     0.98241   0.18074   0.76416   0.00000  Uiso   1.00
N547   N     0.68426   0.15259   0.73584   0.00000  Uiso   1.00
H548   H     0.66794   0.13517   0.70413   0.00000  Uiso   1.00
N549   N     0.99712   0.19783   0.81112   0.00000  Uiso   1.00
O550   O     0.68464   0.24795   0.81929   0.00000  Uiso   1.00
O551   O     0.97223   0.16788   0.85031   0.00000  Uiso   1.00
F552   F     0.68108   0.26024   0.50835   0.00000  Uiso   1.00
O553   O     0.12797   0.57141   0.74633   0.00000  Uiso   1.00
O554   O     0.22858   0.58089   0.75587   0.00000  Uiso   1.00
C555   C     0.18180   0.60005   0.75160   0.00000  Uiso   1.00
O556   O     0.09181   0.49293   0.81840   0.00000  Uiso   1.00
O557   O     0.19242   0.50241   0.82793   0.00000  Uiso   1.00
C558   C     0.13313   0.49864   0.84724   0.00000  Uiso   1.00
Cu559  Cu    0.10710   0.49439   0.74436   0.00000  Uiso   1.00
Cu560  Cu    0.22623   0.50561   0.75565   0.00000  Uiso   1.00
O561   O     0.10476   0.41911   0.74414   0.00000  Uiso   1.00
O562   O     0.20536   0.42859   0.75367   0.00000  Uiso   1.00
O563   O     0.14092   0.49759   0.67207   0.00000  Uiso   1.00
O564   O     0.24152   0.50707   0.68161   0.00000  Uiso   1.00
C565   C     0.15151   0.39995   0.74846   0.00000  Uiso   1.00
C566   C     0.20049   0.50376   0.65298   0.00000  Uiso   1.00
C567   C     0.29110   0.56199   0.52732   0.00000  Uiso   1.00
H568   H     0.31416   0.55730   0.60025   0.00000  Uiso   1.00
H569   H     0.29787   0.59766   0.93480   0.00000  Uiso   1.00
C570   C     0.22062   0.51267   0.59787   0.00000  Uiso   1.00
C571   C     0.05262   0.46558   0.92362   0.00000  Uiso   1.00
C572   C     0.03460   0.45529   0.97548   0.00000  Uiso   1.00
C573   C     0.07707   0.47201   0.50741   0.00000  Uiso   1.00
C574   C     0.13853   0.50139   0.98817   0.00000  Uiso   1.00
C575   C     0.15365   0.51776   0.93674   0.00000  Uiso   1.00
C576   C     0.18545   0.51515   0.51820   0.00000  Uiso   1.00
C577   C     0.24418   0.54885   0.99816   0.00000  Uiso   1.00
C578   C     0.25460   0.56995   0.94989   0.00000  Uiso   1.00
C579   C     0.20968   0.55535   0.92001   0.00000  Uiso   1.00
C580   C     0.17594   0.49608   0.56752   0.00000  Uiso   1.00
C581   C     0.27907   0.54425   0.57715   0.00000  Uiso   1.00
C582   C     0.11217   0.49613   0.90342   0.00000  Uiso   1.00
H583   H     0.13325   0.46902   0.58408   0.00000  Uiso   1.00
H584   H     0.02058   0.44788   0.89902   0.00000  Uiso   1.00
H585   H     0.05989   0.46190   0.54704   0.00000  Uiso   1.00
H586   H     0.32143   0.43238   0.99074   0.00000  Uiso   1.00
H587   H     0.21944   0.57421   0.88364   0.00000  Uiso   1.00
C588   C     0.19017   0.65612   0.75247   0.00000  Uiso   1.00
H589   H     0.23535   0.34681   0.75713   0.00000  Uiso   1.00
C590   C     0.14316   0.34388   0.74761   0.00000  Uiso   1.00
H591   H     0.09800   0.65321   0.74288   0.00000  Uiso   1.00
N592   N     0.31574   0.51407   0.76416   0.00000  Uiso   1.00
N593   N     0.01759   0.48593   0.73584   0.00000  Uiso   1.00
H594   H     0.00127   0.46851   0.70413   0.00000  Uiso   1.00
N595   N     0.33046   0.53117   0.81112   0.00000  Uiso   1.00
O596   O     0.01797   0.58128   0.81929   0.00000  Uiso   1.00
O597   O     0.30556   0.50121   0.85031   0.00000  Uiso   1.00
F598   F     0.01441   0.59357   0.50835   0.00000  Uiso   1.00
O599   O     0.46131   0.57141   0.74633   0.00000  Uiso   1.00
O600   O     0.56191   0.58089   0.75587   0.00000  Uiso   1.00
C601   C     0.51514   0.60005   0.75160   0.00000  Uiso   1.00
O602   O     0.42515   0.49293   0.81840   0.00000  Uiso   1.00
O603   O     0.52575   0.50241   0.82793   0.00000  Uiso   1.00
C604   C     0.46646   0.49864   0.84724   0.00000  Uiso   1.00
Cu605  Cu    0.44043   0.49439   0.74436   0.00000  Uiso   1.00
Cu606  Cu    0.55957   0.50561   0.75565   0.00000  Uiso   1.00
O607   O     0.43809   0.41911   0.74414   0.00000  Uiso   1.00
O608   O     0.53869   0.42859   0.75367   0.00000  Uiso   1.00
O609   O     0.47425   0.49759   0.67207   0.00000  Uiso   1.00
O610   O     0.57485   0.50707   0.68161   0.00000  Uiso   1.00
C611   C     0.48484   0.39995   0.74846   0.00000  Uiso   1.00
C612   C     0.53382   0.50376   0.65298   0.00000  Uiso   1.00
C613   C     0.62444   0.56199   0.52732   0.00000  Uiso   1.00
H614   H     0.64749   0.55730   0.60025   0.00000  Uiso   1.00
H615   H     0.63120   0.59766   0.93480   0.00000  Uiso   1.00
C616   C     0.55396   0.51267   0.59787   0.00000  Uiso   1.00
C617   C     0.38596   0.46558   0.92362   0.00000  Uiso   1.00
C618   C     0.36793   0.45529   0.97548   0.00000  Uiso   1.00
C619   C     0.41040   0.47201   0.50741   0.00000  Uiso   1.00
C620   C     0.47186   0.50139   0.98817   0.00000  Uiso   1.00
C621   C     0.48698   0.51776   0.93674   0.00000  Uiso   1.00
C622   C     0.51878   0.51515   0.51820   0.00000  Uiso   1.00
C623   C     0.57751   0.54885   0.99816   0.00000  Uiso   1.00
C624   C     0.58794   0.56995   0.94989   0.00000  Uiso   1.00
C625   C     0.54302   0.55535   0.92001   0.00000  Uiso   1.00
C626   C     0.50927   0.49608   0.56752   0.00000  Uiso   1.00
C627   C     0.61241   0.54425   0.57715   0.00000  Uiso   1.00
C628   C     0.44550   0.49613   0.90342   0.00000  Uiso   1.00
H629   H     0.46659   0.46902   0.58408   0.00000  Uiso   1.00
H630   H     0.35391   0.44788   0.89902   0.00000  Uiso   1.00
H631   H     0.39323   0.46190   0.54704   0.00000  Uiso   1.00
H632   H     0.65476   0.43238   0.99074   0.00000  Uiso   1.00
H633   H     0.55277   0.57421   0.88364   0.00000  Uiso   1.00
C634   C     0.52350   0.65612   0.75247   0.00000  Uiso   1.00
H635   H     0.56868   0.34681   0.75713   0.00000  Uiso   1.00
C636   C     0.47649   0.34388   0.74761   0.00000  Uiso   1.00
H637   H     0.43134   0.65321   0.74288   0.00000  Uiso   1.00
N638   N     0.64908   0.51407   0.76416   0.00000  Uiso   1.00
N639   N     0.35092   0.48593   0.73584   0.00000  Uiso   1.00
H640   H     0.33460   0.46851   0.70413   0.00000  Uiso   1.00
N641   N     0.66379   0.53117   0.81112   0.00000  Uiso   1.00
O642   O     0.35130   0.58128   0.81929   0.00000  Uiso   1.00
O643   O     0.63889   0.50121   0.85031   0.00000  Uiso   1.00
F644   F     0.34775   0.59357   0.50835   0.00000  Uiso   1.00
O645   O     0.79464   0.57141   0.74633   0.00000  Uiso   1.00
O646   O     0.89524   0.58089   0.75587   0.00000  Uiso   1.00
C647   C     0.84847   0.60005   0.75160   0.00000  Uiso   1.00
O648   O     0.75848   0.49293   0.81840   0.00000  Uiso   1.00
O649   O     0.85908   0.50241   0.82793   0.00000  Uiso   1.00
C650   C     0.79980   0.49864   0.84724   0.00000  Uiso   1.00
Cu651  Cu    0.77377   0.49439   0.74436   0.00000  Uiso   1.00
Cu652  Cu    0.89290   0.50561   0.75565   0.00000  Uiso   1.00
O653   O     0.77142   0.41911   0.74414   0.00000  Uiso   1.00
O654   O     0.87203   0.42859   0.75367   0.00000  Uiso   1.00
O655   O     0.80758   0.49759   0.67207   0.00000  Uiso   1.00
O656   O     0.90819   0.50707   0.68161   0.00000  Uiso   1.00
C657   C     0.81818   0.39995   0.74846   0.00000  Uiso   1.00
C658   C     0.86716   0.50376   0.65298   0.00000  Uiso   1.00
C659   C     0.95777   0.56199   0.52732   0.00000  Uiso   1.00
H660   H     0.98082   0.55730   0.60025   0.00000  Uiso   1.00
H661   H     0.96454   0.59766   0.93480   0.00000  Uiso   1.00
C662   C     0.88729   0.51267   0.59787   0.00000  Uiso   1.00
C663   C     0.71929   0.46558   0.92362   0.00000  Uiso   1.00
C664   C     0.70127   0.45529   0.97548   0.00000  Uiso   1.00
C665   C     0.74374   0.47201   0.50741   0.00000  Uiso   1.00
C666   C     0.80520   0.50139   0.98817   0.00000  Uiso   1.00
C667   C     0.82031   0.51776   0.93674   0.00000  Uiso   1.00
C668   C     0.85211   0.51515   0.51820   0.00000  Uiso   1.00
C669   C     0.91085   0.54885   0.99816   0.00000  Uiso   1.00
C670   C     0.92127   0.56995   0.94989   0.00000  Uiso   1.00
C671   C     0.87635   0.55535   0.92001   0.00000  Uiso   1.00
C672   C     0.84260   0.49608   0.56752   0.00000  Uiso   1.00
C673   C     0.94574   0.54425   0.57715   0.00000  Uiso   1.00
C674   C     0.77884   0.49613   0.90342   0.00000  Uiso   1.00
H675   H     0.79992   0.46902   0.58408   0.00000  Uiso   1.00
H676   H     0.68724   0.44788   0.89902   0.00000  Uiso   1.00
H677   H     0.72656   0.46190   0.54704   0.00000  Uiso   1.00
H678   H     0.98809   0.43238   0.99074   0.00000  Uiso   1.00
H679   H     0.88610   0.57421   0.88364   0.00000  Uiso   1.00
C680   C     0.85683   0.65612   0.75247   0.00000  Uiso   1.00
H681   H     0.90201   0.34681   0.75713   0.00000  Uiso   1.00
C682   C     0.80982   0.34388   0.74761   0.00000  Uiso   1.00
H683   H     0.76467   0.65321   0.74288   0.00000  Uiso   1.00
N684   N     0.98241   0.51407   0.76416   0.00000  Uiso   1.00
N685   N     0.68426   0.48593   0.73584   0.00000  Uiso   1.00
H686   H     0.66794   0.46851   0.70413   0.00000  Uiso   1.00
N687   N     0.99712   0.53117   0.81112   0.00000  Uiso   1.00
O688   O     0.68464   0.58128   0.81929   0.00000  Uiso   1.00
O689   O     0.97223   0.50121   0.85031   0.00000  Uiso   1.00
F690   F     0.68108   0.59357   0.50835   0.00000  Uiso   1.00
O691   O     0.12797   0.90474   0.74633   0.00000  Uiso   1.00
O692   O     0.22858   0.91422   0.75587   0.00000  Uiso   1.00
C693   C     0.18180   0.93339   0.75160   0.00000  Uiso   1.00
O694   O     0.09181   0.82627   0.81840   0.00000  Uiso   1.00
O695   O     0.19242   0.83575   0.82793   0.00000  Uiso   1.00
C696   C     0.13313   0.83198   0.84724   0.00000  Uiso   1.00
Cu697  Cu    0.10710   0.82772   0.74436   0.00000  Uiso   1.00
Cu698  Cu    0.22623   0.83895   0.75565   0.00000  Uiso   1.00
O699   O     0.10476   0.75245   0.74414   0.00000  Uiso   1.00
O700   O     0.20536   0.76193   0.75367   0.00000  Uiso   1.00
O701   O     0.14092   0.83092   0.67207   0.00000  Uiso   1.00
O702   O     0.24152   0.84040   0.68161   0.00000  Uiso   1.00
C703   C     0.15151   0.73328   0.74846   0.00000  Uiso   1.00
C704   C     0.20049   0.83710   0.65298   0.00000  Uiso   1.00
C705   C     0.29110   0.89532   0.52732   0.00000  Uiso   1.00
H706   H     0.31416   0.89063   0.60025   0.00000  Uiso   1.00
H707   H     0.29787   0.93100   0.93480   0.00000  Uiso   1.00
C708   C     0.22062   0.84601   0.59787   0.00000  Uiso   1.00
C709   C     0.05262   0.79892   0.92362   0.00000  Uiso   1.00
C710   C     0.03460   0.78863   0.97548   0.00000  Uiso   1.00
C711   C     0.07707   0.80535   0.50741   0.00000  Uiso   1.00
C712   C     0.13853   0.83472   0.98817   0.00000  Uiso   1.00
C713   C     0.15365   0.85110   0.93674   0.00000  Uiso   1.00
C714   C     0.18545   0.84849   0.51820   0.00000  Uiso   1.00
C715   C     0.24418   0.88218   0.99816   0.00000  Uiso   1.00
C716   C     0.25460   0.90328   0.94989   0.00000  Uiso   1.00
C717   C     0.20968   0.88868   0.92001   0.00000  Uiso   1.00
C718   C     0.17594   0.82941   0.56752   0.00000  Uiso   1.00
C719   C     0.27907   0.87758   0.57715   0.00000  Uiso   1.00
C720   C     0.11217   0.82946   0.90342   0.00000  Uiso   1.00
H721   H     0.13325   0.80235   0.58408   0.00000  Uiso   1.00
H722   H     0.02058   0.78121   0.89902   0.00000  Uiso   1.00
H723   H     0.05989   0.79523   0.54704   0.00000  Uiso   1.00
H724   H     0.32143   0.76571   0.99074   0.00000  Uiso   1.00
H725   H     0.21944   0.90755   0.88364   0.00000  Uiso   1.00
C726   C     0.19017   0.98945   0.75247   0.00000  Uiso   1.00
H727   H     0.23535   0.68014   0.75713   0.00000  Uiso   1.00
C728   C     0.14316   0.67722   0.74761   0.00000  Uiso   1.00
H729   H     0.09800   0.98654   0.74288   0.00000  Uiso   1.00
N730   N     0.31574   0.84741   0.76416   0.00000  Uiso   1.00
N731   N     0.01759   0.81926   0.73584   0.00000  Uiso   1.00
H732   H     0.00127   0.80184   0.70413   0.00000  Uiso   1.00
N733   N     0.33046   0.86450   0.81112   0.00000  Uiso   1.00
O734   O     0.01797   0.91462   0.81929   0.00000  Uiso   1.00
O735   O     0.30556   0.83455   0.85031   0.00000  Uiso   1.00
F736   F     0.01441   0.92691   0.50835   0.00000  Uiso   1.00
O737   O     0.46131   0.90474   0.74633   0.00000  Uiso   1.00
O738   O     0.56191   0.91422   0.75587   0.00000  Uiso   1.00
C739   C     0.51514   0.93339   0.75160   0.00000  Uiso   1.00
O740   O     0.42515   0.82627   0.81840   0.00000  Uiso   1.00
O741   O     0.52575   0.83575   0.82793   0.00000  Uiso   1.00
C742   C     0.46646   0.83198   0.84724   0.00000  Uiso   1.00
Cu743  Cu    0.44043   0.82772   0.74436   0.00000  Uiso   1.00
Cu744  Cu    0.55957   0.83895   0.75565   0.00000  Uiso   1.00
O745   O     0.43809   0.75245   0.74414   0.00000  Uiso   1.00
O746   O     0.53869   0.76193   0.75367   0.00000  Uiso   1.00
O747   O     0.47425   0.83092   0.67207   0.00000  Uiso   1.00
O748   O     0.57485   0.84040   0.68161   0.00000  Uiso   1.00
C749   C     0.48484   0.73328   0.74846   0.00000  Uiso   1.00
C750   C     0.53382   0.83710   0.65298   0.00000  Uiso   1.00
C751   C     0.62444   0.89532   0.52732   0.00000  Uiso   1.00
H752   H     0.64749   0.89063   0.60025   0.00000  Uiso   1.00
H753   H     0.63120   0.93100   0.93480   0.00000  Uiso   1.00
C754   C     0.55396   0.84601   0.59787   0.00000  Uiso   1.00
C755   C     0.38596   0.79892   0.92362   0.00000  Uiso   1.00
C756   C     0.36793   0.78863   0.97548   0.00000  Uiso   1.00
C757   C     0.41040   0.80535   0.50741   0.00000  Uiso   1.00
C758   C     0.47186   0.83472   0.98817   0.00000  Uiso   1.00
C759   C     0.48698   0.85110   0.93674   0.00000  Uiso   1.00
C760   C     0.51878   0.84849   0.51820   0.00000  Uiso   1.00
C761   C     0.57751   0.88218   0.99816   0.00000  Uiso   1.00
C762   C     0.58794   0.90328   0.94989   0.00000  Uiso   1.00
C763   C     0.54302   0.88868   0.92001   0.00000  Uiso   1.00
C764   C     0.50927   0.82941   0.56752   0.00000  Uiso   1.00
C765   C     0.61241   0.87758   0.57715   0.00000  Uiso   1.00
C766   C     0.44550   0.82946   0.90342   0.00000  Uiso   1.00
H767   H     0.46659   0.80235   0.58408   0.00000  Uiso   1.00
H768   H     0.35391   0.78121   0.89902   0.00000  Uiso   1.00
H769   H     0.39323   0.79523   0.54704   0.00000  Uiso   1.00
H770   H     0.65476   0.76571   0.99074   0.00000  Uiso   1.00
H771   H     0.55277   0.90755   0.88364   0.00000  Uiso   1.00
C772   C     0.52350   0.98945   0.75247   0.00000  Uiso   1.00
H773   H     0.56868   0.68014   0.75713   0.00000  Uiso   1.00
C774   C     0.47649   0.67722   0.74761   0.00000  Uiso   1.00
H775   H     0.43134   0.98654   0.74288   0.00000  Uiso   1.00
N776   N     0.64908   0.84741   0.76416   0.00000  Uiso   1.00
N777   N     0.35092   0.81926   0.73584   0.00000  Uiso   1.00
H778   H     0.33460   0.80184   0.70413   0.00000  Uiso   1.00
N779   N     0.66379   0.86450   0.81112   0.00000  Uiso   1.00
O780   O     0.35130   0.91462   0.81929   0.00000  Uiso   1.00
O781   O     0.63889   0.83455   0.85031   0.00000  Uiso   1.00
F782   F     0.34775   0.92691   0.50835   0.00000  Uiso   1.00
O783   O     0.79464   0.90474   0.74633   0.00000  Uiso   1.00
O784   O     0.89524   0.91422   0.75587   0.00000  Uiso   1.00
C785   C     0.84847   0.93339   0.75160   0.00000  Uiso   1.00
O786   O     0.75848   0.82627   0.81840   0.00000  Uiso   1.00
O787   O     0.85908   0.83575   0.82793   0.00000  Uiso   1.00
C788   C     0.79980   0.83198   0.84724   0.00000  Uiso   1.00
Cu789  Cu    0.77377   0.82772   0.74436   0.00000  Uiso   1.00
Cu790  Cu    0.89290   0.83895   0.75565   0.00000  Uiso   1.00
O791   O     0.77142   0.75245   0.74414   0.00000  Uiso   1.00
O792   O     0.87203   0.76193   0.75367   0.00000  Uiso   1.00
O793   O     0.80758   0.83092   0.67207   0.00000  Uiso   1.00
O794   O     0.90819   0.84040   0.68161   0.00000  Uiso   1.00
C795   C     0.81818   0.73328   0.74846   0.00000  Uiso   1.00
C796   C     0.86716   0.83710   0.65298   0.00000  Uiso   1.00
C797   C     0.95777   0.89532   0.52732   0.00000  Uiso   1.00
H798   H     0.98082   0.89063   0.60025   0.00000  Uiso   1.00
H799   H     0.96454   0.93100   0.93480   0.00000  Uiso   1.00
C800   C     0.88729   0.84601   0.59787   0.00000  Uiso   1.00
C801   C     0.71929   0.79892   0.92362   0.00000  Uiso   1.00
C802   C     0.70127   0.78863   0.97548   0.00000  Uiso   1.00
C803   C     0.74374   0.80535   0.50741   0.00000  Uiso   1.00
C804   C     0.80520   0.83472   0.98817   0.00000  Uiso   1.00
C805   C     0.82031   0.85110   0.93674   0.00000  Uiso   1.00
C806   C     0.85211   0.84849   0.51820   0.00000  Uiso   1.00
C807   C     0.91085   0.88218   0.99816   0.00000  Uiso   1.00
C808   C     0.92127   0.90328   0.94989   0.00000  Uiso   1.00
C809   C     0.87635   0.88868   0.92001   0.00000  Uiso   1.00
C810   C     0.84260   0.82941   0.56752   0.00000  Uiso   1.00
C811   C     0.94574   0.87758   0.57715   0.00000  Uiso   1.00
C812   C     0.77884   0.82946   0.90342   0.00000  Uiso   1.00
H813   H     0.79992   0.80235   0.58408   0.00000  Uiso   1.00
H814   H     0.68724   0.78121   0.89902   0.00000  Uiso   1.00
H815   H     0.72656   0.79523   0.54704   0.00000  Uiso   1.00
H816   H     0.98809   0.76571   0.99074   0.00000  Uiso   1.00
H817   H     0.88610   0.90755   0.88364   0.00000  Uiso   1.00
C818   C     0.85683   0.98945   0.75247   0.00000  Uiso   1.00
H819   H     0.90201   0.68014   0.75713   0.00000  Uiso   1.00
C820   C     0.80982   0.67722   0.74761   0.00000  Uiso   1.00
H821   H     0.76467   0.98654   0.74288   0.00000  Uiso   1.00
N822   N     0.98241   0.84741   0.76416   0.00000  Uiso   1.00
N823   N     0.68426   0.81926   0.73584   0.00000  Uiso   1.00
H824   H     0.66794   0.80184   0.70413   0.00000  Uiso   1.00
N825   N     0.99712   0.86450   0.81112   0.00000  Uiso   1.00
O826   O     0.68464   0.91462   0.81929   0.00000  Uiso   1.00
O827   O     0.97223   0.83455   0.85031   0.00000  Uiso   1.00
F828   F     0.68108   0.92691   0.50835   0.00000  Uiso   1.00
loop_
_geom_bond_atom_site_label_1
_geom_bond_atom_site_label_2
_geom_bond_distance
_geom_bond_site_symmetry_2
_ccdc_geom_bond_type
O1     Cu7     1.953   .     S
O1     C3      1.294   .     A
O2     C3      1.292   .     A
O2     Cu8     1.952   .     S
C3     C36     1.430   .     S
O4     Cu7     1.937   .     S
O4     C6      1.307   .     A
O5     Cu8     1.917   .     S
O5     C6      1.300   .     A
C6     C30     1.475   .     S
Cu7    Cu8     2.700   .     S
Cu7    O11     1.917   .     S
Cu7    N41     2.029   .     S
Cu7    O9      1.952   .     S
Cu8    O12     1.937   .     S
Cu8    O10     1.953   .     S
Cu8    N40     2.029   .     S
O9     C13     1.292   .     A
O10    C13     1.294   .     A
O11    C14     1.298   .     A
O12    C14     1.305   .     A
C13    C38     1.430   .     S
C14    C18     1.465   .     S
C15    C29     1.395   .     A
C15    C439    1.409   1_554 S
C15    F92     1.358   .     S
H16    C29     1.083   .     S
H17    C26     1.084   .     S
C18    C29     1.398   .     A
C18    C28     1.397   .     A
C19    C20     1.387   .     A
C19    H32     1.081   .     S
C19    C30     1.402   .     A
C20    C435    1.391   .     S
C20    H126    1.083   1_455 S
C21    H33     1.077   .     S
C21    C434    1.391   1_554 S
C21    C436    1.418   1_554 S
C22    C23     1.418   .     A
C22    C435    1.418   .     S
C22    C438    1.426   .     S
C23    C27     1.410   .     A
C23    C30     1.421   .     A
C24    C28     1.402   .     A
C24    C436    1.426   1_554 S
C24    C439    1.421   1_554 S
C25    C26     1.395   .     A
C25    C438    1.421   .     S
C25    C429    1.409   .     S
C26    C27     1.388   .     A
C27    H35     1.081   .     S
C28    H31     1.077   .     S
H34    C66     1.083   .     S
C36    H175    1.087   .     S
C36    C176    1.331   .     S
H37    C312    1.087   1_545 S
C38    C312    1.331   1_545 S
C38    H315    1.087   1_545 S
H39    C176    1.087   .     S
N40    N43     1.383   .     S
N40    N87     1.287   .     S
N41    H42     1.029   .     S
N41    N132    1.287   1_455 S
N43    O45     1.300   .     A
N43    O90     1.301   .     S
O44    N135    1.301   1_455 S
F46    C107    1.358   1_455 S
O47    Cu53    1.953   .     S
O47    C49     1.294   .     A
O48    C49     1.292   .     A
O48    Cu54    1.952   .     S
C49    C82     1.430   .     S
O50    Cu53    1.937   .     S
O50    C52     1.307   .     A
O51    Cu54    1.917   .     S
O51    C52     1.300   .     A
C52    C76     1.475   .     S
Cu53   Cu54    2.700   .     S
Cu53   O57     1.917   .     S
Cu53   N87     2.029   .     S
Cu53   O55     1.952   .     S
Cu54   O58     1.937   .     S
Cu54   O56     1.953   .     S
Cu54   N86     2.029   .     S
O55    C59     1.292   .     A
O56    C59     1.294   .     A
O57    C60     1.298   .     A
O58    C60     1.305   .     A
C59    C84     1.430   .     S
C60    C64     1.465   .     S
C61    C75     1.395   .     A
C61    C485    1.409   1_554 S
C61    F138    1.358   .     S
H62    C75     1.083   .     S
H63    C72     1.084   .     S
C64    C75     1.398   .     A
C64    C74     1.397   .     A
C65    C66     1.387   .     A
C65    H78     1.081   .     S
C65    C76     1.402   .     A
C66    C481    1.391   .     S
C67    H79     1.077   .     S
C67    C480    1.391   1_554 S
C67    C482    1.418   1_554 S
C68    C69     1.418   .     A
C68    C481    1.418   .     S
C68    C484    1.426   .     S
C69    C73     1.410   .     A
C69    C76     1.421   .     A
C70    C74     1.402   .     A
C70    C482    1.426   1_554 S
C70    C485    1.421   1_554 S
C71    C72     1.395   .     A
C71    C484    1.421   .     S
C71    C475    1.409   .     S
C72    C73     1.388   .     A
C73    H81     1.081   .     S
C74    H77     1.077   .     S
H80    C112    1.083   .     S
C82    H221    1.087   .     S
C82    C222    1.331   .     S
H83    C358    1.087   1_545 S
C84    C358    1.331   1_545 S
C84    H361    1.087   1_545 S
H85    C222    1.087   .     S
N86    N89     1.383   .     S
N86    N133    1.287   .     S
N87    H88     1.029   .     S
N89    O91     1.300   .     A
N89    O136    1.301   .     S
O93    Cu99    1.953   .     S
O93    C95     1.294   .     A
O94    C95     1.292   .     A
O94    Cu100   1.952   .     S
C95    C128    1.430   .     S
O96    Cu99    1.937   .     S
O96    C98     1.307   .     A
O97    Cu100   1.917   .     S
O97    C98     1.300   .     A
C98    C122    1.475   .     S
Cu99   Cu100   2.700   .     S
Cu99   O103    1.917   .     S
Cu99   N133    2.029   .     S
Cu99   O101    1.952   .     S
Cu100  O104    1.937   .     S
Cu100  O102    1.953   .     S
Cu100  N132    2.029   .     S
O101   C105    1.292   .     A
O102   C105    1.294   .     A
O103   C106    1.298   .     A
O104   C106    1.305   .     A
C105   C130    1.430   .     S
C106   C110    1.465   .     S
C107   C121    1.395   .     A
C107   C531    1.409   1_554 S
C107   F46     1.358   1_655 S
H108   C121    1.083   .     S
H109   C118    1.084   .     S
C110   C121    1.398   .     A
C110   C120    1.397   .     A
C111   C112    1.387   .     A
C111   H124    1.081   .     S
C111   C122    1.402   .     A
C112   C527    1.391   .     S
C113   H125    1.077   .     S
C113   C526    1.391   1_554 S
C113   C528    1.418   1_554 S
C114   C115    1.418   .     A
C114   C527    1.418   .     S
C114   C530    1.426   .     S
C115   C119    1.410   .     A
C115   C122    1.421   .     A
C116   C120    1.402   .     A
C116   C528    1.426   1_554 S
C116   C531    1.421   1_554 S
C117   C118    1.395   .     A
C117   C530    1.421   .     S
C117   C521    1.409   .     S
C118   C119    1.388   .     A
C119   H127    1.081   .     S
C120   H123    1.077   .     S
H126   C20     1.083   1_655 S
C128   H267    1.087   .     S
C128   C268    1.331   .     S
H129   C404    1.087   1_545 S
C130   C404    1.331   1_545 S
C130   H407    1.087   1_545 S
H131   C268    1.087   .     S
N132   N135    1.383   .     S
N132   N41     1.287   1_655 S
N133   H134    1.029   .     S
N135   O137    1.300   .     A
N135   O44     1.301   1_655 S
O139   Cu145   1.953   .     S
O139   C141    1.294   .     A
O140   C141    1.292   .     A
O140   Cu146   1.952   .     S
C141   C174    1.430   .     S
O142   Cu145   1.937   .     S
O142   C144    1.307   .     A
O143   Cu146   1.917   .     S
O143   C144    1.300   .     A
C144   C168    1.475   .     S
Cu145  Cu146   2.700   .     S
Cu145  O149    1.917   .     S
Cu145  N179    2.029   .     S
Cu145  O147    1.952   .     S
Cu146  O150    1.937   .     S
Cu146  O148    1.953   .     S
Cu146  N178    2.029   .     S
O147   C151    1.292   .     A
O148   C151    1.294   .     A
O149   C152    1.298   .     A
O150   C152    1.305   .     A
C151   C176    1.430   .     S
C152   C156    1.465   .     S
C153   C167    1.395   .     A
C153   C577    1.409   1_554 S
C153   F230    1.358   .     S
H154   C167    1.083   .     S
H155   C164    1.084   .     S
C156   C167    1.398   .     A
C156   C166    1.397   .     A
C157   C158    1.387   .     A
C157   H170    1.081   .     S
C157   C168    1.402   .     A
C158   C573    1.391   .     S
C158   H264    1.083   1_455 S
C159   H171    1.077   .     S
C159   C572    1.391   1_554 S
C159   C574    1.418   1_554 S
C160   C161    1.418   .     A
C160   C573    1.418   .     S
C160   C576    1.426   .     S
C161   C165    1.410   .     A
C161   C168    1.421   .     A
C162   C166    1.402   .     A
C162   C574    1.426   1_554 S
C162   C577    1.421   1_554 S
C163   C164    1.395   .     A
C163   C576    1.421   .     S
C163   C567    1.409   .     S
C164   C165    1.388   .     A
C165   H173    1.081   .     S
C166   H169    1.077   .     S
H172   C204    1.083   .     S
C174   H313    1.087   .     S
C174   C314    1.331   .     S
H177   C314    1.087   .     S
N178   N181    1.383   .     S
N178   N225    1.287   .     S
N179   H180    1.029   .     S
N179   N270    1.287   1_455 S
N181   O183    1.300   .     A
N181   O228    1.301   .     S
O182   N273    1.301   1_455 S
F184   C245    1.358   1_455 S
O185   Cu191   1.953   .     S
O185   C187    1.294   .     A
O186   C187    1.292   .     A
O186   Cu192   1.952   .     S
C187   C220    1.430   .     S
O188   Cu191   1.937   .     S
O188   C190    1.307   .     A
O189   Cu192   1.917   .     S
O189   C190    1.300   .     A
C190   C214    1.475   .     S
Cu191  Cu192   2.700   .     S
Cu191  O195    1.917   .     S
Cu191  N225    2.029   .     S
Cu191  O193    1.952   .     S
Cu192  O196    1.937   .     S
Cu192  O194    1.953   .     S
Cu192  N224    2.029   .     S
O193   C197    1.292   .     A
O194   C197    1.294   .     A
O195   C198    1.298   .     A
O196   C198    1.305   .     A
C197   C222    1.430   .     S
C198   C202    1.465   .     S
C199   C213    1.395   .     A
C199   C623    1.409   1_554 S
C199   F276    1.358   .     S
H200   C213    1.083   .     S
H201   C210    1.084   .     S
C202   C213    1.398   .     A
C202   C212    1.397   .     A
C203   C204    1.387   .     A
C203   H216    1.081   .     S
C203   C214    1.402   .     A
C204   C619    1.391   .     S
C205   H217    1.077   .     S
C205   C618    1.391   1_554 S
C205   C620    1.418   1_554 S
C206   C207    1.418   .     A
C206   C619    1.418   .     S
C206   C622    1.426   .     S
C207   C211    1.410   .     A
C207   C214    1.421   .     A
C208   C212    1.402   .     A
C208   C620    1.426   1_554 S
C208   C623    1.421   1_554 S
C209   C210    1.395   .     A
C209   C622    1.421   .     S
C209   C613    1.409   .     S
C210   C211    1.388   .     A
C211   H219    1.081   .     S
C212   H215    1.077   .     S
H218   C250    1.083   .     S
C220   H359    1.087   .     S
C220   C360    1.331   .     S
H223   C360    1.087   .     S
N224   N227    1.383   .     S
N224   N271    1.287   .     S
N225   H226    1.029   .     S
N227   O229    1.300   .     A
N227   O274    1.301   .     S
O231   Cu237   1.953   .     S
O231   C233    1.294   .     A
O232   C233    1.292   .     A
O232   Cu238   1.952   .     S
C233   C266    1.430   .     S
O234   Cu237   1.937   .     S
O234   C236    1.307   .     A
O235   Cu238   1.917   .     S
O235   C236    1.300   .     A
C236   C260    1.475   .     S
Cu237  Cu238   2.700   .     S
Cu237  O241    1.917   .     S
Cu237  N271    2.029   .     S
Cu237  O239    1.952   .     S
Cu238  O242    1.937   .     S
Cu238  O240    1.953   .     S
Cu238  N270    2.029   .     S
O239   C243    1.292   .     A
O240   C243    1.294   .     A
O241   C244    1.298   .     A
O242   C244    1.305   .     A
C243   C268    1.430   .     S
C244   C248    1.465   .     S
C245   C259    1.395   .     A
C245   C669    1.409   1_554 S
C245   F184    1.358   1_655 S
H246   C259    1.083   .     S
H247   C256    1.084   .     S
C248   C259    1.398   .     A
C248   C258    1.397   .     A
C249   C250    1.387   .     A
C249   H262    1.081   .     S
C249   C260    1.402   .     A
C250   C665    1.391   .     S
C251   H263    1.077   .     S
C251   C664    1.391   1_554 S
C251   C666    1.418   1_554 S
C252   C253    1.418   .     A
C252   C665    1.418   .     S
C252   C668    1.426   .     S
C253   C257    1.410   .     A
C253   C260    1.421   .     A
C254   C258    1.402   .     A
C254   C666    1.426   1_554 S
C254   C669    1.421   1_554 S
C255   C256    1.395   .     A
C255   C668    1.421   .     S
C255   C659    1.409   .     S
C256   C257    1.388   .     A
C257   H265    1.081   .     S
C258   H261    1.077   .     S
H264   C158    1.083   1_655 S
C266   H405    1.087   .     S
C266   C406    1.331   .     S
H269   C406    1.087   .     S
N270   N273    1.383   .     S
N270   N179    1.287   1_655 S
N271   H272    1.029   .     S
N273   O275    1.300   .     A
N273   O182    1.301   1_655 S
O277   Cu283   1.953   .     S
O277   C279    1.294   .     A
O278   C279    1.292   .     A
O278   Cu284   1.952   .     S
C279   C312    1.430   .     S
O280   Cu283   1.937   .     S
O280   C282    1.307   .     A
O281   Cu284   1.917   .     S
O281   C282    1.300   .     A
C282   C306    1.475   .     S
Cu283  Cu284   2.700   .     S
Cu283  O287    1.917   .     S
Cu283  N317    2.029   .     S
Cu283  O285    1.952   .     S
Cu284  O288    1.937   .     S
Cu284  O286    1.953   .     S
Cu284  N316    2.029   .     S
O285   C289    1.292   .     A
O286   C289    1.294   .     A
O287   C290    1.298   .     A
O288   C290    1.305   .     A
C289   C314    1.430   .     S
C290   C294    1.465   .     S
C291   C305    1.395   .     A
C291   C715    1.409   1_554 S
C291   F368    1.358   .     S
H292   C305    1.083   .     S
H293   C302    1.084   .     S
C294   C305    1.398   .     A
C294   C304    1.397   .     A
C295   C296    1.387   .     A
C295   H308    1.081   .     S
C295   C306    1.402   .     A
C296   C711    1.391   .     S
C296   H402    1.083   1_455 S
C297   H309    1.077   .     S
C297   C710    1.391   1_554 S
C297   C712    1.418   1_554 S
C298   C299    1.418   .     A
C298   C711    1.418   .     S
C298   C714    1.426   .     S
C299   C303    1.410   .     A
C299   C306    1.421   .     A
C300   C304    1.402   .     A
C300   C712    1.426   1_554 S
C300   C715    1.421   1_554 S
C301   C302    1.395   .     A
C301   C714    1.421   .     S
C301   C705    1.409   .     S
C302   C303    1.388   .     A
C303   H311    1.081   .     S
C304   H307    1.077   .     S
H310   C342    1.083   .     S
C312   H37     1.087   1_565 S
C312   C38     1.331   1_565 S
H315   C38     1.087   1_565 S
N316   N319    1.383   .     S
N316   N363    1.287   .     S
N317   H318    1.029   .     S
N317   N408    1.287   1_455 S
N319   O321    1.300   .     A
N319   O366    1.301   .     S
O320   N411    1.301   1_455 S
F322   C383    1.358   1_455 S
O323   Cu329   1.953   .     S
O323   C325    1.294   .     A
O324   C325    1.292   .     A
O324   Cu330   1.952   .     S
C325   C358    1.430   .     S
O326   Cu329   1.937   .     S
O326   C328    1.307   .     A
O327   Cu330   1.917   .     S
O327   C328    1.300   .     A
C328   C352    1.475   .     S
Cu329  Cu330   2.700   .     S
Cu329  O333    1.917   .     S
Cu329  N363    2.029   .     S
Cu329  O331    1.952   .     S
Cu330  O334    1.937   .     S
Cu330  O332    1.953   .     S
Cu330  N362    2.029   .     S
O331   C335    1.292   .     A
O332   C335    1.294   .     A
O333   C336    1.298   .     A
O334   C336    1.305   .     A
C335   C360    1.430   .     S
C336   C340    1.465   .     S
C337   C351    1.395   .     A
C337   C761    1.409   1_554 S
C337   F414    1.358   .     S
H338   C351    1.083   .     S
H339   C348    1.084   .     S
C340   C351    1.398   .     A
C340   C350    1.397   .     A
C341   C342    1.387   .     A
C341   H354    1.081   .     S
C341   C352    1.402   .     A
C342   C757    1.391   .     S
C343   H355    1.077   .     S
C343   C756    1.391   1_554 S
C343   C758    1.418   1_554 S
C344   C345    1.418   .     A
C344   C757    1.418   .     S
C344   C760    1.426   .     S
C345   C349    1.410   .     A
C345   C352    1.421   .     A
C346   C350    1.402   .     A
C346   C758    1.426   1_554 S
C346   C761    1.421   1_554 S
C347   C348    1.395   .     A
C347   C760    1.421   .     S
C347   C751    1.409   .     S
C348   C349    1.388   .     A
C349   H357    1.081   .     S
C350   H353    1.077   .     S
H356   C388    1.083   .     S
C358   H83     1.087   1_565 S
C358   C84     1.331   1_565 S
H361   C84     1.087   1_565 S
N362   N365    1.383   .     S
N362   N409    1.287   .     S
N363   H364    1.029   .     S
N365   O367    1.300   .     A
N365   O412    1.301   .     S
O369   Cu375   1.953   .     S
O369   C371    1.294   .     A
O370   C371    1.292   .     A
O370   Cu376   1.952   .     S
C371   C404    1.430   .     S
O372   Cu375   1.937   .     S
O372   C374    1.307   .     A
O373   Cu376   1.917   .     S
O373   C374    1.300   .     A
C374   C398    1.475   .     S
Cu375  Cu376   2.700   .     S
Cu375  O379    1.917   .     S
Cu375  N409    2.029   .     S
Cu375  O377    1.952   .     S
Cu376  O380    1.937   .     S
Cu376  O378    1.953   .     S
Cu376  N408    2.029   .     S
O377   C381    1.292   .     A
O378   C381    1.294   .     A
O379   C382    1.298   .     A
O380   C382    1.305   .     A
C381   C406    1.430   .     S
C382   C386    1.465   .     S
C383   C397    1.395   .     A
C383   C807    1.409   1_554 S
C383   F322    1.358   1_655 S
H384   C397    1.083   .     S
H385   C394    1.084   .     S
C386   C397    1.398   .     A
C386   C396    1.397   .     A
C387   C388    1.387   .     A
C387   H400    1.081   .     S
C387   C398    1.402   .     A
C388   C803    1.391   .     S
C389   H401    1.077   .     S
C389   C802    1.391   1_554 S
C389   C804    1.418   1_554 S
C390   C391    1.418   .     A
C390   C803    1.418   .     S
C390   C806    1.426   .     S
C391   C395    1.410   .     A
C391   C398    1.421   .     A
C392   C396    1.402   .     A
C392   C804    1.426   1_554 S
C392   C807    1.421   1_554 S
C393   C394    1.395   .     A
C393   C806    1.421   .     S
C393   C797    1.409   .     S
C394   C395    1.388   .     A
C395   H403    1.081   .     S
C396   H399    1.077   .     S
H402   C296    1.083   1_655 S
C404   H129    1.087   1_565 S
C404   C130    1.331   1_565 S
H407   C130    1.087   1_565 S
N408   N411    1.383   .     S
N408   N317    1.287   1_655 S
N409   H410    1.029   .     S
N411   O413    1.300   .     A
N411   O320    1.301   1_655 S
O415   Cu421   1.953   .     S
O415   C417    1.294   .     A
O416   C417    1.292   .     A
O416   Cu422   1.952   .     S
C417   C450    1.430   .     S
O418   Cu421   1.937   .     S
O418   C420    1.307   .     A
O419   Cu422   1.917   .     S
O419   C420    1.300   .     A
C420   C444    1.475   .     S
Cu421  Cu422   2.700   .     S
Cu421  O425    1.917   .     S
Cu421  N455    2.029   .     S
Cu421  O423    1.952   .     S
Cu422  O426    1.937   .     S
Cu422  O424    1.953   .     S
Cu422  N454    2.029   .     S
O423   C427    1.292   .     A
O424   C427    1.294   .     A
O425   C428    1.298   .     A
O426   C428    1.305   .     A
C427   C452    1.430   .     S
C428   C432    1.465   .     S
C429   C443    1.395   .     A
C429   F506    1.358   .     S
H430   C443    1.083   .     S
H431   C440    1.084   .     S
C432   C443    1.398   .     A
C432   C442    1.397   .     A
C433   C434    1.387   .     A
C433   H446    1.081   .     S
C433   C444    1.402   .     A
C434   C21     1.391   1_556 S
C434   H540    1.083   1_455 S
C435   H447    1.077   .     S
C436   C437    1.418   .     A
C436   C21     1.418   1_556 S
C436   C24     1.426   1_556 S
C437   C441    1.410   .     A
C437   C444    1.421   .     A
C438   C442    1.402   .     A
C439   C440    1.395   .     A
C439   C24     1.421   1_556 S
C439   C15     1.409   1_556 S
C440   C441    1.388   .     A
C441   H449    1.081   .     S
C442   H445    1.077   .     S
H448   C480    1.083   .     S
C450   H589    1.087   .     S
C450   C590    1.331   .     S
H451   C726    1.087   1_545 S
C452   C726    1.331   1_545 S
C452   H729    1.087   1_545 S
H453   C590    1.087   .     S
N454   N457    1.383   .     S
N454   N501    1.287   .     S
N455   H456    1.029   .     S
N455   N546    1.287   1_455 S
N457   O459    1.300   .     A
N457   O504    1.301   .     S
O458   N549    1.301   1_455 S
F460   C521    1.358   1_455 S
O461   Cu467   1.953   .     S
O461   C463    1.294   .     A
O462   C463    1.292   .     A
O462   Cu468   1.952   .     S
C463   C496    1.430   .     S
O464   Cu467   1.937   .     S
O464   C466    1.307   .     A
O465   Cu468   1.917   .     S
O465   C466    1.300   .     A
C466   C490    1.475   .     S
Cu467  Cu468   2.700   .     S
Cu467  O471    1.917   .     S
Cu467  N501    2.029   .     S
Cu467  O469    1.952   .     S
Cu468  O472    1.937   .     S
Cu468  O470    1.953   .     S
Cu468  N500    2.029   .     S
O469   C473    1.292   .     A
O470   C473    1.294   .     A
O471   C474    1.298   .     A
O472   C474    1.305   .     A
C473   C498    1.430   .     S
C474   C478    1.465   .     S
C475   C489    1.395   .     A
C475   F552    1.358   .     S
H476   C489    1.083   .     S
H477   C486    1.084   .     S
C478   C489    1.398   .     A
C478   C488    1.397   .     A
C479   C480    1.387   .     A
C479   H492    1.081   .     S
C479   C490    1.402   .     A
C480   C67     1.391   1_556 S
C481   H493    1.077   .     S
C482   C483    1.418   .     A
C482   C67     1.418   1_556 S
C482   C70     1.426   1_556 S
C483   C487    1.410   .     A
C483   C490    1.421   .     A
C484   C488    1.402   .     A
C485   C486    1.395   .     A
C485   C70     1.421   1_556 S
C485   C61     1.409   1_556 S
C486   C487    1.388   .     A
C487   H495    1.081   .     S
C488   H491    1.077   .     S
H494   C526    1.083   .     S
C496   H635    1.087   .     S
C496   C636    1.331   .     S
H497   C772    1.087   1_545 S
C498   C772    1.331   1_545 S
C498   H775    1.087   1_545 S
H499   C636    1.087   .     S
N500   N503    1.383   .     S
N500   N547    1.287   .     S
N501   H502    1.029   .     S
N503   O505    1.300   .     A
N503   O550    1.301   .     S
O507   Cu513   1.953   .     S
O507   C509    1.294   .     A
O508   C509    1.292   .     A
O508   Cu514   1.952   .     S
C509   C542    1.430   .     S
O510   Cu513   1.937   .     S
O510   C512    1.307   .     A
O511   Cu514   1.917   .     S
O511   C512    1.300   .     A
C512   C536    1.475   .     S
Cu513  Cu514   2.700   .     S
Cu513  O517    1.917   .     S
Cu513  N547    2.029   .     S
Cu513  O515    1.952   .     S
Cu514  O518    1.937   .     S
Cu514  O516    1.953   .     S
Cu514  N546    2.029   .     S
O515   C519    1.292   .     A
O516   C519    1.294   .     A
O517   C520    1.298   .     A
O518   C520    1.305   .     A
C519   C544    1.430   .     S
C520   C524    1.465   .     S
C521   C535    1.395   .     A
C521   F460    1.358   1_655 S
H522   C535    1.083   .     S
H523   C532    1.084   .     S
C524   C535    1.398   .     A
C524   C534    1.397   .     A
C525   C526    1.387   .     A
C525   H538    1.081   .     S
C525   C536    1.402   .     A
C526   C113    1.391   1_556 S
C527   H539    1.077   .     S
C528   C529    1.418   .     A
C528   C113    1.418   1_556 S
C528   C116    1.426   1_556 S
C529   C533    1.410   .     A
C529   C536    1.421   .     A
C530   C534    1.402   .     A
C531   C532    1.395   .     A
C531   C116    1.421   1_556 S
C531   C107    1.409   1_556 S
C532   C533    1.388   .     A
C533   H541    1.081   .     S
C534   H537    1.077   .     S
H540   C434    1.083   1_655 S
C542   H681    1.087   .     S
C542   C682    1.331   .     S
H543   C818    1.087   1_545 S
C544   C818    1.331   1_545 S
C544   H821    1.087   1_545 S
H545   C682    1.087   .     S
N546   N549    1.383   .     S
N546   N455    1.287   1_655 S
N547   H548    1.029   .     S
N549   O551    1.300   .     A
N549   O458    1.301   1_655 S
O553   Cu559   1.953   .     S
O553   C555    1.294   .     A
O554   C555    1.292   .     A
O554   Cu560   1.952   .     S
C555   C588    1.430   .     S
O556   Cu559   1.937   .     S
O556   C558    1.307   .     A
O557   Cu560   1.917   .     S
O557   C558    1.300   .     A
C558   C582    1.475   .     S
Cu559  Cu560   2.700   .     S
Cu559  O563    1.917   .     S
Cu559  N593    2.029   .     S
Cu559  O561    1.952   .     S
Cu560  O564    1.937   .     S
Cu560  O562    1.953   .     S
Cu560  N592    2.029   .     S
O561   C565    1.292   .     A
O562   C565    1.294   .     A
O563   C566    1.298   .     A
O564   C566    1.305   .     A
C565   C590    1.430   .     S
C566   C570    1.465   .     S
C567   C581    1.395   .     A
C567   F644    1.358   .     S
H568   C581    1.083   .     S
H569   C578    1.084   .     S
C570   C581    1.398   .     A
C570   C580    1.397   .     A
C571   C572    1.387   .     A
C571   H584    1.081   .     S
C571   C582    1.402   .     A
C572   C159    1.391   1_556 S
C572   H678    1.083   1_455 S
C573   H585    1.077   .     S
C574   C575    1.418   .     A
C574   C159    1.418   1_556 S
C574   C162    1.426   1_556 S
C575   C579    1.410   .     A
C575   C582    1.421   .     A
C576   C580    1.402   .     A
C577   C578    1.395   .     A
C577   C162    1.421   1_556 S
C577   C153    1.409   1_556 S
C578   C579    1.388   .     A
C579   H587    1.081   .     S
C580   H583    1.077   .     S
H586   C618    1.083   .     S
C588   H727    1.087   .     S
C588   C728    1.331   .     S
H591   C728    1.087   .     S
N592   N595    1.383   .     S
N592   N639    1.287   .     S
N593   H594    1.029   .     S
N593   N684    1.287   1_455 S
N595   O597    1.300   .     A
N595   O642    1.301   .     S
O596   N687    1.301   1_455 S
F598   C659    1.358   1_455 S
O599   Cu605   1.953   .     S
O599   C601    1.294   .     A
O600   C601    1.292   .     A
O600   Cu606   1.952   .     S
C601   C634    1.430   .     S
O602   Cu605   1.937   .     S
O602   C604    1.307   .     A
O603   Cu606   1.917   .     S
O603   C604    1.300   .     A
C604   C628    1.475   .     S
Cu605  Cu606   2.700   .     S
Cu605  O609    1.917   .     S
Cu605  N639    2.029   .     S
Cu605  O607    1.952   .     S
Cu606  O610    1.937   .     S
Cu606  O608    1.953   .     S
Cu606  N638    2.029   .     S
O607   C611    1.292   .     A
O608   C611    1.294   .     A
O609   C612    1.298   .     A
O610   C612    1.305   .     A
C611   C636    1.430   .     S
C612   C616    1.465   .     S
C613   C627    1.395   .     A
C613   F690    1.358   .     S
H614   C627    1.083   .     S
H615   C624    1.084   .     S
C616   C627    1.398   .     A
C616   C626    1.397   .     A
C617   C618    1.387   .     A
C617   H630    1.081   .     S
C617   C628    1.402   .     A
C618   C205    1.391   1_556 S
C619   H631    1.077   .     S
C620   C621    1.418   .     A
C620   C205    1.418   1_556 S
C620   C208    1.426   1_556 S
C621   C625    1.410   .     A
C621   C628    1.421   .     A
C622   C626    1.402   .     A
C623   C624    1.395   .     A
C623   C208    1.421   1_556 S
C623   C199    1.409   1_556 S
C624   C625    1.388   .     A
C625   H633    1.081   .     S
C626   H629    1.077   .     S
H632   C664    1.083   .     S
C634   H773    1.087   .     S
C634   C774    1.331   .     S
H637   C774    1.087   .     S
N638   N641    1.383   .     S
N638   N685    1.287   .     S
N639   H640    1.029   .     S
N641   O643    1.300   .     A
N641   O688    1.301   .     S
O645   Cu651   1.953   .     S
O645   C647    1.294   .     A
O646   C647    1.292   .     A
O646   Cu652   1.952   .     S
C647   C680    1.430   .     S
O648   Cu651   1.937   .     S
O648   C650    1.307   .     A
O649   Cu652   1.917   .     S
O649   C650    1.300   .     A
C650   C674    1.475   .     S
Cu651  Cu652   2.700   .     S
Cu651  O655    1.917   .     S
Cu651  N685    2.029   .     S
Cu651  O653    1.952   .     S
Cu652  O656    1.937   .     S
Cu652  O654    1.953   .     S
Cu652  N684    2.029   .     S
O653   C657    1.292   .     A
O654   C657    1.294   .     A
O655   C658    1.298   .     A
O656   C658    1.305   .     A
C657   C682    1.430   .     S
C658   C662    1.465   .     S
C659   C673    1.395   .     A
C659   F598    1.358   1_655 S
H660   C673    1.083   .     S
H661   C670    1.084   .     S
C662   C673    1.398   .     A
C662   C672    1.397   .     A
C663   C664    1.387   .     A
C663   H676    1.081   .     S
C663   C674    1.402   .     A
C664   C251    1.391   1_556 S
C665   H677    1.077   .     S
C666   C667    1.418   .     A
C666   C251    1.418   1_556 S
C666   C254    1.426   1_556 S
C667   C671    1.410   .     A
C667   C674    1.421   .     A
C668   C672    1.402   .     A
C669   C670    1.395   .     A
C669   C254    1.421   1_556 S
C669   C245    1.409   1_556 S
C670   C671    1.388   .     A
C671   H679    1.081   .     S
C672   H675    1.077   .     S
H678   C572    1.083   1_655 S
C680   H819    1.087   .     S
C680   C820    1.331   .     S
H683   C820    1.087   .     S
N684   N687    1.383   .     S
N684   N593    1.287   1_655 S
N685   H686    1.029   .     S
N687   O689    1.300   .     A
N687   O596    1.301   1_655 S
O691   Cu697   1.953   .     S
O691   C693    1.294   .     A
O692   C693    1.292   .     A
O692   Cu698   1.952   .     S
C693   C726    1.430   .     S
O694   Cu697   1.937   .     S
O694   C696    1.307   .     A
O695   Cu698   1.917   .     S
O695   C696    1.300   .     A
C696   C720    1.475   .     S
Cu697  Cu698   2.700   .     S
Cu697  O701    1.917   .     S
Cu697  N731    2.029   .     S
Cu697  O699    1.952   .     S
Cu698  O702    1.937   .     S
Cu698  O700    1.953   .     S
Cu698  N730    2.029   .     S
O699   C703    1.292   .     A
O700   C703    1.294   .     A
O701   C704    1.298   .     A
O702   C704    1.305   .     A
C703   C728    1.430   .     S
C704   C708    1.465   .     S
C705   C719    1.395   .     A
C705   F782    1.358   .     S
H706   C719    1.083   .     S
H707   C716    1.084   .     S
C708   C719    1.398   .     A
C708   C718    1.397   .     A
C709   C710    1.387   .     A
C709   H722    1.081   .     S
C709   C720    1.402   .     A
C710   C297    1.391   1_556 S
C710   H816    1.083   1_455 S
C711   H723    1.077   .     S
C712   C713    1.418   .     A
C712   C297    1.418   1_556 S
C712   C300    1.426   1_556 S
C713   C717    1.410   .     A
C713   C720    1.421   .     A
C714   C718    1.402   .     A
C715   C716    1.395   .     A
C715   C300    1.421   1_556 S
C715   C291    1.409   1_556 S
C716   C717    1.388   .     A
C717   H725    1.081   .     S
C718   H721    1.077   .     S
H724   C756    1.083   .     S
C726   H451    1.087   1_565 S
C726   C452    1.331   1_565 S
H729   C452    1.087   1_565 S
N730   N733    1.383   .     S
N730   N777    1.287   .     S
N731   H732    1.029   .     S
N731   N822    1.287   1_455 S
N733   O735    1.300   .     A
N733   O780    1.301   .     S
O734   N825    1.301   1_455 S
F736   C797    1.358   1_455 S
O737   Cu743   1.953   .     S
O737   C739    1.294   .     A
O738   C739    1.292   .     A
O738   Cu744   1.952   .     S
C739   C772    1.430   .     S
O740   Cu743   1.937   .     S
O740   C742    1.307   .     A
O741   Cu744   1.917   .     S
O741   C742    1.300   .     A
C742   C766    1.475   .     S
Cu743  Cu744   2.700   .     S
Cu743  O747    1.917   .     S
Cu743  N777    2.029   .     S
Cu743  O745    1.952   .     S
Cu744  O748    1.937   .     S
Cu744  O746    1.953   .     S
Cu744  N776    2.029   .     S
O745   C749    1.292   .     A
O746   C749    1.294   .     A
O747   C750    1.298   .     A
O748   C750    1.305   .     A
C749   C774    1.430   .     S
C750   C754    1.465   .     S
C751   C765    1.395   .     A
C751   F828    1.358   .     S
H752   C765    1.083   .     S
H753   C762    1.084   .     S
C754   C765    1.398   .     A
C754   C764    1.397   .     A
C755   C756    1.387   .     A
C755   H768    1.081   .     S
C755   C766    1.402   .     A
C756   C343    1.391   1_556 S
C757   H769    1.077   .     S
C758   C759    1.418   .     A
C758   C343    1.418   1_556 S
C758   C346    1.426   1_556 S
C759   C763    1.410   .     A
C759   C766    1.421   .     A
C760   C764    1.402   .     A
C761   C762    1.395   .     A
C761   C346    1.421   1_556 S
C761   C337    1.409   1_556 S
C762   C763    1.388   .     A
C763   H771    1.081   .     S
C764   H767    1.077   .     S
H770   C802    1.083   .     S
C772   H497    1.087   1_565 S
C772   C498    1.331   1_565 S
H775   C498    1.087   1_565 S
N776   N779    1.383   .     S
N776   N823    1.287   .     S
N777   H778    1.029   .     S
N779   O781    1.300   .     A
N779   O826    1.301   .     S
O783   Cu789   1.953   .     S
O783   C785    1.294   .     A
O784   C785    1.292   .     A
O784   Cu790   1.952   .     S
C785   C818    1.430   .     S
O786   Cu789   1.937   .     S
O786   C788    1.307   .     A
O787   Cu790   1.917   .     S
O787   C788    1.300   .     A
C788   C812    1.475   .     S
Cu789  Cu790   2.700   .     S
Cu789  O793    1.917   .     S
Cu789  N823    2.029   .     S
Cu789  O791    1.952   .     S
Cu790  O794    1.937   .     S
Cu790  O792    1.953   .     S
Cu790  N822    2.029   .     S
O791   C795    1.292   .     A
O792   C795    1.294   .     A
O793   C796    1.298   .     A
O794   C796    1.305   .     A
C795   C820    1.430   .     S
C796   C800    1.465   .     S
C797   C811    1.395   .     A
C797   F736    1.358   1_655 S
H798   C811    1.083   .     S
H799   C808    1.084   .     S
C800   C811    1.398   .     A
C800   C810    1.397   .     A
C801   C802    1.387   .     A
C801   H814    1.081   .     S
C801   C812    1.402   .     A
C802   C389    1.391   1_556 S
C803   H815    1.077   .     S
C804   C805    1.418   .     A
C804   C389    1.418   1_556 S
C804   C392    1.426   1_556 S
C805   C809    1.410   .     A
C805   C812    1.421   .     A
C806   C810    1.402   .     A
C807   C808    1.395   .     A
C807   C392    1.421   1_556 S
C807   C383    1.409   1_556 S
C808   C809    1.388   .     A
C809   H817    1.081   .     S
C810   H813    1.077   .     S
H816   C710    1.083   1_655 S
C818   H543    1.087   1_565 S
C818   C544    1.331   1_565 S
H821   C544    1.087   1_565 S
N822   N825    1.383   .     S
N822   N731    1.287   1_655 S
N823   H824    1.029   .     S
N825   O827    1.300   .     A
N825   O734    1.301   1_655 S
