data_str_m2_o1_o16_pcu_sym.240
_audit_creation_date              2020-01-03
_audit_creation_method            'Materials Studio'
_symmetry_space_group_name_H-M    'P1'
_symmetry_Int_Tables_number       1
_symmetry_cell_setting            triclinic
loop_
_symmetry_equiv_pos_as_xyz
  x,y,z
_cell_length_a                    28.8334
_cell_length_b                    32.4377
_cell_length_c                    26.8775
_cell_angle_alpha                 92.1737
_cell_angle_beta                  71.7139
_cell_angle_gamma                 89.8213
loop_
_atom_site_label
_atom_site_type_symbol
_atom_site_fract_x
_atom_site_fract_y
_atom_site_fract_z
_atom_site_U_iso_or_equiv
_atom_site_adp_type
_atom_site_occupancy
C1     C     0.16680   0.24581   0.24957   0.00000  Uiso   1.00
C2     C     0.15441   0.18193   0.48331   0.00000  Uiso   1.00
C3     C     0.15574   0.16031   0.43611   0.00000  Uiso   1.00
C4     C     0.18609   0.16922   0.01140   0.00000  Uiso   1.00
C5     C     0.22651   0.14282   0.48549   0.00000  Uiso   1.00
C6     C     0.22701   0.12060   0.43899   0.00000  Uiso   1.00
C7     C     0.18841   0.12646   0.41787   0.00000  Uiso   1.00
C8     C     0.17706   0.17986   0.06527   0.00000  Uiso   1.00
C9     C     0.25480   0.14817   0.06228   0.00000  Uiso   1.00
C10    C     0.12395   0.17282   0.40823   0.00000  Uiso   1.00
C11    C     0.20987   0.31122   0.22274   0.00000  Uiso   1.00
C12    C     0.14000   0.16707   0.35032   0.00000  Uiso   1.00
C13    C     0.20881   0.02091   0.22394   0.00000  Uiso   1.00
C14    C     0.16599   0.04284   0.25116   0.00000  Uiso   1.00
C15    C     0.12322   0.02185   0.27748   0.00000  Uiso   1.00
C16    C     0.12401   0.31230   0.27596   0.00000  Uiso   1.00
C17    C     0.16702   0.29042   0.24914   0.00000  Uiso   1.00
C18    C     0.29967   0.19588   0.27864   0.00000  Uiso   1.00
C19    C     0.01566   0.19623   0.27853   0.00000  Uiso   1.00
C20    C     0.03240   0.13668   0.22221   0.00000  Uiso   1.00
C21    C     0.31652   0.13709   0.22210   0.00000  Uiso   1.00
C22    C     0.16642   0.08751   0.25067   0.00000  Uiso   1.00
C23    C     0.19323   0.16716   0.14967   0.00000  Uiso   1.00
C24    C     0.26397   0.13735   0.00872   0.00000  Uiso   1.00
C25    C     0.20943   0.16612   0.09147   0.00000  Uiso   1.00
C26    C     0.08508   0.20098   0.43298   0.00000  Uiso   1.00
C27    C     0.08625   0.22441   0.47701   0.00000  Uiso   1.00
C28    C     0.12277   0.21662   0.49965   0.00000  Uiso   1.00
Cu29   Cu    0.11978   0.16666   0.25000   0.00000  Uiso   1.00
Cu30   Cu    0.21355   0.16667   0.25000   0.00000  Uiso   1.00
H31    H     0.24106   0.03724   0.20250   0.00000  Uiso   1.00
H32    H     0.09122   0.29614   0.29673   0.00000  Uiso   1.00
H33    H     0.12647   0.23869   0.02914   0.00000  Uiso   1.00
N34    N     0.04931   0.16666   0.24998   0.00000  Uiso   1.00
N35    N     0.28402   0.16669   0.25000   0.00000  Uiso   1.00
O36    O     0.12708   0.22678   0.25001   0.00000  Uiso   1.00
O37    O     0.20627   0.22679   0.25001   0.00000  Uiso   1.00
O38    O     0.10775   0.16665   0.32549   0.00000  Uiso   1.00
O39    O     0.18694   0.16666   0.32549   0.00000  Uiso   1.00
O40    O     0.12706   0.10654   0.24999   0.00000  Uiso   1.00
O41    O     0.20625   0.10655   0.24999   0.00000  Uiso   1.00
O42    O     0.14640   0.16667   0.17451   0.00000  Uiso   1.00
O43    O     0.22559   0.16668   0.17451   0.00000  Uiso   1.00
O44    O     0.28880   0.14036   0.08749   0.00000  Uiso   1.00
H45    H     0.31883   0.12770   0.06265   0.00000  Uiso   1.00
N46    N     0.07941   0.04391   0.30680   0.00000  Uiso   1.00
H47    H     0.06970   0.03502   0.34569   0.00000  Uiso   1.00
H48    H     0.05155   0.03493   0.29165   0.00000  Uiso   1.00
N49    N     0.26539   0.22575   0.31045   0.00000  Uiso   1.00
H50    H     0.26415   0.22287   0.34947   0.00000  Uiso   1.00
H51    H     0.27800   0.25517   0.29891   0.00000  Uiso   1.00
O52    O     0.02783   0.22731   0.30811   0.00000  Uiso   1.00
H53    H     0.05649   0.21830   0.31705   0.00000  Uiso   1.00
O54    O     0.06139   0.10432   0.19475   0.00000  Uiso   1.00
H55    H     0.09503   0.11374   0.18091   0.00000  Uiso   1.00
N56    N     0.30081   0.10604   0.19210   0.00000  Uiso   1.00
H57    H     0.30631   0.07745   0.20620   0.00000  Uiso   1.00
H58    H     0.32350   0.10672   0.15328   0.00000  Uiso   1.00
O59    O     0.26268   0.09074   0.41744   0.00000  Uiso   1.00
H60    H     0.26835   0.08842   0.37909   0.00000  Uiso   1.00
O61    O     0.30925   0.12098   0.48059   0.00000  Uiso   1.00
H62    H     0.31821   0.13171   0.44484   0.00000  Uiso   1.00
O63    O     0.13362   0.19918   0.09357   0.00000  Uiso   1.00
H64    H     0.14113   0.22057   0.11719   0.00000  Uiso   1.00
O65    O     0.04765   0.20889   0.41296   0.00000  Uiso   1.00
H66    H     0.03926   0.18240   0.39865   0.00000  Uiso   1.00
O67    O     0.05180   0.25556   0.49635   0.00000  Uiso   1.00
H68    H     0.05693   0.26889   0.02799   0.00000  Uiso   1.00
O69    O     0.18047   0.09861   0.38119   0.00000  Uiso   1.00
H70    H     0.19432   0.07130   0.38470   0.00000  Uiso   1.00
O71    O     0.25161   0.28907   0.19499   0.00000  Uiso   1.00
H72    H     0.27814   0.30850   0.17907   0.00000  Uiso   1.00
C73    C     0.50013   0.24581   0.24957   0.00000  Uiso   1.00
C74    C     0.48774   0.18193   0.48331   0.00000  Uiso   1.00
C75    C     0.48908   0.16031   0.43611   0.00000  Uiso   1.00
C76    C     0.51942   0.16922   0.01140   0.00000  Uiso   1.00
C77    C     0.55984   0.14282   0.48549   0.00000  Uiso   1.00
C78    C     0.56034   0.12060   0.43899   0.00000  Uiso   1.00
C79    C     0.52175   0.12646   0.41787   0.00000  Uiso   1.00
C80    C     0.51039   0.17986   0.06527   0.00000  Uiso   1.00
C81    C     0.58814   0.14817   0.06228   0.00000  Uiso   1.00
C82    C     0.45728   0.17282   0.40823   0.00000  Uiso   1.00
C83    C     0.54320   0.31122   0.22274   0.00000  Uiso   1.00
C84    C     0.47333   0.16707   0.35032   0.00000  Uiso   1.00
C85    C     0.54214   0.02091   0.22394   0.00000  Uiso   1.00
C86    C     0.49933   0.04284   0.25116   0.00000  Uiso   1.00
C87    C     0.45655   0.02185   0.27748   0.00000  Uiso   1.00
C88    C     0.45735   0.31230   0.27596   0.00000  Uiso   1.00
C89    C     0.50035   0.29042   0.24914   0.00000  Uiso   1.00
C90    C     0.63301   0.19588   0.27864   0.00000  Uiso   1.00
C91    C     0.34899   0.19623   0.27853   0.00000  Uiso   1.00
C92    C     0.36573   0.13668   0.22221   0.00000  Uiso   1.00
C93    C     0.64986   0.13709   0.22210   0.00000  Uiso   1.00
C94    C     0.49975   0.08751   0.25067   0.00000  Uiso   1.00
C95    C     0.52657   0.16716   0.14967   0.00000  Uiso   1.00
C96    C     0.59730   0.13735   0.00872   0.00000  Uiso   1.00
C97    C     0.54276   0.16612   0.09147   0.00000  Uiso   1.00
C98    C     0.41842   0.20098   0.43298   0.00000  Uiso   1.00
C99    C     0.41958   0.22441   0.47701   0.00000  Uiso   1.00
C100   C     0.45610   0.21662   0.49965   0.00000  Uiso   1.00
Cu101  Cu    0.45311   0.16666   0.25000   0.00000  Uiso   1.00
Cu102  Cu    0.54689   0.16667   0.25000   0.00000  Uiso   1.00
H103   H     0.57440   0.03724   0.20250   0.00000  Uiso   1.00
H104   H     0.42455   0.29614   0.29673   0.00000  Uiso   1.00
H105   H     0.45980   0.23869   0.02914   0.00000  Uiso   1.00
N106   N     0.38265   0.16666   0.24998   0.00000  Uiso   1.00
N107   N     0.61735   0.16669   0.25000   0.00000  Uiso   1.00
O108   O     0.46042   0.22678   0.25001   0.00000  Uiso   1.00
O109   O     0.53961   0.22679   0.25001   0.00000  Uiso   1.00
O110   O     0.44108   0.16665   0.32549   0.00000  Uiso   1.00
O111   O     0.52027   0.16666   0.32549   0.00000  Uiso   1.00
O112   O     0.46039   0.10654   0.24999   0.00000  Uiso   1.00
O113   O     0.53958   0.10655   0.24999   0.00000  Uiso   1.00
O114   O     0.47973   0.16667   0.17451   0.00000  Uiso   1.00
O115   O     0.55892   0.16668   0.17451   0.00000  Uiso   1.00
O116   O     0.62213   0.14036   0.08749   0.00000  Uiso   1.00
H117   H     0.65216   0.12770   0.06265   0.00000  Uiso   1.00
N118   N     0.41274   0.04391   0.30680   0.00000  Uiso   1.00
H119   H     0.40303   0.03502   0.34569   0.00000  Uiso   1.00
H120   H     0.38489   0.03493   0.29165   0.00000  Uiso   1.00
N121   N     0.59873   0.22575   0.31045   0.00000  Uiso   1.00
H122   H     0.59748   0.22287   0.34947   0.00000  Uiso   1.00
H123   H     0.61133   0.25517   0.29891   0.00000  Uiso   1.00
O124   O     0.36116   0.22731   0.30811   0.00000  Uiso   1.00
H125   H     0.38982   0.21830   0.31705   0.00000  Uiso   1.00
O126   O     0.39472   0.10432   0.19475   0.00000  Uiso   1.00
H127   H     0.42836   0.11374   0.18091   0.00000  Uiso   1.00
N128   N     0.63414   0.10604   0.19210   0.00000  Uiso   1.00
H129   H     0.63964   0.07745   0.20620   0.00000  Uiso   1.00
H130   H     0.65683   0.10672   0.15328   0.00000  Uiso   1.00
O131   O     0.59601   0.09074   0.41744   0.00000  Uiso   1.00
H132   H     0.60168   0.08842   0.37909   0.00000  Uiso   1.00
O133   O     0.64258   0.12098   0.48059   0.00000  Uiso   1.00
H134   H     0.65154   0.13171   0.44484   0.00000  Uiso   1.00
O135   O     0.46695   0.19918   0.09357   0.00000  Uiso   1.00
H136   H     0.47447   0.22057   0.11719   0.00000  Uiso   1.00
O137   O     0.38099   0.20889   0.41296   0.00000  Uiso   1.00
H138   H     0.37259   0.18240   0.39865   0.00000  Uiso   1.00
O139   O     0.38513   0.25556   0.49635   0.00000  Uiso   1.00
H140   H     0.39026   0.26889   0.02799   0.00000  Uiso   1.00
O141   O     0.51380   0.09861   0.38119   0.00000  Uiso   1.00
H142   H     0.52765   0.07130   0.38470   0.00000  Uiso   1.00
O143   O     0.58494   0.28907   0.19499   0.00000  Uiso   1.00
H144   H     0.61147   0.30850   0.17907   0.00000  Uiso   1.00
C145   C     0.83347   0.24581   0.24957   0.00000  Uiso   1.00
C146   C     0.82107   0.18193   0.48331   0.00000  Uiso   1.00
C147   C     0.82241   0.16031   0.43611   0.00000  Uiso   1.00
C148   C     0.85276   0.16922   0.01140   0.00000  Uiso   1.00
C149   C     0.89318   0.14282   0.48549   0.00000  Uiso   1.00
C150   C     0.89367   0.12060   0.43899   0.00000  Uiso   1.00
C151   C     0.85508   0.12646   0.41787   0.00000  Uiso   1.00
C152   C     0.84373   0.17986   0.06527   0.00000  Uiso   1.00
C153   C     0.92147   0.14817   0.06228   0.00000  Uiso   1.00
C154   C     0.79061   0.17282   0.40823   0.00000  Uiso   1.00
C155   C     0.87653   0.31122   0.22274   0.00000  Uiso   1.00
C156   C     0.80667   0.16707   0.35032   0.00000  Uiso   1.00
C157   C     0.87548   0.02091   0.22394   0.00000  Uiso   1.00
C158   C     0.83266   0.04284   0.25116   0.00000  Uiso   1.00
C159   C     0.78988   0.02185   0.27748   0.00000  Uiso   1.00
C160   C     0.79068   0.31230   0.27596   0.00000  Uiso   1.00
C161   C     0.83368   0.29042   0.24914   0.00000  Uiso   1.00
C162   C     0.96634   0.19588   0.27864   0.00000  Uiso   1.00
C163   C     0.68233   0.19623   0.27853   0.00000  Uiso   1.00
C164   C     0.69906   0.13668   0.22221   0.00000  Uiso   1.00
C165   C     0.98319   0.13709   0.22210   0.00000  Uiso   1.00
C166   C     0.83308   0.08751   0.25067   0.00000  Uiso   1.00
C167   C     0.85990   0.16716   0.14967   0.00000  Uiso   1.00
C168   C     0.93063   0.13735   0.00872   0.00000  Uiso   1.00
C169   C     0.87610   0.16612   0.09147   0.00000  Uiso   1.00
C170   C     0.75175   0.20098   0.43298   0.00000  Uiso   1.00
C171   C     0.75291   0.22441   0.47701   0.00000  Uiso   1.00
C172   C     0.78943   0.21662   0.49965   0.00000  Uiso   1.00
Cu173  Cu    0.78645   0.16666   0.25000   0.00000  Uiso   1.00
Cu174  Cu    0.88022   0.16667   0.25000   0.00000  Uiso   1.00
H175   H     0.90773   0.03724   0.20250   0.00000  Uiso   1.00
H176   H     0.75789   0.29614   0.29673   0.00000  Uiso   1.00
H177   H     0.79313   0.23869   0.02914   0.00000  Uiso   1.00
N178   N     0.71598   0.16666   0.24998   0.00000  Uiso   1.00
N179   N     0.95069   0.16669   0.25000   0.00000  Uiso   1.00
O180   O     0.79375   0.22678   0.25001   0.00000  Uiso   1.00
O181   O     0.87294   0.22679   0.25001   0.00000  Uiso   1.00
O182   O     0.77441   0.16665   0.32549   0.00000  Uiso   1.00
O183   O     0.85360   0.16666   0.32549   0.00000  Uiso   1.00
O184   O     0.79373   0.10654   0.24999   0.00000  Uiso   1.00
O185   O     0.87292   0.10655   0.24999   0.00000  Uiso   1.00
O186   O     0.81306   0.16667   0.17451   0.00000  Uiso   1.00
O187   O     0.89225   0.16668   0.17451   0.00000  Uiso   1.00
O188   O     0.95546   0.14036   0.08749   0.00000  Uiso   1.00
H189   H     0.98550   0.12770   0.06265   0.00000  Uiso   1.00
N190   N     0.74608   0.04391   0.30680   0.00000  Uiso   1.00
H191   H     0.73637   0.03502   0.34569   0.00000  Uiso   1.00
H192   H     0.71822   0.03493   0.29165   0.00000  Uiso   1.00
N193   N     0.93206   0.22575   0.31045   0.00000  Uiso   1.00
H194   H     0.93082   0.22287   0.34947   0.00000  Uiso   1.00
H195   H     0.94467   0.25517   0.29891   0.00000  Uiso   1.00
O196   O     0.69449   0.22731   0.30811   0.00000  Uiso   1.00
H197   H     0.72316   0.21830   0.31705   0.00000  Uiso   1.00
O198   O     0.72806   0.10432   0.19475   0.00000  Uiso   1.00
H199   H     0.76169   0.11374   0.18091   0.00000  Uiso   1.00
N200   N     0.96748   0.10604   0.19210   0.00000  Uiso   1.00
H201   H     0.97298   0.07745   0.20620   0.00000  Uiso   1.00
H202   H     0.99017   0.10672   0.15328   0.00000  Uiso   1.00
O203   O     0.92935   0.09074   0.41744   0.00000  Uiso   1.00
H204   H     0.93501   0.08842   0.37909   0.00000  Uiso   1.00
O205   O     0.97591   0.12098   0.48059   0.00000  Uiso   1.00
H206   H     0.98488   0.13171   0.44484   0.00000  Uiso   1.00
O207   O     0.80029   0.19918   0.09357   0.00000  Uiso   1.00
H208   H     0.80780   0.22057   0.11719   0.00000  Uiso   1.00
O209   O     0.71432   0.20889   0.41296   0.00000  Uiso   1.00
H210   H     0.70593   0.18240   0.39865   0.00000  Uiso   1.00
O211   O     0.71846   0.25556   0.49635   0.00000  Uiso   1.00
H212   H     0.72360   0.26889   0.02799   0.00000  Uiso   1.00
O213   O     0.84714   0.09861   0.38119   0.00000  Uiso   1.00
H214   H     0.86099   0.07130   0.38470   0.00000  Uiso   1.00
O215   O     0.91828   0.28907   0.19499   0.00000  Uiso   1.00
H216   H     0.94480   0.30850   0.17907   0.00000  Uiso   1.00
C217   C     0.16680   0.57914   0.24957   0.00000  Uiso   1.00
C218   C     0.15441   0.51526   0.48331   0.00000  Uiso   1.00
C219   C     0.15574   0.49365   0.43611   0.00000  Uiso   1.00
C220   C     0.18609   0.50255   0.01140   0.00000  Uiso   1.00
C221   C     0.22651   0.47615   0.48549   0.00000  Uiso   1.00
C222   C     0.22701   0.45393   0.43899   0.00000  Uiso   1.00
C223   C     0.18841   0.45979   0.41787   0.00000  Uiso   1.00
C224   C     0.17706   0.51320   0.06527   0.00000  Uiso   1.00
C225   C     0.25480   0.48150   0.06228   0.00000  Uiso   1.00
C226   C     0.12395   0.50616   0.40823   0.00000  Uiso   1.00
C227   C     0.20987   0.64455   0.22274   0.00000  Uiso   1.00
C228   C     0.14000   0.50040   0.35032   0.00000  Uiso   1.00
C229   C     0.20881   0.35425   0.22394   0.00000  Uiso   1.00
C230   C     0.16599   0.37618   0.25116   0.00000  Uiso   1.00
C231   C     0.12322   0.35518   0.27748   0.00000  Uiso   1.00
C232   C     0.12401   0.64564   0.27596   0.00000  Uiso   1.00
C233   C     0.16702   0.62375   0.24914   0.00000  Uiso   1.00
C234   C     0.29967   0.52922   0.27864   0.00000  Uiso   1.00
C235   C     0.01566   0.52956   0.27853   0.00000  Uiso   1.00
C236   C     0.03240   0.47001   0.22221   0.00000  Uiso   1.00
C237   C     0.31652   0.47042   0.22210   0.00000  Uiso   1.00
C238   C     0.16642   0.42085   0.25067   0.00000  Uiso   1.00
C239   C     0.19323   0.50049   0.14967   0.00000  Uiso   1.00
C240   C     0.26397   0.47068   0.00872   0.00000  Uiso   1.00
C241   C     0.20943   0.49945   0.09147   0.00000  Uiso   1.00
C242   C     0.08508   0.53431   0.43298   0.00000  Uiso   1.00
C243   C     0.08625   0.55775   0.47701   0.00000  Uiso   1.00
C244   C     0.12277   0.54996   0.49965   0.00000  Uiso   1.00
Cu245  Cu    0.11978   0.49999   0.25000   0.00000  Uiso   1.00
Cu246  Cu    0.21355   0.50001   0.25000   0.00000  Uiso   1.00
H247   H     0.24106   0.37058   0.20250   0.00000  Uiso   1.00
H248   H     0.09122   0.62947   0.29673   0.00000  Uiso   1.00
H249   H     0.12647   0.57202   0.02914   0.00000  Uiso   1.00
N250   N     0.04931   0.49999   0.24998   0.00000  Uiso   1.00
N251   N     0.28402   0.50002   0.25000   0.00000  Uiso   1.00
O252   O     0.12708   0.56011   0.25001   0.00000  Uiso   1.00
O253   O     0.20627   0.56012   0.25001   0.00000  Uiso   1.00
O254   O     0.10775   0.49998   0.32549   0.00000  Uiso   1.00
O255   O     0.18694   0.49999   0.32549   0.00000  Uiso   1.00
O256   O     0.12706   0.43988   0.24999   0.00000  Uiso   1.00
O257   O     0.20625   0.43989   0.24999   0.00000  Uiso   1.00
O258   O     0.14640   0.50001   0.17451   0.00000  Uiso   1.00
O259   O     0.22559   0.50002   0.17451   0.00000  Uiso   1.00
O260   O     0.28880   0.47369   0.08749   0.00000  Uiso   1.00
H261   H     0.31883   0.46103   0.06265   0.00000  Uiso   1.00
N262   N     0.07941   0.37724   0.30680   0.00000  Uiso   1.00
H263   H     0.06970   0.36836   0.34569   0.00000  Uiso   1.00
H264   H     0.05155   0.36826   0.29165   0.00000  Uiso   1.00
N265   N     0.26539   0.55908   0.31045   0.00000  Uiso   1.00
H266   H     0.26415   0.55620   0.34947   0.00000  Uiso   1.00
H267   H     0.27800   0.58851   0.29891   0.00000  Uiso   1.00
O268   O     0.02783   0.56064   0.30811   0.00000  Uiso   1.00
H269   H     0.05649   0.55164   0.31705   0.00000  Uiso   1.00
O270   O     0.06139   0.43766   0.19475   0.00000  Uiso   1.00
H271   H     0.09503   0.44707   0.18091   0.00000  Uiso   1.00
N272   N     0.30081   0.43937   0.19210   0.00000  Uiso   1.00
H273   H     0.30631   0.41078   0.20620   0.00000  Uiso   1.00
H274   H     0.32350   0.44005   0.15328   0.00000  Uiso   1.00
O275   O     0.26268   0.42407   0.41744   0.00000  Uiso   1.00
H276   H     0.26835   0.42175   0.37909   0.00000  Uiso   1.00
O277   O     0.30925   0.45431   0.48059   0.00000  Uiso   1.00
H278   H     0.31821   0.46504   0.44484   0.00000  Uiso   1.00
O279   O     0.13362   0.53251   0.09357   0.00000  Uiso   1.00
H280   H     0.14113   0.55390   0.11719   0.00000  Uiso   1.00
O281   O     0.04765   0.54222   0.41296   0.00000  Uiso   1.00
H282   H     0.03926   0.51573   0.39865   0.00000  Uiso   1.00
O283   O     0.05180   0.58890   0.49635   0.00000  Uiso   1.00
H284   H     0.05693   0.60223   0.02799   0.00000  Uiso   1.00
O285   O     0.18047   0.43194   0.38119   0.00000  Uiso   1.00
H286   H     0.19432   0.40463   0.38470   0.00000  Uiso   1.00
O287   O     0.25161   0.62240   0.19499   0.00000  Uiso   1.00
H288   H     0.27814   0.64184   0.17907   0.00000  Uiso   1.00
C289   C     0.50013   0.57914   0.24957   0.00000  Uiso   1.00
C290   C     0.48774   0.51526   0.48331   0.00000  Uiso   1.00
C291   C     0.48908   0.49365   0.43611   0.00000  Uiso   1.00
C292   C     0.51942   0.50255   0.01140   0.00000  Uiso   1.00
C293   C     0.55984   0.47615   0.48549   0.00000  Uiso   1.00
C294   C     0.56034   0.45393   0.43899   0.00000  Uiso   1.00
C295   C     0.52175   0.45979   0.41787   0.00000  Uiso   1.00
C296   C     0.51039   0.51320   0.06527   0.00000  Uiso   1.00
C297   C     0.58814   0.48150   0.06228   0.00000  Uiso   1.00
C298   C     0.45728   0.50616   0.40823   0.00000  Uiso   1.00
C299   C     0.54320   0.64455   0.22274   0.00000  Uiso   1.00
C300   C     0.47333   0.50040   0.35032   0.00000  Uiso   1.00
C301   C     0.54214   0.35425   0.22394   0.00000  Uiso   1.00
C302   C     0.49933   0.37618   0.25116   0.00000  Uiso   1.00
C303   C     0.45655   0.35518   0.27748   0.00000  Uiso   1.00
C304   C     0.45735   0.64564   0.27596   0.00000  Uiso   1.00
C305   C     0.50035   0.62375   0.24914   0.00000  Uiso   1.00
C306   C     0.63301   0.52922   0.27864   0.00000  Uiso   1.00
C307   C     0.34899   0.52956   0.27853   0.00000  Uiso   1.00
C308   C     0.36573   0.47001   0.22221   0.00000  Uiso   1.00
C309   C     0.64986   0.47042   0.22210   0.00000  Uiso   1.00
C310   C     0.49975   0.42085   0.25067   0.00000  Uiso   1.00
C311   C     0.52657   0.50049   0.14967   0.00000  Uiso   1.00
C312   C     0.59730   0.47068   0.00872   0.00000  Uiso   1.00
C313   C     0.54276   0.49945   0.09147   0.00000  Uiso   1.00
C314   C     0.41842   0.53431   0.43298   0.00000  Uiso   1.00
C315   C     0.41958   0.55775   0.47701   0.00000  Uiso   1.00
C316   C     0.45610   0.54996   0.49965   0.00000  Uiso   1.00
Cu317  Cu    0.45311   0.49999   0.25000   0.00000  Uiso   1.00
Cu318  Cu    0.54689   0.50001   0.25000   0.00000  Uiso   1.00
H319   H     0.57440   0.37058   0.20250   0.00000  Uiso   1.00
H320   H     0.42455   0.62947   0.29673   0.00000  Uiso   1.00
H321   H     0.45980   0.57202   0.02914   0.00000  Uiso   1.00
N322   N     0.38265   0.49999   0.24998   0.00000  Uiso   1.00
N323   N     0.61735   0.50002   0.25000   0.00000  Uiso   1.00
O324   O     0.46042   0.56011   0.25001   0.00000  Uiso   1.00
O325   O     0.53961   0.56012   0.25001   0.00000  Uiso   1.00
O326   O     0.44108   0.49998   0.32549   0.00000  Uiso   1.00
O327   O     0.52027   0.49999   0.32549   0.00000  Uiso   1.00
O328   O     0.46039   0.43988   0.24999   0.00000  Uiso   1.00
O329   O     0.53958   0.43989   0.24999   0.00000  Uiso   1.00
O330   O     0.47973   0.50001   0.17451   0.00000  Uiso   1.00
O331   O     0.55892   0.50002   0.17451   0.00000  Uiso   1.00
O332   O     0.62213   0.47369   0.08749   0.00000  Uiso   1.00
H333   H     0.65216   0.46103   0.06265   0.00000  Uiso   1.00
N334   N     0.41274   0.37724   0.30680   0.00000  Uiso   1.00
H335   H     0.40303   0.36836   0.34569   0.00000  Uiso   1.00
H336   H     0.38489   0.36826   0.29165   0.00000  Uiso   1.00
N337   N     0.59873   0.55908   0.31045   0.00000  Uiso   1.00
H338   H     0.59748   0.55620   0.34947   0.00000  Uiso   1.00
H339   H     0.61133   0.58851   0.29891   0.00000  Uiso   1.00
O340   O     0.36116   0.56064   0.30811   0.00000  Uiso   1.00
H341   H     0.38982   0.55164   0.31705   0.00000  Uiso   1.00
O342   O     0.39472   0.43766   0.19475   0.00000  Uiso   1.00
H343   H     0.42836   0.44707   0.18091   0.00000  Uiso   1.00
N344   N     0.63414   0.43937   0.19210   0.00000  Uiso   1.00
H345   H     0.63964   0.41078   0.20620   0.00000  Uiso   1.00
H346   H     0.65683   0.44005   0.15328   0.00000  Uiso   1.00
O347   O     0.59601   0.42407   0.41744   0.00000  Uiso   1.00
H348   H     0.60168   0.42175   0.37909   0.00000  Uiso   1.00
O349   O     0.64258   0.45431   0.48059   0.00000  Uiso   1.00
H350   H     0.65154   0.46504   0.44484   0.00000  Uiso   1.00
O351   O     0.46695   0.53251   0.09357   0.00000  Uiso   1.00
H352   H     0.47447   0.55390   0.11719   0.00000  Uiso   1.00
O353   O     0.38099   0.54222   0.41296   0.00000  Uiso   1.00
H354   H     0.37259   0.51573   0.39865   0.00000  Uiso   1.00
O355   O     0.38513   0.58890   0.49635   0.00000  Uiso   1.00
H356   H     0.39026   0.60223   0.02799   0.00000  Uiso   1.00
O357   O     0.51380   0.43194   0.38119   0.00000  Uiso   1.00
H358   H     0.52765   0.40463   0.38470   0.00000  Uiso   1.00
O359   O     0.58494   0.62240   0.19499   0.00000  Uiso   1.00
H360   H     0.61147   0.64184   0.17907   0.00000  Uiso   1.00
C361   C     0.83347   0.57914   0.24957   0.00000  Uiso   1.00
C362   C     0.82107   0.51526   0.48331   0.00000  Uiso   1.00
C363   C     0.82241   0.49365   0.43611   0.00000  Uiso   1.00
C364   C     0.85276   0.50255   0.01140   0.00000  Uiso   1.00
C365   C     0.89318   0.47615   0.48549   0.00000  Uiso   1.00
C366   C     0.89367   0.45393   0.43899   0.00000  Uiso   1.00
C367   C     0.85508   0.45979   0.41787   0.00000  Uiso   1.00
C368   C     0.84373   0.51320   0.06527   0.00000  Uiso   1.00
C369   C     0.92147   0.48150   0.06228   0.00000  Uiso   1.00
C370   C     0.79061   0.50616   0.40823   0.00000  Uiso   1.00
C371   C     0.87653   0.64455   0.22274   0.00000  Uiso   1.00
C372   C     0.80667   0.50040   0.35032   0.00000  Uiso   1.00
C373   C     0.87548   0.35425   0.22394   0.00000  Uiso   1.00
C374   C     0.83266   0.37618   0.25116   0.00000  Uiso   1.00
C375   C     0.78988   0.35518   0.27748   0.00000  Uiso   1.00
C376   C     0.79068   0.64564   0.27596   0.00000  Uiso   1.00
C377   C     0.83368   0.62375   0.24914   0.00000  Uiso   1.00
C378   C     0.96634   0.52922   0.27864   0.00000  Uiso   1.00
C379   C     0.68233   0.52956   0.27853   0.00000  Uiso   1.00
C380   C     0.69906   0.47001   0.22221   0.00000  Uiso   1.00
C381   C     0.98319   0.47042   0.22210   0.00000  Uiso   1.00
C382   C     0.83308   0.42085   0.25067   0.00000  Uiso   1.00
C383   C     0.85990   0.50049   0.14967   0.00000  Uiso   1.00
C384   C     0.93063   0.47068   0.00872   0.00000  Uiso   1.00
C385   C     0.87610   0.49945   0.09147   0.00000  Uiso   1.00
C386   C     0.75175   0.53431   0.43298   0.00000  Uiso   1.00
C387   C     0.75291   0.55775   0.47701   0.00000  Uiso   1.00
C388   C     0.78943   0.54996   0.49965   0.00000  Uiso   1.00
Cu389  Cu    0.78645   0.49999   0.25000   0.00000  Uiso   1.00
Cu390  Cu    0.88022   0.50001   0.25000   0.00000  Uiso   1.00
H391   H     0.90773   0.37058   0.20250   0.00000  Uiso   1.00
H392   H     0.75789   0.62947   0.29673   0.00000  Uiso   1.00
H393   H     0.79313   0.57202   0.02914   0.00000  Uiso   1.00
N394   N     0.71598   0.49999   0.24998   0.00000  Uiso   1.00
N395   N     0.95069   0.50002   0.25000   0.00000  Uiso   1.00
O396   O     0.79375   0.56011   0.25001   0.00000  Uiso   1.00
O397   O     0.87294   0.56012   0.25001   0.00000  Uiso   1.00
O398   O     0.77441   0.49998   0.32549   0.00000  Uiso   1.00
O399   O     0.85360   0.49999   0.32549   0.00000  Uiso   1.00
O400   O     0.79373   0.43988   0.24999   0.00000  Uiso   1.00
O401   O     0.87292   0.43989   0.24999   0.00000  Uiso   1.00
O402   O     0.81306   0.50001   0.17451   0.00000  Uiso   1.00
O403   O     0.89225   0.50002   0.17451   0.00000  Uiso   1.00
O404   O     0.95546   0.47369   0.08749   0.00000  Uiso   1.00
H405   H     0.98550   0.46103   0.06265   0.00000  Uiso   1.00
N406   N     0.74608   0.37724   0.30680   0.00000  Uiso   1.00
H407   H     0.73637   0.36836   0.34569   0.00000  Uiso   1.00
H408   H     0.71822   0.36826   0.29165   0.00000  Uiso   1.00
N409   N     0.93206   0.55908   0.31045   0.00000  Uiso   1.00
H410   H     0.93082   0.55620   0.34947   0.00000  Uiso   1.00
H411   H     0.94467   0.58851   0.29891   0.00000  Uiso   1.00
O412   O     0.69449   0.56064   0.30811   0.00000  Uiso   1.00
H413   H     0.72316   0.55164   0.31705   0.00000  Uiso   1.00
O414   O     0.72806   0.43766   0.19475   0.00000  Uiso   1.00
H415   H     0.76169   0.44707   0.18091   0.00000  Uiso   1.00
N416   N     0.96748   0.43937   0.19210   0.00000  Uiso   1.00
H417   H     0.97298   0.41078   0.20620   0.00000  Uiso   1.00
H418   H     0.99017   0.44005   0.15328   0.00000  Uiso   1.00
O419   O     0.92935   0.42407   0.41744   0.00000  Uiso   1.00
H420   H     0.93501   0.42175   0.37909   0.00000  Uiso   1.00
O421   O     0.97591   0.45431   0.48059   0.00000  Uiso   1.00
H422   H     0.98488   0.46504   0.44484   0.00000  Uiso   1.00
O423   O     0.80029   0.53251   0.09357   0.00000  Uiso   1.00
H424   H     0.80780   0.55390   0.11719   0.00000  Uiso   1.00
O425   O     0.71432   0.54222   0.41296   0.00000  Uiso   1.00
H426   H     0.70593   0.51573   0.39865   0.00000  Uiso   1.00
O427   O     0.71846   0.58890   0.49635   0.00000  Uiso   1.00
H428   H     0.72360   0.60223   0.02799   0.00000  Uiso   1.00
O429   O     0.84714   0.43194   0.38119   0.00000  Uiso   1.00
H430   H     0.86099   0.40463   0.38470   0.00000  Uiso   1.00
O431   O     0.91828   0.62240   0.19499   0.00000  Uiso   1.00
H432   H     0.94480   0.64184   0.17907   0.00000  Uiso   1.00
C433   C     0.16680   0.91247   0.24957   0.00000  Uiso   1.00
C434   C     0.15441   0.84860   0.48331   0.00000  Uiso   1.00
C435   C     0.15574   0.82698   0.43611   0.00000  Uiso   1.00
C436   C     0.18609   0.83588   0.01140   0.00000  Uiso   1.00
C437   C     0.22651   0.80948   0.48549   0.00000  Uiso   1.00
C438   C     0.22701   0.78726   0.43899   0.00000  Uiso   1.00
C439   C     0.18841   0.79312   0.41787   0.00000  Uiso   1.00
C440   C     0.17706   0.84653   0.06527   0.00000  Uiso   1.00
C441   C     0.25480   0.81483   0.06228   0.00000  Uiso   1.00
C442   C     0.12395   0.83949   0.40823   0.00000  Uiso   1.00
C443   C     0.20987   0.97789   0.22274   0.00000  Uiso   1.00
C444   C     0.14000   0.83374   0.35032   0.00000  Uiso   1.00
C445   C     0.20881   0.68758   0.22394   0.00000  Uiso   1.00
C446   C     0.16599   0.70951   0.25116   0.00000  Uiso   1.00
C447   C     0.12322   0.68852   0.27748   0.00000  Uiso   1.00
C448   C     0.12401   0.97897   0.27596   0.00000  Uiso   1.00
C449   C     0.16702   0.95709   0.24914   0.00000  Uiso   1.00
C450   C     0.29967   0.86255   0.27864   0.00000  Uiso   1.00
C451   C     0.01566   0.86289   0.27853   0.00000  Uiso   1.00
C452   C     0.03240   0.80335   0.22221   0.00000  Uiso   1.00
C453   C     0.31652   0.80376   0.22210   0.00000  Uiso   1.00
C454   C     0.16642   0.75418   0.25067   0.00000  Uiso   1.00
C455   C     0.19323   0.83383   0.14967   0.00000  Uiso   1.00
C456   C     0.26397   0.80402   0.00872   0.00000  Uiso   1.00
C457   C     0.20943   0.83278   0.09147   0.00000  Uiso   1.00
C458   C     0.08508   0.86764   0.43298   0.00000  Uiso   1.00
C459   C     0.08625   0.89108   0.47701   0.00000  Uiso   1.00
C460   C     0.12277   0.88329   0.49965   0.00000  Uiso   1.00
Cu461  Cu    0.11978   0.83333   0.25000   0.00000  Uiso   1.00
Cu462  Cu    0.21355   0.83334   0.25000   0.00000  Uiso   1.00
H463   H     0.24106   0.70391   0.20250   0.00000  Uiso   1.00
H464   H     0.09122   0.96281   0.29673   0.00000  Uiso   1.00
H465   H     0.12647   0.90536   0.02914   0.00000  Uiso   1.00
N466   N     0.04931   0.83332   0.24998   0.00000  Uiso   1.00
N467   N     0.28402   0.83335   0.25000   0.00000  Uiso   1.00
O468   O     0.12708   0.89345   0.25001   0.00000  Uiso   1.00
O469   O     0.20627   0.89346   0.25001   0.00000  Uiso   1.00
O470   O     0.10775   0.83332   0.32549   0.00000  Uiso   1.00
O471   O     0.18694   0.83333   0.32549   0.00000  Uiso   1.00
O472   O     0.12706   0.77321   0.24999   0.00000  Uiso   1.00
O473   O     0.20625   0.77322   0.24999   0.00000  Uiso   1.00
O474   O     0.14640   0.83334   0.17451   0.00000  Uiso   1.00
O475   O     0.22559   0.83335   0.17451   0.00000  Uiso   1.00
O476   O     0.28880   0.80703   0.08749   0.00000  Uiso   1.00
H477   H     0.31883   0.79436   0.06265   0.00000  Uiso   1.00
N478   N     0.07941   0.71057   0.30680   0.00000  Uiso   1.00
H479   H     0.06970   0.70169   0.34569   0.00000  Uiso   1.00
H480   H     0.05155   0.70160   0.29165   0.00000  Uiso   1.00
N481   N     0.26539   0.89241   0.31045   0.00000  Uiso   1.00
H482   H     0.26415   0.88953   0.34947   0.00000  Uiso   1.00
H483   H     0.27800   0.92184   0.29891   0.00000  Uiso   1.00
O484   O     0.02783   0.89397   0.30811   0.00000  Uiso   1.00
H485   H     0.05649   0.88497   0.31705   0.00000  Uiso   1.00
O486   O     0.06139   0.77099   0.19475   0.00000  Uiso   1.00
H487   H     0.09503   0.78041   0.18091   0.00000  Uiso   1.00
N488   N     0.30081   0.77271   0.19210   0.00000  Uiso   1.00
H489   H     0.30631   0.74412   0.20620   0.00000  Uiso   1.00
H490   H     0.32350   0.77338   0.15328   0.00000  Uiso   1.00
O491   O     0.26268   0.75741   0.41744   0.00000  Uiso   1.00
H492   H     0.26835   0.75509   0.37909   0.00000  Uiso   1.00
O493   O     0.30925   0.78765   0.48059   0.00000  Uiso   1.00
H494   H     0.31821   0.79837   0.44484   0.00000  Uiso   1.00
O495   O     0.13362   0.86584   0.09357   0.00000  Uiso   1.00
H496   H     0.14113   0.88723   0.11719   0.00000  Uiso   1.00
O497   O     0.04765   0.87555   0.41296   0.00000  Uiso   1.00
H498   H     0.03926   0.84907   0.39865   0.00000  Uiso   1.00
O499   O     0.05180   0.92223   0.49635   0.00000  Uiso   1.00
H500   H     0.05693   0.93556   0.02799   0.00000  Uiso   1.00
O501   O     0.18047   0.76527   0.38119   0.00000  Uiso   1.00
H502   H     0.19432   0.73797   0.38470   0.00000  Uiso   1.00
O503   O     0.25161   0.95573   0.19499   0.00000  Uiso   1.00
H504   H     0.27814   0.97517   0.17907   0.00000  Uiso   1.00
C505   C     0.50013   0.91247   0.24957   0.00000  Uiso   1.00
C506   C     0.48774   0.84860   0.48331   0.00000  Uiso   1.00
C507   C     0.48908   0.82698   0.43611   0.00000  Uiso   1.00
C508   C     0.51942   0.83588   0.01140   0.00000  Uiso   1.00
C509   C     0.55984   0.80948   0.48549   0.00000  Uiso   1.00
C510   C     0.56034   0.78726   0.43899   0.00000  Uiso   1.00
C511   C     0.52175   0.79312   0.41787   0.00000  Uiso   1.00
C512   C     0.51039   0.84653   0.06527   0.00000  Uiso   1.00
C513   C     0.58814   0.81483   0.06228   0.00000  Uiso   1.00
C514   C     0.45728   0.83949   0.40823   0.00000  Uiso   1.00
C515   C     0.54320   0.97789   0.22274   0.00000  Uiso   1.00
C516   C     0.47333   0.83374   0.35032   0.00000  Uiso   1.00
C517   C     0.54214   0.68758   0.22394   0.00000  Uiso   1.00
C518   C     0.49933   0.70951   0.25116   0.00000  Uiso   1.00
C519   C     0.45655   0.68852   0.27748   0.00000  Uiso   1.00
C520   C     0.45735   0.97897   0.27596   0.00000  Uiso   1.00
C521   C     0.50035   0.95709   0.24914   0.00000  Uiso   1.00
C522   C     0.63301   0.86255   0.27864   0.00000  Uiso   1.00
C523   C     0.34899   0.86289   0.27853   0.00000  Uiso   1.00
C524   C     0.36573   0.80335   0.22221   0.00000  Uiso   1.00
C525   C     0.64986   0.80376   0.22210   0.00000  Uiso   1.00
C526   C     0.49975   0.75418   0.25067   0.00000  Uiso   1.00
C527   C     0.52657   0.83383   0.14967   0.00000  Uiso   1.00
C528   C     0.59730   0.80402   0.00872   0.00000  Uiso   1.00
C529   C     0.54276   0.83278   0.09147   0.00000  Uiso   1.00
C530   C     0.41842   0.86764   0.43298   0.00000  Uiso   1.00
C531   C     0.41958   0.89108   0.47701   0.00000  Uiso   1.00
C532   C     0.45610   0.88329   0.49965   0.00000  Uiso   1.00
Cu533  Cu    0.45311   0.83333   0.25000   0.00000  Uiso   1.00
Cu534  Cu    0.54689   0.83334   0.25000   0.00000  Uiso   1.00
H535   H     0.57440   0.70391   0.20250   0.00000  Uiso   1.00
H536   H     0.42455   0.96281   0.29673   0.00000  Uiso   1.00
H537   H     0.45980   0.90536   0.02914   0.00000  Uiso   1.00
N538   N     0.38265   0.83332   0.24998   0.00000  Uiso   1.00
N539   N     0.61735   0.83335   0.25000   0.00000  Uiso   1.00
O540   O     0.46042   0.89345   0.25001   0.00000  Uiso   1.00
O541   O     0.53961   0.89346   0.25001   0.00000  Uiso   1.00
O542   O     0.44108   0.83332   0.32549   0.00000  Uiso   1.00
O543   O     0.52027   0.83333   0.32549   0.00000  Uiso   1.00
O544   O     0.46039   0.77321   0.24999   0.00000  Uiso   1.00
O545   O     0.53958   0.77322   0.24999   0.00000  Uiso   1.00
O546   O     0.47973   0.83334   0.17451   0.00000  Uiso   1.00
O547   O     0.55892   0.83335   0.17451   0.00000  Uiso   1.00
O548   O     0.62213   0.80703   0.08749   0.00000  Uiso   1.00
H549   H     0.65216   0.79436   0.06265   0.00000  Uiso   1.00
N550   N     0.41274   0.71057   0.30680   0.00000  Uiso   1.00
H551   H     0.40303   0.70169   0.34569   0.00000  Uiso   1.00
H552   H     0.38489   0.70160   0.29165   0.00000  Uiso   1.00
N553   N     0.59873   0.89241   0.31045   0.00000  Uiso   1.00
H554   H     0.59748   0.88953   0.34947   0.00000  Uiso   1.00
H555   H     0.61133   0.92184   0.29891   0.00000  Uiso   1.00
O556   O     0.36116   0.89397   0.30811   0.00000  Uiso   1.00
H557   H     0.38982   0.88497   0.31705   0.00000  Uiso   1.00
O558   O     0.39472   0.77099   0.19475   0.00000  Uiso   1.00
H559   H     0.42836   0.78041   0.18091   0.00000  Uiso   1.00
N560   N     0.63414   0.77271   0.19210   0.00000  Uiso   1.00
H561   H     0.63964   0.74412   0.20620   0.00000  Uiso   1.00
H562   H     0.65683   0.77338   0.15328   0.00000  Uiso   1.00
O563   O     0.59601   0.75741   0.41744   0.00000  Uiso   1.00
H564   H     0.60168   0.75509   0.37909   0.00000  Uiso   1.00
O565   O     0.64258   0.78765   0.48059   0.00000  Uiso   1.00
H566   H     0.65154   0.79837   0.44484   0.00000  Uiso   1.00
O567   O     0.46695   0.86584   0.09357   0.00000  Uiso   1.00
H568   H     0.47447   0.88723   0.11719   0.00000  Uiso   1.00
O569   O     0.38099   0.87555   0.41296   0.00000  Uiso   1.00
H570   H     0.37259   0.84907   0.39865   0.00000  Uiso   1.00
O571   O     0.38513   0.92223   0.49635   0.00000  Uiso   1.00
H572   H     0.39026   0.93556   0.02799   0.00000  Uiso   1.00
O573   O     0.51380   0.76527   0.38119   0.00000  Uiso   1.00
H574   H     0.52765   0.73797   0.38470   0.00000  Uiso   1.00
O575   O     0.58494   0.95573   0.19499   0.00000  Uiso   1.00
H576   H     0.61147   0.97517   0.17907   0.00000  Uiso   1.00
C577   C     0.83347   0.91247   0.24957   0.00000  Uiso   1.00
C578   C     0.82107   0.84860   0.48331   0.00000  Uiso   1.00
C579   C     0.82241   0.82698   0.43611   0.00000  Uiso   1.00
C580   C     0.85276   0.83588   0.01140   0.00000  Uiso   1.00
C581   C     0.89318   0.80948   0.48549   0.00000  Uiso   1.00
C582   C     0.89367   0.78726   0.43899   0.00000  Uiso   1.00
C583   C     0.85508   0.79312   0.41787   0.00000  Uiso   1.00
C584   C     0.84373   0.84653   0.06527   0.00000  Uiso   1.00
C585   C     0.92147   0.81483   0.06228   0.00000  Uiso   1.00
C586   C     0.79061   0.83949   0.40823   0.00000  Uiso   1.00
C587   C     0.87653   0.97789   0.22274   0.00000  Uiso   1.00
C588   C     0.80667   0.83374   0.35032   0.00000  Uiso   1.00
C589   C     0.87548   0.68758   0.22394   0.00000  Uiso   1.00
C590   C     0.83266   0.70951   0.25116   0.00000  Uiso   1.00
C591   C     0.78988   0.68852   0.27748   0.00000  Uiso   1.00
C592   C     0.79068   0.97897   0.27596   0.00000  Uiso   1.00
C593   C     0.83368   0.95709   0.24914   0.00000  Uiso   1.00
C594   C     0.96634   0.86255   0.27864   0.00000  Uiso   1.00
C595   C     0.68233   0.86289   0.27853   0.00000  Uiso   1.00
C596   C     0.69906   0.80335   0.22221   0.00000  Uiso   1.00
C597   C     0.98319   0.80376   0.22210   0.00000  Uiso   1.00
C598   C     0.83308   0.75418   0.25067   0.00000  Uiso   1.00
C599   C     0.85990   0.83383   0.14967   0.00000  Uiso   1.00
C600   C     0.93063   0.80402   0.00872   0.00000  Uiso   1.00
C601   C     0.87610   0.83278   0.09147   0.00000  Uiso   1.00
C602   C     0.75175   0.86764   0.43298   0.00000  Uiso   1.00
C603   C     0.75291   0.89108   0.47701   0.00000  Uiso   1.00
C604   C     0.78943   0.88329   0.49965   0.00000  Uiso   1.00
Cu605  Cu    0.78645   0.83333   0.25000   0.00000  Uiso   1.00
Cu606  Cu    0.88022   0.83334   0.25000   0.00000  Uiso   1.00
H607   H     0.90773   0.70391   0.20250   0.00000  Uiso   1.00
H608   H     0.75789   0.96281   0.29673   0.00000  Uiso   1.00
H609   H     0.79313   0.90536   0.02914   0.00000  Uiso   1.00
N610   N     0.71598   0.83332   0.24998   0.00000  Uiso   1.00
N611   N     0.95069   0.83335   0.25000   0.00000  Uiso   1.00
O612   O     0.79375   0.89345   0.25001   0.00000  Uiso   1.00
O613   O     0.87294   0.89346   0.25001   0.00000  Uiso   1.00
O614   O     0.77441   0.83332   0.32549   0.00000  Uiso   1.00
O615   O     0.85360   0.83333   0.32549   0.00000  Uiso   1.00
O616   O     0.79373   0.77321   0.24999   0.00000  Uiso   1.00
O617   O     0.87292   0.77322   0.24999   0.00000  Uiso   1.00
O618   O     0.81306   0.83334   0.17451   0.00000  Uiso   1.00
O619   O     0.89225   0.83335   0.17451   0.00000  Uiso   1.00
O620   O     0.95546   0.80703   0.08749   0.00000  Uiso   1.00
H621   H     0.98550   0.79436   0.06265   0.00000  Uiso   1.00
N622   N     0.74608   0.71057   0.30680   0.00000  Uiso   1.00
H623   H     0.73637   0.70169   0.34569   0.00000  Uiso   1.00
H624   H     0.71822   0.70160   0.29165   0.00000  Uiso   1.00
N625   N     0.93206   0.89241   0.31045   0.00000  Uiso   1.00
H626   H     0.93082   0.88953   0.34947   0.00000  Uiso   1.00
H627   H     0.94467   0.92184   0.29891   0.00000  Uiso   1.00
O628   O     0.69449   0.89397   0.30811   0.00000  Uiso   1.00
H629   H     0.72316   0.88497   0.31705   0.00000  Uiso   1.00
O630   O     0.72806   0.77099   0.19475   0.00000  Uiso   1.00
H631   H     0.76169   0.78041   0.18091   0.00000  Uiso   1.00
N632   N     0.96748   0.77271   0.19210   0.00000  Uiso   1.00
H633   H     0.97298   0.74412   0.20620   0.00000  Uiso   1.00
H634   H     0.99017   0.77338   0.15328   0.00000  Uiso   1.00
O635   O     0.92935   0.75741   0.41744   0.00000  Uiso   1.00
H636   H     0.93501   0.75509   0.37909   0.00000  Uiso   1.00
O637   O     0.97591   0.78765   0.48059   0.00000  Uiso   1.00
H638   H     0.98488   0.79837   0.44484   0.00000  Uiso   1.00
O639   O     0.80029   0.86584   0.09357   0.00000  Uiso   1.00
H640   H     0.80780   0.88723   0.11719   0.00000  Uiso   1.00
O641   O     0.71432   0.87555   0.41296   0.00000  Uiso   1.00
H642   H     0.70593   0.84907   0.39865   0.00000  Uiso   1.00
O643   O     0.71846   0.92223   0.49635   0.00000  Uiso   1.00
H644   H     0.72360   0.93556   0.02799   0.00000  Uiso   1.00
O645   O     0.84714   0.76527   0.38119   0.00000  Uiso   1.00
H646   H     0.86099   0.73797   0.38470   0.00000  Uiso   1.00
O647   O     0.91828   0.95573   0.19499   0.00000  Uiso   1.00
H648   H     0.94480   0.97517   0.17907   0.00000  Uiso   1.00
C649   C     0.16680   0.24581   0.74957   0.00000  Uiso   1.00
C650   C     0.15441   0.18193   0.98331   0.00000  Uiso   1.00
C651   C     0.15574   0.16031   0.93611   0.00000  Uiso   1.00
C652   C     0.18609   0.16922   0.51140   0.00000  Uiso   1.00
C653   C     0.22651   0.14282   0.98549   0.00000  Uiso   1.00
C654   C     0.22701   0.12060   0.93899   0.00000  Uiso   1.00
C655   C     0.18841   0.12646   0.91787   0.00000  Uiso   1.00
C656   C     0.17706   0.17986   0.56527   0.00000  Uiso   1.00
C657   C     0.25480   0.14817   0.56228   0.00000  Uiso   1.00
C658   C     0.12395   0.17282   0.90823   0.00000  Uiso   1.00
C659   C     0.20987   0.31122   0.72274   0.00000  Uiso   1.00
C660   C     0.14000   0.16707   0.85032   0.00000  Uiso   1.00
C661   C     0.20881   0.02091   0.72394   0.00000  Uiso   1.00
C662   C     0.16599   0.04284   0.75116   0.00000  Uiso   1.00
C663   C     0.12322   0.02185   0.77748   0.00000  Uiso   1.00
C664   C     0.12401   0.31230   0.77596   0.00000  Uiso   1.00
C665   C     0.16702   0.29042   0.74914   0.00000  Uiso   1.00
C666   C     0.29967   0.19588   0.77864   0.00000  Uiso   1.00
C667   C     0.01566   0.19623   0.77853   0.00000  Uiso   1.00
C668   C     0.03240   0.13668   0.72221   0.00000  Uiso   1.00
C669   C     0.31652   0.13709   0.72210   0.00000  Uiso   1.00
C670   C     0.16642   0.08751   0.75067   0.00000  Uiso   1.00
C671   C     0.19323   0.16716   0.64967   0.00000  Uiso   1.00
C672   C     0.26397   0.13735   0.50872   0.00000  Uiso   1.00
C673   C     0.20943   0.16612   0.59147   0.00000  Uiso   1.00
C674   C     0.08508   0.20098   0.93298   0.00000  Uiso   1.00
C675   C     0.08625   0.22441   0.97701   0.00000  Uiso   1.00
C676   C     0.12277   0.21662   0.99965   0.00000  Uiso   1.00
Cu677  Cu    0.11978   0.16666   0.75000   0.00000  Uiso   1.00
Cu678  Cu    0.21355   0.16667   0.75000   0.00000  Uiso   1.00
H679   H     0.24106   0.03724   0.70250   0.00000  Uiso   1.00
H680   H     0.09122   0.29614   0.79673   0.00000  Uiso   1.00
H681   H     0.12647   0.23869   0.52914   0.00000  Uiso   1.00
N682   N     0.04931   0.16666   0.74998   0.00000  Uiso   1.00
N683   N     0.28402   0.16669   0.75000   0.00000  Uiso   1.00
O684   O     0.12708   0.22678   0.75001   0.00000  Uiso   1.00
O685   O     0.20627   0.22679   0.75001   0.00000  Uiso   1.00
O686   O     0.10775   0.16665   0.82549   0.00000  Uiso   1.00
O687   O     0.18694   0.16666   0.82549   0.00000  Uiso   1.00
O688   O     0.12706   0.10654   0.74999   0.00000  Uiso   1.00
O689   O     0.20625   0.10655   0.74999   0.00000  Uiso   1.00
O690   O     0.14640   0.16667   0.67451   0.00000  Uiso   1.00
O691   O     0.22559   0.16668   0.67451   0.00000  Uiso   1.00
O692   O     0.28880   0.14036   0.58749   0.00000  Uiso   1.00
H693   H     0.31883   0.12770   0.56265   0.00000  Uiso   1.00
N694   N     0.07941   0.04391   0.80680   0.00000  Uiso   1.00
H695   H     0.06970   0.03502   0.84569   0.00000  Uiso   1.00
H696   H     0.05155   0.03493   0.79165   0.00000  Uiso   1.00
N697   N     0.26539   0.22575   0.81045   0.00000  Uiso   1.00
H698   H     0.26415   0.22287   0.84947   0.00000  Uiso   1.00
H699   H     0.27800   0.25517   0.79891   0.00000  Uiso   1.00
O700   O     0.02783   0.22731   0.80811   0.00000  Uiso   1.00
H701   H     0.05649   0.21830   0.81705   0.00000  Uiso   1.00
O702   O     0.06139   0.10432   0.69475   0.00000  Uiso   1.00
H703   H     0.09503   0.11374   0.68091   0.00000  Uiso   1.00
N704   N     0.30081   0.10604   0.69210   0.00000  Uiso   1.00
H705   H     0.30631   0.07745   0.70620   0.00000  Uiso   1.00
H706   H     0.32350   0.10672   0.65328   0.00000  Uiso   1.00
O707   O     0.26268   0.09074   0.91744   0.00000  Uiso   1.00
H708   H     0.26835   0.08842   0.87909   0.00000  Uiso   1.00
O709   O     0.30925   0.12098   0.98059   0.00000  Uiso   1.00
H710   H     0.31821   0.13171   0.94484   0.00000  Uiso   1.00
O711   O     0.13362   0.19918   0.59357   0.00000  Uiso   1.00
H712   H     0.14113   0.22057   0.61719   0.00000  Uiso   1.00
O713   O     0.04765   0.20889   0.91296   0.00000  Uiso   1.00
H714   H     0.03926   0.18240   0.89865   0.00000  Uiso   1.00
O715   O     0.05180   0.25556   0.99635   0.00000  Uiso   1.00
H716   H     0.05693   0.26889   0.52799   0.00000  Uiso   1.00
O717   O     0.18047   0.09861   0.88119   0.00000  Uiso   1.00
H718   H     0.19432   0.07130   0.88470   0.00000  Uiso   1.00
O719   O     0.25161   0.28907   0.69499   0.00000  Uiso   1.00
H720   H     0.27814   0.30850   0.67907   0.00000  Uiso   1.00
C721   C     0.50013   0.24581   0.74957   0.00000  Uiso   1.00
C722   C     0.48774   0.18193   0.98331   0.00000  Uiso   1.00
C723   C     0.48908   0.16031   0.93611   0.00000  Uiso   1.00
C724   C     0.51942   0.16922   0.51140   0.00000  Uiso   1.00
C725   C     0.55984   0.14282   0.98549   0.00000  Uiso   1.00
C726   C     0.56034   0.12060   0.93899   0.00000  Uiso   1.00
C727   C     0.52175   0.12646   0.91787   0.00000  Uiso   1.00
C728   C     0.51039   0.17986   0.56527   0.00000  Uiso   1.00
C729   C     0.58814   0.14817   0.56228   0.00000  Uiso   1.00
C730   C     0.45728   0.17282   0.90823   0.00000  Uiso   1.00
C731   C     0.54320   0.31122   0.72274   0.00000  Uiso   1.00
C732   C     0.47333   0.16707   0.85032   0.00000  Uiso   1.00
C733   C     0.54214   0.02091   0.72394   0.00000  Uiso   1.00
C734   C     0.49933   0.04284   0.75116   0.00000  Uiso   1.00
C735   C     0.45655   0.02185   0.77748   0.00000  Uiso   1.00
C736   C     0.45735   0.31230   0.77596   0.00000  Uiso   1.00
C737   C     0.50035   0.29042   0.74914   0.00000  Uiso   1.00
C738   C     0.63301   0.19588   0.77864   0.00000  Uiso   1.00
C739   C     0.34899   0.19623   0.77853   0.00000  Uiso   1.00
C740   C     0.36573   0.13668   0.72221   0.00000  Uiso   1.00
C741   C     0.64986   0.13709   0.72210   0.00000  Uiso   1.00
C742   C     0.49975   0.08751   0.75067   0.00000  Uiso   1.00
C743   C     0.52657   0.16716   0.64967   0.00000  Uiso   1.00
C744   C     0.59730   0.13735   0.50872   0.00000  Uiso   1.00
C745   C     0.54276   0.16612   0.59147   0.00000  Uiso   1.00
C746   C     0.41842   0.20098   0.93298   0.00000  Uiso   1.00
C747   C     0.41958   0.22441   0.97701   0.00000  Uiso   1.00
C748   C     0.45610   0.21662   0.99965   0.00000  Uiso   1.00
Cu749  Cu    0.45311   0.16666   0.75000   0.00000  Uiso   1.00
Cu750  Cu    0.54689   0.16667   0.75000   0.00000  Uiso   1.00
H751   H     0.57440   0.03724   0.70250   0.00000  Uiso   1.00
H752   H     0.42455   0.29614   0.79673   0.00000  Uiso   1.00
H753   H     0.45980   0.23869   0.52914   0.00000  Uiso   1.00
N754   N     0.38265   0.16666   0.74998   0.00000  Uiso   1.00
N755   N     0.61735   0.16669   0.75000   0.00000  Uiso   1.00
O756   O     0.46042   0.22678   0.75001   0.00000  Uiso   1.00
O757   O     0.53961   0.22679   0.75001   0.00000  Uiso   1.00
O758   O     0.44108   0.16665   0.82549   0.00000  Uiso   1.00
O759   O     0.52027   0.16666   0.82549   0.00000  Uiso   1.00
O760   O     0.46039   0.10654   0.74999   0.00000  Uiso   1.00
O761   O     0.53958   0.10655   0.74999   0.00000  Uiso   1.00
O762   O     0.47973   0.16667   0.67451   0.00000  Uiso   1.00
O763   O     0.55892   0.16668   0.67451   0.00000  Uiso   1.00
O764   O     0.62213   0.14036   0.58749   0.00000  Uiso   1.00
H765   H     0.65216   0.12770   0.56265   0.00000  Uiso   1.00
N766   N     0.41274   0.04391   0.80680   0.00000  Uiso   1.00
H767   H     0.40303   0.03502   0.84569   0.00000  Uiso   1.00
H768   H     0.38489   0.03493   0.79165   0.00000  Uiso   1.00
N769   N     0.59873   0.22575   0.81045   0.00000  Uiso   1.00
H770   H     0.59748   0.22287   0.84947   0.00000  Uiso   1.00
H771   H     0.61133   0.25517   0.79891   0.00000  Uiso   1.00
O772   O     0.36116   0.22731   0.80811   0.00000  Uiso   1.00
H773   H     0.38982   0.21830   0.81705   0.00000  Uiso   1.00
O774   O     0.39472   0.10432   0.69475   0.00000  Uiso   1.00
H775   H     0.42836   0.11374   0.68091   0.00000  Uiso   1.00
N776   N     0.63414   0.10604   0.69210   0.00000  Uiso   1.00
H777   H     0.63964   0.07745   0.70620   0.00000  Uiso   1.00
H778   H     0.65683   0.10672   0.65328   0.00000  Uiso   1.00
O779   O     0.59601   0.09074   0.91744   0.00000  Uiso   1.00
H780   H     0.60168   0.08842   0.87909   0.00000  Uiso   1.00
O781   O     0.64258   0.12098   0.98059   0.00000  Uiso   1.00
H782   H     0.65154   0.13171   0.94484   0.00000  Uiso   1.00
O783   O     0.46695   0.19918   0.59357   0.00000  Uiso   1.00
H784   H     0.47447   0.22057   0.61719   0.00000  Uiso   1.00
O785   O     0.38099   0.20889   0.91296   0.00000  Uiso   1.00
H786   H     0.37259   0.18240   0.89865   0.00000  Uiso   1.00
O787   O     0.38513   0.25556   0.99635   0.00000  Uiso   1.00
H788   H     0.39026   0.26889   0.52799   0.00000  Uiso   1.00
O789   O     0.51380   0.09861   0.88119   0.00000  Uiso   1.00
H790   H     0.52765   0.07130   0.88470   0.00000  Uiso   1.00
O791   O     0.58494   0.28907   0.69499   0.00000  Uiso   1.00
H792   H     0.61147   0.30850   0.67907   0.00000  Uiso   1.00
C793   C     0.83347   0.24581   0.74957   0.00000  Uiso   1.00
C794   C     0.82107   0.18193   0.98331   0.00000  Uiso   1.00
C795   C     0.82241   0.16031   0.93611   0.00000  Uiso   1.00
C796   C     0.85276   0.16922   0.51140   0.00000  Uiso   1.00
C797   C     0.89318   0.14282   0.98549   0.00000  Uiso   1.00
C798   C     0.89367   0.12060   0.93899   0.00000  Uiso   1.00
C799   C     0.85508   0.12646   0.91787   0.00000  Uiso   1.00
C800   C     0.84373   0.17986   0.56527   0.00000  Uiso   1.00
C801   C     0.92147   0.14817   0.56228   0.00000  Uiso   1.00
C802   C     0.79061   0.17282   0.90823   0.00000  Uiso   1.00
C803   C     0.87653   0.31122   0.72274   0.00000  Uiso   1.00
C804   C     0.80667   0.16707   0.85032   0.00000  Uiso   1.00
C805   C     0.87548   0.02091   0.72394   0.00000  Uiso   1.00
C806   C     0.83266   0.04284   0.75116   0.00000  Uiso   1.00
C807   C     0.78988   0.02185   0.77748   0.00000  Uiso   1.00
C808   C     0.79068   0.31230   0.77596   0.00000  Uiso   1.00
C809   C     0.83368   0.29042   0.74914   0.00000  Uiso   1.00
C810   C     0.96634   0.19588   0.77864   0.00000  Uiso   1.00
C811   C     0.68233   0.19623   0.77853   0.00000  Uiso   1.00
C812   C     0.69906   0.13668   0.72221   0.00000  Uiso   1.00
C813   C     0.98319   0.13709   0.72210   0.00000  Uiso   1.00
C814   C     0.83308   0.08751   0.75067   0.00000  Uiso   1.00
C815   C     0.85990   0.16716   0.64967   0.00000  Uiso   1.00
C816   C     0.93063   0.13735   0.50872   0.00000  Uiso   1.00
C817   C     0.87610   0.16612   0.59147   0.00000  Uiso   1.00
C818   C     0.75175   0.20098   0.93298   0.00000  Uiso   1.00
C819   C     0.75291   0.22441   0.97701   0.00000  Uiso   1.00
C820   C     0.78943   0.21662   0.99965   0.00000  Uiso   1.00
Cu821  Cu    0.78645   0.16666   0.75000   0.00000  Uiso   1.00
Cu822  Cu    0.88022   0.16667   0.75000   0.00000  Uiso   1.00
H823   H     0.90773   0.03724   0.70250   0.00000  Uiso   1.00
H824   H     0.75789   0.29614   0.79673   0.00000  Uiso   1.00
H825   H     0.79313   0.23869   0.52914   0.00000  Uiso   1.00
N826   N     0.71598   0.16666   0.74998   0.00000  Uiso   1.00
N827   N     0.95069   0.16669   0.75000   0.00000  Uiso   1.00
O828   O     0.79375   0.22678   0.75001   0.00000  Uiso   1.00
O829   O     0.87294   0.22679   0.75001   0.00000  Uiso   1.00
O830   O     0.77441   0.16665   0.82549   0.00000  Uiso   1.00
O831   O     0.85360   0.16666   0.82549   0.00000  Uiso   1.00
O832   O     0.79373   0.10654   0.74999   0.00000  Uiso   1.00
O833   O     0.87292   0.10655   0.74999   0.00000  Uiso   1.00
O834   O     0.81306   0.16667   0.67451   0.00000  Uiso   1.00
O835   O     0.89225   0.16668   0.67451   0.00000  Uiso   1.00
O836   O     0.95546   0.14036   0.58749   0.00000  Uiso   1.00
H837   H     0.98550   0.12770   0.56265   0.00000  Uiso   1.00
N838   N     0.74608   0.04391   0.80680   0.00000  Uiso   1.00
H839   H     0.73637   0.03502   0.84569   0.00000  Uiso   1.00
H840   H     0.71822   0.03493   0.79165   0.00000  Uiso   1.00
N841   N     0.93206   0.22575   0.81045   0.00000  Uiso   1.00
H842   H     0.93082   0.22287   0.84947   0.00000  Uiso   1.00
H843   H     0.94467   0.25517   0.79891   0.00000  Uiso   1.00
O844   O     0.69449   0.22731   0.80811   0.00000  Uiso   1.00
H845   H     0.72316   0.21830   0.81705   0.00000  Uiso   1.00
O846   O     0.72806   0.10432   0.69475   0.00000  Uiso   1.00
H847   H     0.76169   0.11374   0.68091   0.00000  Uiso   1.00
N848   N     0.96748   0.10604   0.69210   0.00000  Uiso   1.00
H849   H     0.97298   0.07745   0.70620   0.00000  Uiso   1.00
H850   H     0.99017   0.10672   0.65328   0.00000  Uiso   1.00
O851   O     0.92935   0.09074   0.91744   0.00000  Uiso   1.00
H852   H     0.93501   0.08842   0.87909   0.00000  Uiso   1.00
O853   O     0.97591   0.12098   0.98059   0.00000  Uiso   1.00
H854   H     0.98488   0.13171   0.94484   0.00000  Uiso   1.00
O855   O     0.80029   0.19918   0.59357   0.00000  Uiso   1.00
H856   H     0.80780   0.22057   0.61719   0.00000  Uiso   1.00
O857   O     0.71432   0.20889   0.91296   0.00000  Uiso   1.00
H858   H     0.70593   0.18240   0.89865   0.00000  Uiso   1.00
O859   O     0.71846   0.25556   0.99635   0.00000  Uiso   1.00
H860   H     0.72360   0.26889   0.52799   0.00000  Uiso   1.00
O861   O     0.84714   0.09861   0.88119   0.00000  Uiso   1.00
H862   H     0.86099   0.07130   0.88470   0.00000  Uiso   1.00
O863   O     0.91828   0.28907   0.69499   0.00000  Uiso   1.00
H864   H     0.94480   0.30850   0.67907   0.00000  Uiso   1.00
C865   C     0.16680   0.57914   0.74957   0.00000  Uiso   1.00
C866   C     0.15441   0.51526   0.98331   0.00000  Uiso   1.00
C867   C     0.15574   0.49365   0.93611   0.00000  Uiso   1.00
C868   C     0.18609   0.50255   0.51140   0.00000  Uiso   1.00
C869   C     0.22651   0.47615   0.98549   0.00000  Uiso   1.00
C870   C     0.22701   0.45393   0.93899   0.00000  Uiso   1.00
C871   C     0.18841   0.45979   0.91787   0.00000  Uiso   1.00
C872   C     0.17706   0.51320   0.56527   0.00000  Uiso   1.00
C873   C     0.25480   0.48150   0.56228   0.00000  Uiso   1.00
C874   C     0.12395   0.50616   0.90823   0.00000  Uiso   1.00
C875   C     0.20987   0.64455   0.72274   0.00000  Uiso   1.00
C876   C     0.14000   0.50040   0.85032   0.00000  Uiso   1.00
C877   C     0.20881   0.35425   0.72394   0.00000  Uiso   1.00
C878   C     0.16599   0.37618   0.75116   0.00000  Uiso   1.00
C879   C     0.12322   0.35518   0.77748   0.00000  Uiso   1.00
C880   C     0.12401   0.64564   0.77596   0.00000  Uiso   1.00
C881   C     0.16702   0.62375   0.74914   0.00000  Uiso   1.00
C882   C     0.29967   0.52922   0.77864   0.00000  Uiso   1.00
C883   C     0.01566   0.52956   0.77853   0.00000  Uiso   1.00
C884   C     0.03240   0.47001   0.72221   0.00000  Uiso   1.00
C885   C     0.31652   0.47042   0.72210   0.00000  Uiso   1.00
C886   C     0.16642   0.42085   0.75067   0.00000  Uiso   1.00
C887   C     0.19323   0.50049   0.64967   0.00000  Uiso   1.00
C888   C     0.26397   0.47068   0.50872   0.00000  Uiso   1.00
C889   C     0.20943   0.49945   0.59147   0.00000  Uiso   1.00
C890   C     0.08508   0.53431   0.93298   0.00000  Uiso   1.00
C891   C     0.08625   0.55775   0.97701   0.00000  Uiso   1.00
C892   C     0.12277   0.54996   0.99965   0.00000  Uiso   1.00
Cu893  Cu    0.11978   0.49999   0.75000   0.00000  Uiso   1.00
Cu894  Cu    0.21355   0.50001   0.75000   0.00000  Uiso   1.00
H895   H     0.24106   0.37058   0.70250   0.00000  Uiso   1.00
H896   H     0.09122   0.62947   0.79673   0.00000  Uiso   1.00
H897   H     0.12647   0.57202   0.52914   0.00000  Uiso   1.00
N898   N     0.04931   0.49999   0.74998   0.00000  Uiso   1.00
N899   N     0.28402   0.50002   0.75000   0.00000  Uiso   1.00
O900   O     0.12708   0.56011   0.75001   0.00000  Uiso   1.00
O901   O     0.20627   0.56012   0.75001   0.00000  Uiso   1.00
O902   O     0.10775   0.49998   0.82549   0.00000  Uiso   1.00
O903   O     0.18694   0.49999   0.82549   0.00000  Uiso   1.00
O904   O     0.12706   0.43988   0.74999   0.00000  Uiso   1.00
O905   O     0.20625   0.43989   0.74999   0.00000  Uiso   1.00
O906   O     0.14640   0.50001   0.67451   0.00000  Uiso   1.00
O907   O     0.22559   0.50002   0.67451   0.00000  Uiso   1.00
O908   O     0.28880   0.47369   0.58749   0.00000  Uiso   1.00
H909   H     0.31883   0.46103   0.56265   0.00000  Uiso   1.00
N910   N     0.07941   0.37724   0.80680   0.00000  Uiso   1.00
H911   H     0.06970   0.36836   0.84569   0.00000  Uiso   1.00
H912   H     0.05155   0.36826   0.79165   0.00000  Uiso   1.00
N913   N     0.26539   0.55908   0.81045   0.00000  Uiso   1.00
H914   H     0.26415   0.55620   0.84947   0.00000  Uiso   1.00
H915   H     0.27800   0.58851   0.79891   0.00000  Uiso   1.00
O916   O     0.02783   0.56064   0.80811   0.00000  Uiso   1.00
H917   H     0.05649   0.55164   0.81705   0.00000  Uiso   1.00
O918   O     0.06139   0.43766   0.69475   0.00000  Uiso   1.00
H919   H     0.09503   0.44707   0.68091   0.00000  Uiso   1.00
N920   N     0.30081   0.43937   0.69210   0.00000  Uiso   1.00
H921   H     0.30631   0.41078   0.70620   0.00000  Uiso   1.00
H922   H     0.32350   0.44005   0.65328   0.00000  Uiso   1.00
O923   O     0.26268   0.42407   0.91744   0.00000  Uiso   1.00
H924   H     0.26835   0.42175   0.87909   0.00000  Uiso   1.00
O925   O     0.30925   0.45431   0.98059   0.00000  Uiso   1.00
H926   H     0.31821   0.46504   0.94484   0.00000  Uiso   1.00
O927   O     0.13362   0.53251   0.59357   0.00000  Uiso   1.00
H928   H     0.14113   0.55390   0.61719   0.00000  Uiso   1.00
O929   O     0.04765   0.54222   0.91296   0.00000  Uiso   1.00
H930   H     0.03926   0.51573   0.89865   0.00000  Uiso   1.00
O931   O     0.05180   0.58890   0.99635   0.00000  Uiso   1.00
H932   H     0.05693   0.60223   0.52799   0.00000  Uiso   1.00
O933   O     0.18047   0.43194   0.88119   0.00000  Uiso   1.00
H934   H     0.19432   0.40463   0.88470   0.00000  Uiso   1.00
O935   O     0.25161   0.62240   0.69499   0.00000  Uiso   1.00
H936   H     0.27814   0.64184   0.67907   0.00000  Uiso   1.00
C937   C     0.50013   0.57914   0.74957   0.00000  Uiso   1.00
C938   C     0.48774   0.51526   0.98331   0.00000  Uiso   1.00
C939   C     0.48908   0.49365   0.93611   0.00000  Uiso   1.00
C940   C     0.51942   0.50255   0.51140   0.00000  Uiso   1.00
C941   C     0.55984   0.47615   0.98549   0.00000  Uiso   1.00
C942   C     0.56034   0.45393   0.93899   0.00000  Uiso   1.00
C943   C     0.52175   0.45979   0.91787   0.00000  Uiso   1.00
C944   C     0.51039   0.51320   0.56527   0.00000  Uiso   1.00
C945   C     0.58814   0.48150   0.56228   0.00000  Uiso   1.00
C946   C     0.45728   0.50616   0.90823   0.00000  Uiso   1.00
C947   C     0.54320   0.64455   0.72274   0.00000  Uiso   1.00
C948   C     0.47333   0.50040   0.85032   0.00000  Uiso   1.00
C949   C     0.54214   0.35425   0.72394   0.00000  Uiso   1.00
C950   C     0.49933   0.37618   0.75116   0.00000  Uiso   1.00
C951   C     0.45655   0.35518   0.77748   0.00000  Uiso   1.00
C952   C     0.45735   0.64564   0.77596   0.00000  Uiso   1.00
C953   C     0.50035   0.62375   0.74914   0.00000  Uiso   1.00
C954   C     0.63301   0.52922   0.77864   0.00000  Uiso   1.00
C955   C     0.34899   0.52956   0.77853   0.00000  Uiso   1.00
C956   C     0.36573   0.47001   0.72221   0.00000  Uiso   1.00
C957   C     0.64986   0.47042   0.72210   0.00000  Uiso   1.00
C958   C     0.49975   0.42085   0.75067   0.00000  Uiso   1.00
C959   C     0.52657   0.50049   0.64967   0.00000  Uiso   1.00
C960   C     0.59730   0.47068   0.50872   0.00000  Uiso   1.00
C961   C     0.54276   0.49945   0.59147   0.00000  Uiso   1.00
C962   C     0.41842   0.53431   0.93298   0.00000  Uiso   1.00
C963   C     0.41958   0.55775   0.97701   0.00000  Uiso   1.00
C964   C     0.45610   0.54996   0.99965   0.00000  Uiso   1.00
Cu965  Cu    0.45311   0.49999   0.75000   0.00000  Uiso   1.00
Cu966  Cu    0.54689   0.50001   0.75000   0.00000  Uiso   1.00
H967   H     0.57440   0.37058   0.70250   0.00000  Uiso   1.00
H968   H     0.42455   0.62947   0.79673   0.00000  Uiso   1.00
H969   H     0.45980   0.57202   0.52914   0.00000  Uiso   1.00
N970   N     0.38265   0.49999   0.74998   0.00000  Uiso   1.00
N971   N     0.61735   0.50002   0.75000   0.00000  Uiso   1.00
O972   O     0.46042   0.56011   0.75001   0.00000  Uiso   1.00
O973   O     0.53961   0.56012   0.75001   0.00000  Uiso   1.00
O974   O     0.44108   0.49998   0.82549   0.00000  Uiso   1.00
O975   O     0.52027   0.49999   0.82549   0.00000  Uiso   1.00
O976   O     0.46039   0.43988   0.74999   0.00000  Uiso   1.00
O977   O     0.53958   0.43989   0.74999   0.00000  Uiso   1.00
O978   O     0.47973   0.50001   0.67451   0.00000  Uiso   1.00
O979   O     0.55892   0.50002   0.67451   0.00000  Uiso   1.00
O980   O     0.62213   0.47369   0.58749   0.00000  Uiso   1.00
H981   H     0.65216   0.46103   0.56265   0.00000  Uiso   1.00
N982   N     0.41274   0.37724   0.80680   0.00000  Uiso   1.00
H983   H     0.40303   0.36836   0.84569   0.00000  Uiso   1.00
H984   H     0.38489   0.36826   0.79165   0.00000  Uiso   1.00
N985   N     0.59873   0.55908   0.81045   0.00000  Uiso   1.00
H986   H     0.59748   0.55620   0.84947   0.00000  Uiso   1.00
H987   H     0.61133   0.58851   0.79891   0.00000  Uiso   1.00
O988   O     0.36116   0.56064   0.80811   0.00000  Uiso   1.00
H989   H     0.38982   0.55164   0.81705   0.00000  Uiso   1.00
O990   O     0.39472   0.43766   0.69475   0.00000  Uiso   1.00
H991   H     0.42836   0.44707   0.68091   0.00000  Uiso   1.00
N992   N     0.63414   0.43937   0.69210   0.00000  Uiso   1.00
H993   H     0.63964   0.41078   0.70620   0.00000  Uiso   1.00
H994   H     0.65683   0.44005   0.65328   0.00000  Uiso   1.00
O995   O     0.59601   0.42407   0.91744   0.00000  Uiso   1.00
H996   H     0.60168   0.42175   0.87909   0.00000  Uiso   1.00
O997   O     0.64258   0.45431   0.98059   0.00000  Uiso   1.00
H998   H     0.65154   0.46504   0.94484   0.00000  Uiso   1.00
O999   O     0.46695   0.53251   0.59357   0.00000  Uiso   1.00
H1000  H     0.47447   0.55390   0.61719   0.00000  Uiso   1.00
O1001  O     0.38099   0.54222   0.91296   0.00000  Uiso   1.00
H1002  H     0.37259   0.51573   0.89865   0.00000  Uiso   1.00
O1003  O     0.38513   0.58890   0.99635   0.00000  Uiso   1.00
H1004  H     0.39026   0.60223   0.52799   0.00000  Uiso   1.00
O1005  O     0.51380   0.43194   0.88119   0.00000  Uiso   1.00
H1006  H     0.52765   0.40463   0.88470   0.00000  Uiso   1.00
O1007  O     0.58494   0.62240   0.69499   0.00000  Uiso   1.00
H1008  H     0.61147   0.64184   0.67907   0.00000  Uiso   1.00
C1009  C     0.83347   0.57914   0.74957   0.00000  Uiso   1.00
C1010  C     0.82107   0.51526   0.98331   0.00000  Uiso   1.00
C1011  C     0.82241   0.49365   0.93611   0.00000  Uiso   1.00
C1012  C     0.85276   0.50255   0.51140   0.00000  Uiso   1.00
C1013  C     0.89318   0.47615   0.98549   0.00000  Uiso   1.00
C1014  C     0.89367   0.45393   0.93899   0.00000  Uiso   1.00
C1015  C     0.85508   0.45979   0.91787   0.00000  Uiso   1.00
C1016  C     0.84373   0.51320   0.56527   0.00000  Uiso   1.00
C1017  C     0.92147   0.48150   0.56228   0.00000  Uiso   1.00
C1018  C     0.79061   0.50616   0.90823   0.00000  Uiso   1.00
C1019  C     0.87653   0.64455   0.72274   0.00000  Uiso   1.00
C1020  C     0.80667   0.50040   0.85032   0.00000  Uiso   1.00
C1021  C     0.87548   0.35425   0.72394   0.00000  Uiso   1.00
C1022  C     0.83266   0.37618   0.75116   0.00000  Uiso   1.00
C1023  C     0.78988   0.35518   0.77748   0.00000  Uiso   1.00
C1024  C     0.79068   0.64564   0.77596   0.00000  Uiso   1.00
C1025  C     0.83368   0.62375   0.74914   0.00000  Uiso   1.00
C1026  C     0.96634   0.52922   0.77864   0.00000  Uiso   1.00
C1027  C     0.68233   0.52956   0.77853   0.00000  Uiso   1.00
C1028  C     0.69906   0.47001   0.72221   0.00000  Uiso   1.00
C1029  C     0.98319   0.47042   0.72210   0.00000  Uiso   1.00
C1030  C     0.83308   0.42085   0.75067   0.00000  Uiso   1.00
C1031  C     0.85990   0.50049   0.64967   0.00000  Uiso   1.00
C1032  C     0.93063   0.47068   0.50872   0.00000  Uiso   1.00
C1033  C     0.87610   0.49945   0.59147   0.00000  Uiso   1.00
C1034  C     0.75175   0.53431   0.93298   0.00000  Uiso   1.00
C1035  C     0.75291   0.55775   0.97701   0.00000  Uiso   1.00
C1036  C     0.78943   0.54996   0.99965   0.00000  Uiso   1.00
Cu1037 Cu    0.78645   0.49999   0.75000   0.00000  Uiso   1.00
Cu1038 Cu    0.88022   0.50001   0.75000   0.00000  Uiso   1.00
H1039  H     0.90773   0.37058   0.70250   0.00000  Uiso   1.00
H1040  H     0.75789   0.62947   0.79673   0.00000  Uiso   1.00
H1041  H     0.79313   0.57202   0.52914   0.00000  Uiso   1.00
N1042  N     0.71598   0.49999   0.74998   0.00000  Uiso   1.00
N1043  N     0.95069   0.50002   0.75000   0.00000  Uiso   1.00
O1044  O     0.79375   0.56011   0.75001   0.00000  Uiso   1.00
O1045  O     0.87294   0.56012   0.75001   0.00000  Uiso   1.00
O1046  O     0.77441   0.49998   0.82549   0.00000  Uiso   1.00
O1047  O     0.85360   0.49999   0.82549   0.00000  Uiso   1.00
O1048  O     0.79373   0.43988   0.74999   0.00000  Uiso   1.00
O1049  O     0.87292   0.43989   0.74999   0.00000  Uiso   1.00
O1050  O     0.81306   0.50001   0.67451   0.00000  Uiso   1.00
O1051  O     0.89225   0.50002   0.67451   0.00000  Uiso   1.00
O1052  O     0.95546   0.47369   0.58749   0.00000  Uiso   1.00
H1053  H     0.98550   0.46103   0.56265   0.00000  Uiso   1.00
N1054  N     0.74608   0.37724   0.80680   0.00000  Uiso   1.00
H1055  H     0.73637   0.36836   0.84569   0.00000  Uiso   1.00
H1056  H     0.71822   0.36826   0.79165   0.00000  Uiso   1.00
N1057  N     0.93206   0.55908   0.81045   0.00000  Uiso   1.00
H1058  H     0.93082   0.55620   0.84947   0.00000  Uiso   1.00
H1059  H     0.94467   0.58851   0.79891   0.00000  Uiso   1.00
O1060  O     0.69449   0.56064   0.80811   0.00000  Uiso   1.00
H1061  H     0.72316   0.55164   0.81705   0.00000  Uiso   1.00
O1062  O     0.72806   0.43766   0.69475   0.00000  Uiso   1.00
H1063  H     0.76169   0.44707   0.68091   0.00000  Uiso   1.00
N1064  N     0.96748   0.43937   0.69210   0.00000  Uiso   1.00
H1065  H     0.97298   0.41078   0.70620   0.00000  Uiso   1.00
H1066  H     0.99017   0.44005   0.65328   0.00000  Uiso   1.00
O1067  O     0.92935   0.42407   0.91744   0.00000  Uiso   1.00
H1068  H     0.93501   0.42175   0.87909   0.00000  Uiso   1.00
O1069  O     0.97591   0.45431   0.98059   0.00000  Uiso   1.00
H1070  H     0.98488   0.46504   0.94484   0.00000  Uiso   1.00
O1071  O     0.80029   0.53251   0.59357   0.00000  Uiso   1.00
H1072  H     0.80780   0.55390   0.61719   0.00000  Uiso   1.00
O1073  O     0.71432   0.54222   0.91296   0.00000  Uiso   1.00
H1074  H     0.70593   0.51573   0.89865   0.00000  Uiso   1.00
O1075  O     0.71846   0.58890   0.99635   0.00000  Uiso   1.00
H1076  H     0.72360   0.60223   0.52799   0.00000  Uiso   1.00
O1077  O     0.84714   0.43194   0.88119   0.00000  Uiso   1.00
H1078  H     0.86099   0.40463   0.88470   0.00000  Uiso   1.00
O1079  O     0.91828   0.62240   0.69499   0.00000  Uiso   1.00
H1080  H     0.94480   0.64184   0.67907   0.00000  Uiso   1.00
C1081  C     0.16680   0.91247   0.74957   0.00000  Uiso   1.00
C1082  C     0.15441   0.84860   0.98331   0.00000  Uiso   1.00
C1083  C     0.15574   0.82698   0.93611   0.00000  Uiso   1.00
C1084  C     0.18609   0.83588   0.51140   0.00000  Uiso   1.00
C1085  C     0.22651   0.80948   0.98549   0.00000  Uiso   1.00
C1086  C     0.22701   0.78726   0.93899   0.00000  Uiso   1.00
C1087  C     0.18841   0.79312   0.91787   0.00000  Uiso   1.00
C1088  C     0.17706   0.84653   0.56527   0.00000  Uiso   1.00
C1089  C     0.25480   0.81483   0.56228   0.00000  Uiso   1.00
C1090  C     0.12395   0.83949   0.90823   0.00000  Uiso   1.00
C1091  C     0.20987   0.97789   0.72274   0.00000  Uiso   1.00
C1092  C     0.14000   0.83374   0.85032   0.00000  Uiso   1.00
C1093  C     0.20881   0.68758   0.72394   0.00000  Uiso   1.00
C1094  C     0.16599   0.70951   0.75116   0.00000  Uiso   1.00
C1095  C     0.12322   0.68852   0.77748   0.00000  Uiso   1.00
C1096  C     0.12401   0.97897   0.77596   0.00000  Uiso   1.00
C1097  C     0.16702   0.95709   0.74914   0.00000  Uiso   1.00
C1098  C     0.29967   0.86255   0.77864   0.00000  Uiso   1.00
C1099  C     0.01566   0.86289   0.77853   0.00000  Uiso   1.00
C1100  C     0.03240   0.80335   0.72221   0.00000  Uiso   1.00
C1101  C     0.31652   0.80376   0.72210   0.00000  Uiso   1.00
C1102  C     0.16642   0.75418   0.75067   0.00000  Uiso   1.00
C1103  C     0.19323   0.83383   0.64967   0.00000  Uiso   1.00
C1104  C     0.26397   0.80402   0.50872   0.00000  Uiso   1.00
C1105  C     0.20943   0.83278   0.59147   0.00000  Uiso   1.00
C1106  C     0.08508   0.86764   0.93298   0.00000  Uiso   1.00
C1107  C     0.08625   0.89108   0.97701   0.00000  Uiso   1.00
C1108  C     0.12277   0.88329   0.99965   0.00000  Uiso   1.00
Cu1109 Cu    0.11978   0.83333   0.75000   0.00000  Uiso   1.00
Cu1110 Cu    0.21355   0.83334   0.75000   0.00000  Uiso   1.00
H1111  H     0.24106   0.70391   0.70250   0.00000  Uiso   1.00
H1112  H     0.09122   0.96281   0.79673   0.00000  Uiso   1.00
H1113  H     0.12647   0.90536   0.52914   0.00000  Uiso   1.00
N1114  N     0.04931   0.83332   0.74998   0.00000  Uiso   1.00
N1115  N     0.28402   0.83335   0.75000   0.00000  Uiso   1.00
O1116  O     0.12708   0.89345   0.75001   0.00000  Uiso   1.00
O1117  O     0.20627   0.89346   0.75001   0.00000  Uiso   1.00
O1118  O     0.10775   0.83332   0.82549   0.00000  Uiso   1.00
O1119  O     0.18694   0.83333   0.82549   0.00000  Uiso   1.00
O1120  O     0.12706   0.77321   0.74999   0.00000  Uiso   1.00
O1121  O     0.20625   0.77322   0.74999   0.00000  Uiso   1.00
O1122  O     0.14640   0.83334   0.67451   0.00000  Uiso   1.00
O1123  O     0.22559   0.83335   0.67451   0.00000  Uiso   1.00
O1124  O     0.28880   0.80703   0.58749   0.00000  Uiso   1.00
H1125  H     0.31883   0.79436   0.56265   0.00000  Uiso   1.00
N1126  N     0.07941   0.71057   0.80680   0.00000  Uiso   1.00
H1127  H     0.06970   0.70169   0.84569   0.00000  Uiso   1.00
H1128  H     0.05155   0.70160   0.79165   0.00000  Uiso   1.00
N1129  N     0.26539   0.89241   0.81045   0.00000  Uiso   1.00
H1130  H     0.26415   0.88953   0.84947   0.00000  Uiso   1.00
H1131  H     0.27800   0.92184   0.79891   0.00000  Uiso   1.00
O1132  O     0.02783   0.89397   0.80811   0.00000  Uiso   1.00
H1133  H     0.05649   0.88497   0.81705   0.00000  Uiso   1.00
O1134  O     0.06139   0.77099   0.69475   0.00000  Uiso   1.00
H1135  H     0.09503   0.78041   0.68091   0.00000  Uiso   1.00
N1136  N     0.30081   0.77271   0.69210   0.00000  Uiso   1.00
H1137  H     0.30631   0.74412   0.70620   0.00000  Uiso   1.00
H1138  H     0.32350   0.77338   0.65328   0.00000  Uiso   1.00
O1139  O     0.26268   0.75741   0.91744   0.00000  Uiso   1.00
H1140  H     0.26835   0.75509   0.87909   0.00000  Uiso   1.00
O1141  O     0.30925   0.78765   0.98059   0.00000  Uiso   1.00
H1142  H     0.31821   0.79837   0.94484   0.00000  Uiso   1.00
O1143  O     0.13362   0.86584   0.59357   0.00000  Uiso   1.00
H1144  H     0.14113   0.88723   0.61719   0.00000  Uiso   1.00
O1145  O     0.04765   0.87555   0.91296   0.00000  Uiso   1.00
H1146  H     0.03926   0.84907   0.89865   0.00000  Uiso   1.00
O1147  O     0.05180   0.92223   0.99635   0.00000  Uiso   1.00
H1148  H     0.05693   0.93556   0.52799   0.00000  Uiso   1.00
O1149  O     0.18047   0.76527   0.88119   0.00000  Uiso   1.00
H1150  H     0.19432   0.73797   0.88470   0.00000  Uiso   1.00
O1151  O     0.25161   0.95573   0.69499   0.00000  Uiso   1.00
H1152  H     0.27814   0.97517   0.67907   0.00000  Uiso   1.00
C1153  C     0.50013   0.91247   0.74957   0.00000  Uiso   1.00
C1154  C     0.48774   0.84860   0.98331   0.00000  Uiso   1.00
C1155  C     0.48908   0.82698   0.93611   0.00000  Uiso   1.00
C1156  C     0.51942   0.83588   0.51140   0.00000  Uiso   1.00
C1157  C     0.55984   0.80948   0.98549   0.00000  Uiso   1.00
C1158  C     0.56034   0.78726   0.93899   0.00000  Uiso   1.00
C1159  C     0.52175   0.79312   0.91787   0.00000  Uiso   1.00
C1160  C     0.51039   0.84653   0.56527   0.00000  Uiso   1.00
C1161  C     0.58814   0.81483   0.56228   0.00000  Uiso   1.00
C1162  C     0.45728   0.83949   0.90823   0.00000  Uiso   1.00
C1163  C     0.54320   0.97789   0.72274   0.00000  Uiso   1.00
C1164  C     0.47333   0.83374   0.85032   0.00000  Uiso   1.00
C1165  C     0.54214   0.68758   0.72394   0.00000  Uiso   1.00
C1166  C     0.49933   0.70951   0.75116   0.00000  Uiso   1.00
C1167  C     0.45655   0.68852   0.77748   0.00000  Uiso   1.00
C1168  C     0.45735   0.97897   0.77596   0.00000  Uiso   1.00
C1169  C     0.50035   0.95709   0.74914   0.00000  Uiso   1.00
C1170  C     0.63301   0.86255   0.77864   0.00000  Uiso   1.00
C1171  C     0.34899   0.86289   0.77853   0.00000  Uiso   1.00
C1172  C     0.36573   0.80335   0.72221   0.00000  Uiso   1.00
C1173  C     0.64986   0.80376   0.72210   0.00000  Uiso   1.00
C1174  C     0.49975   0.75418   0.75067   0.00000  Uiso   1.00
C1175  C     0.52657   0.83383   0.64967   0.00000  Uiso   1.00
C1176  C     0.59730   0.80402   0.50872   0.00000  Uiso   1.00
C1177  C     0.54276   0.83278   0.59147   0.00000  Uiso   1.00
C1178  C     0.41842   0.86764   0.93298   0.00000  Uiso   1.00
C1179  C     0.41958   0.89108   0.97701   0.00000  Uiso   1.00
C1180  C     0.45610   0.88329   0.99965   0.00000  Uiso   1.00
Cu1181 Cu    0.45311   0.83333   0.75000   0.00000  Uiso   1.00
Cu1182 Cu    0.54689   0.83334   0.75000   0.00000  Uiso   1.00
H1183  H     0.57440   0.70391   0.70250   0.00000  Uiso   1.00
H1184  H     0.42455   0.96281   0.79673   0.00000  Uiso   1.00
H1185  H     0.45980   0.90536   0.52914   0.00000  Uiso   1.00
N1186  N     0.38265   0.83332   0.74998   0.00000  Uiso   1.00
N1187  N     0.61735   0.83335   0.75000   0.00000  Uiso   1.00
O1188  O     0.46042   0.89345   0.75001   0.00000  Uiso   1.00
O1189  O     0.53961   0.89346   0.75001   0.00000  Uiso   1.00
O1190  O     0.44108   0.83332   0.82549   0.00000  Uiso   1.00
O1191  O     0.52027   0.83333   0.82549   0.00000  Uiso   1.00
O1192  O     0.46039   0.77321   0.74999   0.00000  Uiso   1.00
O1193  O     0.53958   0.77322   0.74999   0.00000  Uiso   1.00
O1194  O     0.47973   0.83334   0.67451   0.00000  Uiso   1.00
O1195  O     0.55892   0.83335   0.67451   0.00000  Uiso   1.00
O1196  O     0.62213   0.80703   0.58749   0.00000  Uiso   1.00
H1197  H     0.65216   0.79436   0.56265   0.00000  Uiso   1.00
N1198  N     0.41274   0.71057   0.80680   0.00000  Uiso   1.00
H1199  H     0.40303   0.70169   0.84569   0.00000  Uiso   1.00
H1200  H     0.38489   0.70160   0.79165   0.00000  Uiso   1.00
N1201  N     0.59873   0.89241   0.81045   0.00000  Uiso   1.00
H1202  H     0.59748   0.88953   0.84947   0.00000  Uiso   1.00
H1203  H     0.61133   0.92184   0.79891   0.00000  Uiso   1.00
O1204  O     0.36116   0.89397   0.80811   0.00000  Uiso   1.00
H1205  H     0.38982   0.88497   0.81705   0.00000  Uiso   1.00
O1206  O     0.39472   0.77099   0.69475   0.00000  Uiso   1.00
H1207  H     0.42836   0.78041   0.68091   0.00000  Uiso   1.00
N1208  N     0.63414   0.77271   0.69210   0.00000  Uiso   1.00
H1209  H     0.63964   0.74412   0.70620   0.00000  Uiso   1.00
H1210  H     0.65683   0.77338   0.65328   0.00000  Uiso   1.00
O1211  O     0.59601   0.75741   0.91744   0.00000  Uiso   1.00
H1212  H     0.60168   0.75509   0.87909   0.00000  Uiso   1.00
O1213  O     0.64258   0.78765   0.98059   0.00000  Uiso   1.00
H1214  H     0.65154   0.79837   0.94484   0.00000  Uiso   1.00
O1215  O     0.46695   0.86584   0.59357   0.00000  Uiso   1.00
H1216  H     0.47447   0.88723   0.61719   0.00000  Uiso   1.00
O1217  O     0.38099   0.87555   0.91296   0.00000  Uiso   1.00
H1218  H     0.37259   0.84907   0.89865   0.00000  Uiso   1.00
O1219  O     0.38513   0.92223   0.99635   0.00000  Uiso   1.00
H1220  H     0.39026   0.93556   0.52799   0.00000  Uiso   1.00
O1221  O     0.51380   0.76527   0.88119   0.00000  Uiso   1.00
H1222  H     0.52765   0.73797   0.88470   0.00000  Uiso   1.00
O1223  O     0.58494   0.95573   0.69499   0.00000  Uiso   1.00
H1224  H     0.61147   0.97517   0.67907   0.00000  Uiso   1.00
C1225  C     0.83347   0.91247   0.74957   0.00000  Uiso   1.00
C1226  C     0.82107   0.84860   0.98331   0.00000  Uiso   1.00
C1227  C     0.82241   0.82698   0.93611   0.00000  Uiso   1.00
C1228  C     0.85276   0.83588   0.51140   0.00000  Uiso   1.00
C1229  C     0.89318   0.80948   0.98549   0.00000  Uiso   1.00
C1230  C     0.89367   0.78726   0.93899   0.00000  Uiso   1.00
C1231  C     0.85508   0.79312   0.91787   0.00000  Uiso   1.00
C1232  C     0.84373   0.84653   0.56527   0.00000  Uiso   1.00
C1233  C     0.92147   0.81483   0.56228   0.00000  Uiso   1.00
C1234  C     0.79061   0.83949   0.90823   0.00000  Uiso   1.00
C1235  C     0.87653   0.97789   0.72274   0.00000  Uiso   1.00
C1236  C     0.80667   0.83374   0.85032   0.00000  Uiso   1.00
C1237  C     0.87548   0.68758   0.72394   0.00000  Uiso   1.00
C1238  C     0.83266   0.70951   0.75116   0.00000  Uiso   1.00
C1239  C     0.78988   0.68852   0.77748   0.00000  Uiso   1.00
C1240  C     0.79068   0.97897   0.77596   0.00000  Uiso   1.00
C1241  C     0.83368   0.95709   0.74914   0.00000  Uiso   1.00
C1242  C     0.96634   0.86255   0.77864   0.00000  Uiso   1.00
C1243  C     0.68233   0.86289   0.77853   0.00000  Uiso   1.00
C1244  C     0.69906   0.80335   0.72221   0.00000  Uiso   1.00
C1245  C     0.98319   0.80376   0.72210   0.00000  Uiso   1.00
C1246  C     0.83308   0.75418   0.75067   0.00000  Uiso   1.00
C1247  C     0.85990   0.83383   0.64967   0.00000  Uiso   1.00
C1248  C     0.93063   0.80402   0.50872   0.00000  Uiso   1.00
C1249  C     0.87610   0.83278   0.59147   0.00000  Uiso   1.00
C1250  C     0.75175   0.86764   0.93298   0.00000  Uiso   1.00
C1251  C     0.75291   0.89108   0.97701   0.00000  Uiso   1.00
C1252  C     0.78943   0.88329   0.99965   0.00000  Uiso   1.00
Cu1253 Cu    0.78645   0.83333   0.75000   0.00000  Uiso   1.00
Cu1254 Cu    0.88022   0.83334   0.75000   0.00000  Uiso   1.00
H1255  H     0.90773   0.70391   0.70250   0.00000  Uiso   1.00
H1256  H     0.75789   0.96281   0.79673   0.00000  Uiso   1.00
H1257  H     0.79313   0.90536   0.52914   0.00000  Uiso   1.00
N1258  N     0.71598   0.83332   0.74998   0.00000  Uiso   1.00
N1259  N     0.95069   0.83335   0.75000   0.00000  Uiso   1.00
O1260  O     0.79375   0.89345   0.75001   0.00000  Uiso   1.00
O1261  O     0.87294   0.89346   0.75001   0.00000  Uiso   1.00
O1262  O     0.77441   0.83332   0.82549   0.00000  Uiso   1.00
O1263  O     0.85360   0.83333   0.82549   0.00000  Uiso   1.00
O1264  O     0.79373   0.77321   0.74999   0.00000  Uiso   1.00
O1265  O     0.87292   0.77322   0.74999   0.00000  Uiso   1.00
O1266  O     0.81306   0.83334   0.67451   0.00000  Uiso   1.00
O1267  O     0.89225   0.83335   0.67451   0.00000  Uiso   1.00
O1268  O     0.95546   0.80703   0.58749   0.00000  Uiso   1.00
H1269  H     0.98550   0.79436   0.56265   0.00000  Uiso   1.00
N1270  N     0.74608   0.71057   0.80680   0.00000  Uiso   1.00
H1271  H     0.73637   0.70169   0.84569   0.00000  Uiso   1.00
H1272  H     0.71822   0.70160   0.79165   0.00000  Uiso   1.00
N1273  N     0.93206   0.89241   0.81045   0.00000  Uiso   1.00
H1274  H     0.93082   0.88953   0.84947   0.00000  Uiso   1.00
H1275  H     0.94467   0.92184   0.79891   0.00000  Uiso   1.00
O1276  O     0.69449   0.89397   0.80811   0.00000  Uiso   1.00
H1277  H     0.72316   0.88497   0.81705   0.00000  Uiso   1.00
O1278  O     0.72806   0.77099   0.69475   0.00000  Uiso   1.00
H1279  H     0.76169   0.78041   0.68091   0.00000  Uiso   1.00
N1280  N     0.96748   0.77271   0.69210   0.00000  Uiso   1.00
H1281  H     0.97298   0.74412   0.70620   0.00000  Uiso   1.00
H1282  H     0.99017   0.77338   0.65328   0.00000  Uiso   1.00
O1283  O     0.92935   0.75741   0.91744   0.00000  Uiso   1.00
H1284  H     0.93501   0.75509   0.87909   0.00000  Uiso   1.00
O1285  O     0.97591   0.78765   0.98059   0.00000  Uiso   1.00
H1286  H     0.98488   0.79837   0.94484   0.00000  Uiso   1.00
O1287  O     0.80029   0.86584   0.59357   0.00000  Uiso   1.00
H1288  H     0.80780   0.88723   0.61719   0.00000  Uiso   1.00
O1289  O     0.71432   0.87555   0.91296   0.00000  Uiso   1.00
H1290  H     0.70593   0.84907   0.89865   0.00000  Uiso   1.00
O1291  O     0.71846   0.92223   0.99635   0.00000  Uiso   1.00
H1292  H     0.72360   0.93556   0.52799   0.00000  Uiso   1.00
O1293  O     0.84714   0.76527   0.88119   0.00000  Uiso   1.00
H1294  H     0.86099   0.73797   0.88470   0.00000  Uiso   1.00
O1295  O     0.91828   0.95573   0.69499   0.00000  Uiso   1.00
H1296  H     0.94480   0.97517   0.67907   0.00000  Uiso   1.00
loop_
_geom_bond_atom_site_label_1
_geom_bond_atom_site_label_2
_geom_bond_distance
_geom_bond_site_symmetry_2
_ccdc_geom_bond_type
C1     C17     1.448   .     S
C1     O37     1.296   .     A
C1     O36     1.300   .     A
C2     C3      1.416   .     A
C2     C28     1.413   .     A
C2     C652    1.424   .     S
C3     C10     1.421   .     A
C3     C7      1.413   .     A
C4     C8      1.417   .     A
C4     C650    1.424   1_554 S
C4     C653    1.420   1_554 S
C5     C6      1.415   .     A
C5     C652    1.420   .     S
C5     C672    1.421   .     S
C6     C7      1.414   .     A
C6     O59     1.382   .     S
C7     O69     1.384   .     S
C8     C25     1.414   .     A
C8     O63     1.379   .     S
C9     C24     1.410   .     A
C9     C25     1.408   .     A
C9     O44     1.383   .     S
C10    C26     1.418   .     A
C10    C12     1.482   .     S
C11    C17     1.406   .     A
C11    O71     1.383   .     S
C11    C229    1.395   .     S
C12    O39     1.308   .     A
C12    O38     1.303   .     A
C13    C14     1.398   .     A
C13    H31     1.080   .     S
C13    C443    1.395   1_545 S
C14    C22     1.450   .     S
C14    C15     1.407   .     A
C15    N46     1.434   .     S
C15    C448    1.390   1_545 S
C16    H32     1.084   .     S
C16    C17     1.398   .     A
C16    C231    1.390   .     S
C18    N35     1.363   .     A
C18    N49     1.431   .     S
C18    C91     1.421   .     S
C19    O52     1.374   .     S
C19    N34     1.386   .     A
C19    C162    1.421   1_455 S
C20    N34     1.385   .     A
C20    O54     1.376   .     S
C20    C165    1.420   1_455 S
C21    N56     1.428   .     S
C21    N35     1.364   .     A
C21    C92     1.420   .     S
C22    O40     1.296   .     A
C22    O41     1.301   .     A
C23    O42     1.306   .     A
C23    C25     1.484   .     S
C23    O43     1.307   .     A
C24    C653    1.421   1_554 S
C24    O709    1.380   1_554 S
C26    C27     1.392   .     A
C26    O65     1.376   .     S
C27    O67     1.381   .     S
C27    C28     1.398   .     A
C28    H681    1.078   .     S
Cu29   O38     1.948   .     S
Cu29   O42     1.931   .     S
Cu29   O36     1.962   .     S
Cu29   Cu30    2.704   .     S
Cu29   N34     2.032   .     S
Cu29   O40     1.961   .     S
Cu30   O41     1.962   .     S
Cu30   N35     2.032   .     S
Cu30   O43     1.948   .     S
Cu30   O37     1.961   .     S
Cu30   O39     1.931   .     S
H33    C676    1.078   1_554 S
O44    H45     0.989   .     S
N46    H48     1.046   .     S
N46    H47     1.046   .     S
N49    H50     1.046   .     S
N49    H51     1.046   .     S
O52    H53     0.977   .     S
O54    H55     0.978   .     S
N56    H58     1.044   .     S
N56    H57     1.045   .     S
O59    H60     0.991   .     S
O61    H62     0.990   .     S
O61    C672    1.380   .     S
O63    H64     0.992   .     S
O65    H66     0.990   .     S
O67    H716    0.992   .     S
H68    O715    0.992   1_554 S
O69    H70     0.990   .     S
O71    H72     0.992   .     S
C73    C89     1.448   .     S
C73    O109    1.296   .     A
C73    O108    1.300   .     A
C74    C75     1.416   .     A
C74    C100    1.413   .     A
C74    C724    1.424   .     S
C75    C82     1.421   .     A
C75    C79     1.413   .     A
C76    C80     1.417   .     A
C76    C722    1.424   1_554 S
C76    C725    1.420   1_554 S
C77    C78     1.415   .     A
C77    C724    1.420   .     S
C77    C744    1.421   .     S
C78    C79     1.414   .     A
C78    O131    1.382   .     S
C79    O141    1.384   .     S
C80    C97     1.414   .     A
C80    O135    1.379   .     S
C81    C96     1.410   .     A
C81    C97     1.408   .     A
C81    O116    1.383   .     S
C82    C98     1.418   .     A
C82    C84     1.482   .     S
C83    C89     1.406   .     A
C83    O143    1.383   .     S
C83    C301    1.395   .     S
C84    O111    1.308   .     A
C84    O110    1.303   .     A
C85    C86     1.398   .     A
C85    H103    1.080   .     S
C85    C515    1.395   1_545 S
C86    C94     1.450   .     S
C86    C87     1.407   .     A
C87    N118    1.434   .     S
C87    C520    1.390   1_545 S
C88    H104    1.084   .     S
C88    C89     1.398   .     A
C88    C303    1.390   .     S
C90    N107    1.363   .     A
C90    N121    1.431   .     S
C90    C163    1.421   .     S
C91    O124    1.374   .     S
C91    N106    1.386   .     A
C92    N106    1.385   .     A
C92    O126    1.376   .     S
C93    N128    1.428   .     S
C93    N107    1.364   .     A
C93    C164    1.420   .     S
C94    O112    1.296   .     A
C94    O113    1.301   .     A
C95    O114    1.306   .     A
C95    C97     1.484   .     S
C95    O115    1.307   .     A
C96    C725    1.421   1_554 S
C96    O781    1.380   1_554 S
C98    C99     1.392   .     A
C98    O137    1.376   .     S
C99    O139    1.381   .     S
C99    C100    1.398   .     A
C100   H753    1.078   .     S
Cu101  O110    1.948   .     S
Cu101  O114    1.931   .     S
Cu101  O108    1.962   .     S
Cu101  Cu102   2.704   .     S
Cu101  N106    2.032   .     S
Cu101  O112    1.961   .     S
Cu102  O113    1.962   .     S
Cu102  N107    2.032   .     S
Cu102  O115    1.948   .     S
Cu102  O109    1.961   .     S
Cu102  O111    1.931   .     S
H105   C748    1.078   1_554 S
O116   H117    0.989   .     S
N118   H120    1.046   .     S
N118   H119    1.046   .     S
N121   H122    1.046   .     S
N121   H123    1.046   .     S
O124   H125    0.977   .     S
O126   H127    0.978   .     S
N128   H130    1.044   .     S
N128   H129    1.045   .     S
O131   H132    0.991   .     S
O133   H134    0.990   .     S
O133   C744    1.380   .     S
O135   H136    0.992   .     S
O137   H138    0.990   .     S
O139   H788    0.992   .     S
H140   O787    0.992   1_554 S
O141   H142    0.990   .     S
O143   H144    0.992   .     S
C145   C161    1.448   .     S
C145   O181    1.296   .     A
C145   O180    1.300   .     A
C146   C147    1.416   .     A
C146   C172    1.413   .     A
C146   C796    1.424   .     S
C147   C154    1.421   .     A
C147   C151    1.413   .     A
C148   C152    1.417   .     A
C148   C794    1.424   1_554 S
C148   C797    1.420   1_554 S
C149   C150    1.415   .     A
C149   C796    1.420   .     S
C149   C816    1.421   .     S
C150   C151    1.414   .     A
C150   O203    1.382   .     S
C151   O213    1.384   .     S
C152   C169    1.414   .     A
C152   O207    1.379   .     S
C153   C168    1.410   .     A
C153   C169    1.408   .     A
C153   O188    1.383   .     S
C154   C170    1.418   .     A
C154   C156    1.482   .     S
C155   C161    1.406   .     A
C155   O215    1.383   .     S
C155   C373    1.395   .     S
C156   O183    1.308   .     A
C156   O182    1.303   .     A
C157   C158    1.398   .     A
C157   H175    1.080   .     S
C157   C587    1.395   1_545 S
C158   C166    1.450   .     S
C158   C159    1.407   .     A
C159   N190    1.434   .     S
C159   C592    1.390   1_545 S
C160   H176    1.084   .     S
C160   C161    1.398   .     A
C160   C375    1.390   .     S
C162   N179    1.363   .     A
C162   N193    1.431   .     S
C162   C19     1.421   1_655 S
C163   O196    1.374   .     S
C163   N178    1.386   .     A
C164   N178    1.385   .     A
C164   O198    1.376   .     S
C165   N200    1.428   .     S
C165   N179    1.364   .     A
C165   C20     1.420   1_655 S
C166   O184    1.296   .     A
C166   O185    1.301   .     A
C167   O186    1.306   .     A
C167   C169    1.484   .     S
C167   O187    1.307   .     A
C168   C797    1.421   1_554 S
C168   O853    1.380   1_554 S
C170   C171    1.392   .     A
C170   O209    1.376   .     S
C171   O211    1.381   .     S
C171   C172    1.398   .     A
C172   H825    1.078   .     S
Cu173  O182    1.948   .     S
Cu173  O186    1.931   .     S
Cu173  O180    1.962   .     S
Cu173  Cu174   2.704   .     S
Cu173  N178    2.032   .     S
Cu173  O184    1.961   .     S
Cu174  O185    1.962   .     S
Cu174  N179    2.032   .     S
Cu174  O187    1.948   .     S
Cu174  O181    1.961   .     S
Cu174  O183    1.931   .     S
H177   C820    1.078   1_554 S
O188   H189    0.989   .     S
N190   H192    1.046   .     S
N190   H191    1.046   .     S
N193   H194    1.046   .     S
N193   H195    1.046   .     S
O196   H197    0.977   .     S
O198   H199    0.978   .     S
N200   H202    1.044   .     S
N200   H201    1.045   .     S
O203   H204    0.991   .     S
O205   H206    0.990   .     S
O205   C816    1.380   .     S
O207   H208    0.992   .     S
O209   H210    0.990   .     S
O211   H860    0.992   .     S
H212   O859    0.992   1_554 S
O213   H214    0.990   .     S
O215   H216    0.992   .     S
C217   C233    1.448   .     S
C217   O253    1.296   .     A
C217   O252    1.300   .     A
C218   C219    1.416   .     A
C218   C244    1.413   .     A
C218   C868    1.424   .     S
C219   C226    1.421   .     A
C219   C223    1.413   .     A
C220   C224    1.417   .     A
C220   C866    1.424   1_554 S
C220   C869    1.420   1_554 S
C221   C222    1.415   .     A
C221   C868    1.420   .     S
C221   C888    1.421   .     S
C222   C223    1.414   .     A
C222   O275    1.382   .     S
C223   O285    1.384   .     S
C224   C241    1.414   .     A
C224   O279    1.379   .     S
C225   C240    1.410   .     A
C225   C241    1.408   .     A
C225   O260    1.383   .     S
C226   C242    1.418   .     A
C226   C228    1.482   .     S
C227   C233    1.406   .     A
C227   O287    1.383   .     S
C227   C445    1.395   .     S
C228   O255    1.308   .     A
C228   O254    1.303   .     A
C229   C230    1.398   .     A
C229   H247    1.080   .     S
C230   C238    1.450   .     S
C230   C231    1.407   .     A
C231   N262    1.434   .     S
C232   H248    1.084   .     S
C232   C233    1.398   .     A
C232   C447    1.390   .     S
C234   N251    1.363   .     A
C234   N265    1.431   .     S
C234   C307    1.421   .     S
C235   O268    1.374   .     S
C235   N250    1.386   .     A
C235   C378    1.421   1_455 S
C236   N250    1.385   .     A
C236   O270    1.376   .     S
C236   C381    1.420   1_455 S
C237   N272    1.428   .     S
C237   N251    1.364   .     A
C237   C308    1.420   .     S
C238   O256    1.296   .     A
C238   O257    1.301   .     A
C239   O258    1.306   .     A
C239   C241    1.484   .     S
C239   O259    1.307   .     A
C240   C869    1.421   1_554 S
C240   O925    1.380   1_554 S
C242   C243    1.392   .     A
C242   O281    1.376   .     S
C243   O283    1.381   .     S
C243   C244    1.398   .     A
C244   H897    1.078   .     S
Cu245  O254    1.948   .     S
Cu245  O258    1.931   .     S
Cu245  O252    1.962   .     S
Cu245  Cu246   2.704   .     S
Cu245  N250    2.032   .     S
Cu245  O256    1.961   .     S
Cu246  O257    1.962   .     S
Cu246  N251    2.032   .     S
Cu246  O259    1.948   .     S
Cu246  O253    1.961   .     S
Cu246  O255    1.931   .     S
H249   C892    1.078   1_554 S
O260   H261    0.989   .     S
N262   H264    1.046   .     S
N262   H263    1.046   .     S
N265   H266    1.046   .     S
N265   H267    1.046   .     S
O268   H269    0.977   .     S
O270   H271    0.978   .     S
N272   H274    1.044   .     S
N272   H273    1.045   .     S
O275   H276    0.991   .     S
O277   H278    0.990   .     S
O277   C888    1.380   .     S
O279   H280    0.992   .     S
O281   H282    0.990   .     S
O283   H932    0.992   .     S
H284   O931    0.992   1_554 S
O285   H286    0.990   .     S
O287   H288    0.992   .     S
C289   C305    1.448   .     S
C289   O325    1.296   .     A
C289   O324    1.300   .     A
C290   C291    1.416   .     A
C290   C316    1.413   .     A
C290   C940    1.424   .     S
C291   C298    1.421   .     A
C291   C295    1.413   .     A
C292   C296    1.417   .     A
C292   C938    1.424   1_554 S
C292   C941    1.420   1_554 S
C293   C294    1.415   .     A
C293   C940    1.420   .     S
C293   C960    1.421   .     S
C294   C295    1.414   .     A
C294   O347    1.382   .     S
C295   O357    1.384   .     S
C296   C313    1.414   .     A
C296   O351    1.379   .     S
C297   C312    1.410   .     A
C297   C313    1.408   .     A
C297   O332    1.383   .     S
C298   C314    1.418   .     A
C298   C300    1.482   .     S
C299   C305    1.406   .     A
C299   O359    1.383   .     S
C299   C517    1.395   .     S
C300   O327    1.308   .     A
C300   O326    1.303   .     A
C301   C302    1.398   .     A
C301   H319    1.080   .     S
C302   C310    1.450   .     S
C302   C303    1.407   .     A
C303   N334    1.434   .     S
C304   H320    1.084   .     S
C304   C305    1.398   .     A
C304   C519    1.390   .     S
C306   N323    1.363   .     A
C306   N337    1.431   .     S
C306   C379    1.421   .     S
C307   O340    1.374   .     S
C307   N322    1.386   .     A
C308   N322    1.385   .     A
C308   O342    1.376   .     S
C309   N344    1.428   .     S
C309   N323    1.364   .     A
C309   C380    1.420   .     S
C310   O328    1.296   .     A
C310   O329    1.301   .     A
C311   O330    1.306   .     A
C311   C313    1.484   .     S
C311   O331    1.307   .     A
C312   C941    1.421   1_554 S
C312   O997    1.380   1_554 S
C314   C315    1.392   .     A
C314   O353    1.376   .     S
C315   O355    1.381   .     S
C315   C316    1.398   .     A
C316   H969    1.078   .     S
Cu317  O326    1.948   .     S
Cu317  O330    1.931   .     S
Cu317  O324    1.962   .     S
Cu317  Cu318   2.704   .     S
Cu317  N322    2.032   .     S
Cu317  O328    1.961   .     S
Cu318  O329    1.962   .     S
Cu318  N323    2.032   .     S
Cu318  O331    1.948   .     S
Cu318  O325    1.961   .     S
Cu318  O327    1.931   .     S
H321   C964    1.078   1_554 S
O332   H333    0.989   .     S
N334   H336    1.046   .     S
N334   H335    1.046   .     S
N337   H338    1.046   .     S
N337   H339    1.046   .     S
O340   H341    0.977   .     S
O342   H343    0.978   .     S
N344   H346    1.044   .     S
N344   H345    1.045   .     S
O347   H348    0.991   .     S
O349   H350    0.990   .     S
O349   C960    1.380   .     S
O351   H352    0.992   .     S
O353   H354    0.990   .     S
O355   H1004   0.992   .     S
H356   O1003   0.992   1_554 S
O357   H358    0.990   .     S
O359   H360    0.992   .     S
C361   C377    1.448   .     S
C361   O397    1.296   .     A
C361   O396    1.300   .     A
C362   C363    1.416   .     A
C362   C388    1.413   .     A
C362   C1012   1.424   .     S
C363   C370    1.421   .     A
C363   C367    1.413   .     A
C364   C368    1.417   .     A
C364   C1010   1.424   1_554 S
C364   C1013   1.420   1_554 S
C365   C366    1.415   .     A
C365   C1012   1.420   .     S
C365   C1032   1.421   .     S
C366   C367    1.414   .     A
C366   O419    1.382   .     S
C367   O429    1.384   .     S
C368   C385    1.414   .     A
C368   O423    1.379   .     S
C369   C384    1.410   .     A
C369   C385    1.408   .     A
C369   O404    1.383   .     S
C370   C386    1.418   .     A
C370   C372    1.482   .     S
C371   C377    1.406   .     A
C371   O431    1.383   .     S
C371   C589    1.395   .     S
C372   O399    1.308   .     A
C372   O398    1.303   .     A
C373   C374    1.398   .     A
C373   H391    1.080   .     S
C374   C382    1.450   .     S
C374   C375    1.407   .     A
C375   N406    1.434   .     S
C376   H392    1.084   .     S
C376   C377    1.398   .     A
C376   C591    1.390   .     S
C378   N395    1.363   .     A
C378   N409    1.431   .     S
C378   C235    1.421   1_655 S
C379   O412    1.374   .     S
C379   N394    1.386   .     A
C380   N394    1.385   .     A
C380   O414    1.376   .     S
C381   N416    1.428   .     S
C381   N395    1.364   .     A
C381   C236    1.420   1_655 S
C382   O400    1.296   .     A
C382   O401    1.301   .     A
C383   O402    1.306   .     A
C383   C385    1.484   .     S
C383   O403    1.307   .     A
C384   C1013   1.421   1_554 S
C384   O1069   1.380   1_554 S
C386   C387    1.392   .     A
C386   O425    1.376   .     S
C387   O427    1.381   .     S
C387   C388    1.398   .     A
C388   H1041   1.078   .     S
Cu389  O398    1.948   .     S
Cu389  O402    1.931   .     S
Cu389  O396    1.962   .     S
Cu389  Cu390   2.704   .     S
Cu389  N394    2.032   .     S
Cu389  O400    1.961   .     S
Cu390  O401    1.962   .     S
Cu390  N395    2.032   .     S
Cu390  O403    1.948   .     S
Cu390  O397    1.961   .     S
Cu390  O399    1.931   .     S
H393   C1036   1.078   1_554 S
O404   H405    0.989   .     S
N406   H408    1.046   .     S
N406   H407    1.046   .     S
N409   H410    1.046   .     S
N409   H411    1.046   .     S
O412   H413    0.977   .     S
O414   H415    0.978   .     S
N416   H418    1.044   .     S
N416   H417    1.045   .     S
O419   H420    0.991   .     S
O421   H422    0.990   .     S
O421   C1032   1.380   .     S
O423   H424    0.992   .     S
O425   H426    0.990   .     S
O427   H1076   0.992   .     S
H428   O1075   0.992   1_554 S
O429   H430    0.990   .     S
O431   H432    0.992   .     S
C433   C449    1.448   .     S
C433   O469    1.296   .     A
C433   O468    1.300   .     A
C434   C435    1.416   .     A
C434   C460    1.413   .     A
C434   C1084   1.424   .     S
C435   C442    1.421   .     A
C435   C439    1.413   .     A
C436   C440    1.417   .     A
C436   C1082   1.424   1_554 S
C436   C1085   1.420   1_554 S
C437   C438    1.415   .     A
C437   C1084   1.420   .     S
C437   C1104   1.421   .     S
C438   C439    1.414   .     A
C438   O491    1.382   .     S
C439   O501    1.384   .     S
C440   C457    1.414   .     A
C440   O495    1.379   .     S
C441   C456    1.410   .     A
C441   C457    1.408   .     A
C441   O476    1.383   .     S
C442   C458    1.418   .     A
C442   C444    1.482   .     S
C443   C449    1.406   .     A
C443   O503    1.383   .     S
C443   C13     1.395   1_565 S
C444   O471    1.308   .     A
C444   O470    1.303   .     A
C445   C446    1.398   .     A
C445   H463    1.080   .     S
C446   C454    1.450   .     S
C446   C447    1.407   .     A
C447   N478    1.434   .     S
C448   H464    1.084   .     S
C448   C449    1.398   .     A
C448   C15     1.390   1_565 S
C450   N467    1.363   .     A
C450   N481    1.431   .     S
C450   C523    1.421   .     S
C451   O484    1.374   .     S
C451   N466    1.386   .     A
C451   C594    1.421   1_455 S
C452   N466    1.385   .     A
C452   O486    1.376   .     S
C452   C597    1.420   1_455 S
C453   N488    1.428   .     S
C453   N467    1.364   .     A
C453   C524    1.420   .     S
C454   O472    1.296   .     A
C454   O473    1.301   .     A
C455   O474    1.306   .     A
C455   C457    1.484   .     S
C455   O475    1.307   .     A
C456   C1085   1.421   1_554 S
C456   O1141   1.380   1_554 S
C458   C459    1.392   .     A
C458   O497    1.376   .     S
C459   O499    1.381   .     S
C459   C460    1.398   .     A
C460   H1113   1.078   .     S
Cu461  O470    1.948   .     S
Cu461  O474    1.931   .     S
Cu461  O468    1.962   .     S
Cu461  Cu462   2.704   .     S
Cu461  N466    2.032   .     S
Cu461  O472    1.961   .     S
Cu462  O473    1.962   .     S
Cu462  N467    2.032   .     S
Cu462  O475    1.948   .     S
Cu462  O469    1.961   .     S
Cu462  O471    1.931   .     S
H465   C1108   1.078   1_554 S
O476   H477    0.989   .     S
N478   H480    1.046   .     S
N478   H479    1.046   .     S
N481   H482    1.046   .     S
N481   H483    1.046   .     S
O484   H485    0.977   .     S
O486   H487    0.978   .     S
N488   H490    1.044   .     S
N488   H489    1.045   .     S
O491   H492    0.991   .     S
O493   H494    0.990   .     S
O493   C1104   1.380   .     S
O495   H496    0.992   .     S
O497   H498    0.990   .     S
O499   H1148   0.992   .     S
H500   O1147   0.992   1_554 S
O501   H502    0.990   .     S
O503   H504    0.992   .     S
C505   C521    1.448   .     S
C505   O541    1.296   .     A
C505   O540    1.300   .     A
C506   C507    1.416   .     A
C506   C532    1.413   .     A
C506   C1156   1.424   .     S
C507   C514    1.421   .     A
C507   C511    1.413   .     A
C508   C512    1.417   .     A
C508   C1154   1.424   1_554 S
C508   C1157   1.420   1_554 S
C509   C510    1.415   .     A
C509   C1156   1.420   .     S
C509   C1176   1.421   .     S
C510   C511    1.414   .     A
C510   O563    1.382   .     S
C511   O573    1.384   .     S
C512   C529    1.414   .     A
C512   O567    1.379   .     S
C513   C528    1.410   .     A
C513   C529    1.408   .     A
C513   O548    1.383   .     S
C514   C530    1.418   .     A
C514   C516    1.482   .     S
C515   C521    1.406   .     A
C515   O575    1.383   .     S
C515   C85     1.395   1_565 S
C516   O543    1.308   .     A
C516   O542    1.303   .     A
C517   C518    1.398   .     A
C517   H535    1.080   .     S
C518   C526    1.450   .     S
C518   C519    1.407   .     A
C519   N550    1.434   .     S
C520   H536    1.084   .     S
C520   C521    1.398   .     A
C520   C87     1.390   1_565 S
C522   N539    1.363   .     A
C522   N553    1.431   .     S
C522   C595    1.421   .     S
C523   O556    1.374   .     S
C523   N538    1.386   .     A
C524   N538    1.385   .     A
C524   O558    1.376   .     S
C525   N560    1.428   .     S
C525   N539    1.364   .     A
C525   C596    1.420   .     S
C526   O544    1.296   .     A
C526   O545    1.301   .     A
C527   O546    1.306   .     A
C527   C529    1.484   .     S
C527   O547    1.307   .     A
C528   C1157   1.421   1_554 S
C528   O1213   1.380   1_554 S
C530   C531    1.392   .     A
C530   O569    1.376   .     S
C531   O571    1.381   .     S
C531   C532    1.398   .     A
C532   H1185   1.078   .     S
Cu533  O542    1.948   .     S
Cu533  O546    1.931   .     S
Cu533  O540    1.962   .     S
Cu533  Cu534   2.704   .     S
Cu533  N538    2.032   .     S
Cu533  O544    1.961   .     S
Cu534  O545    1.962   .     S
Cu534  N539    2.032   .     S
Cu534  O547    1.948   .     S
Cu534  O541    1.961   .     S
Cu534  O543    1.931   .     S
H537   C1180   1.078   1_554 S
O548   H549    0.989   .     S
N550   H552    1.046   .     S
N550   H551    1.046   .     S
N553   H554    1.046   .     S
N553   H555    1.046   .     S
O556   H557    0.977   .     S
O558   H559    0.978   .     S
N560   H562    1.044   .     S
N560   H561    1.045   .     S
O563   H564    0.991   .     S
O565   H566    0.990   .     S
O565   C1176   1.380   .     S
O567   H568    0.992   .     S
O569   H570    0.990   .     S
O571   H1220   0.992   .     S
H572   O1219   0.992   1_554 S
O573   H574    0.990   .     S
O575   H576    0.992   .     S
C577   C593    1.448   .     S
C577   O613    1.296   .     A
C577   O612    1.300   .     A
C578   C579    1.416   .     A
C578   C604    1.413   .     A
C578   C1228   1.424   .     S
C579   C586    1.421   .     A
C579   C583    1.413   .     A
C580   C584    1.417   .     A
C580   C1226   1.424   1_554 S
C580   C1229   1.420   1_554 S
C581   C582    1.415   .     A
C581   C1228   1.420   .     S
C581   C1248   1.421   .     S
C582   C583    1.414   .     A
C582   O635    1.382   .     S
C583   O645    1.384   .     S
C584   C601    1.414   .     A
C584   O639    1.379   .     S
C585   C600    1.410   .     A
C585   C601    1.408   .     A
C585   O620    1.383   .     S
C586   C602    1.418   .     A
C586   C588    1.482   .     S
C587   C593    1.406   .     A
C587   O647    1.383   .     S
C587   C157    1.395   1_565 S
C588   O615    1.308   .     A
C588   O614    1.303   .     A
C589   C590    1.398   .     A
C589   H607    1.080   .     S
C590   C598    1.450   .     S
C590   C591    1.407   .     A
C591   N622    1.434   .     S
C592   H608    1.084   .     S
C592   C593    1.398   .     A
C592   C159    1.390   1_565 S
C594   N611    1.363   .     A
C594   N625    1.431   .     S
C594   C451    1.421   1_655 S
C595   O628    1.374   .     S
C595   N610    1.386   .     A
C596   N610    1.385   .     A
C596   O630    1.376   .     S
C597   N632    1.428   .     S
C597   N611    1.364   .     A
C597   C452    1.420   1_655 S
C598   O616    1.296   .     A
C598   O617    1.301   .     A
C599   O618    1.306   .     A
C599   C601    1.484   .     S
C599   O619    1.307   .     A
C600   C1229   1.421   1_554 S
C600   O1285   1.380   1_554 S
C602   C603    1.392   .     A
C602   O641    1.376   .     S
C603   O643    1.381   .     S
C603   C604    1.398   .     A
C604   H1257   1.078   .     S
Cu605  O614    1.948   .     S
Cu605  O618    1.931   .     S
Cu605  O612    1.962   .     S
Cu605  Cu606   2.704   .     S
Cu605  N610    2.032   .     S
Cu605  O616    1.961   .     S
Cu606  O617    1.962   .     S
Cu606  N611    2.032   .     S
Cu606  O619    1.948   .     S
Cu606  O613    1.961   .     S
Cu606  O615    1.931   .     S
H609   C1252   1.078   1_554 S
O620   H621    0.989   .     S
N622   H624    1.046   .     S
N622   H623    1.046   .     S
N625   H626    1.046   .     S
N625   H627    1.046   .     S
O628   H629    0.977   .     S
O630   H631    0.978   .     S
N632   H634    1.044   .     S
N632   H633    1.045   .     S
O635   H636    0.991   .     S
O637   H638    0.990   .     S
O637   C1248   1.380   .     S
O639   H640    0.992   .     S
O641   H642    0.990   .     S
O643   H1292   0.992   .     S
H644   O1291   0.992   1_554 S
O645   H646    0.990   .     S
O647   H648    0.992   .     S
C649   C665    1.448   .     S
C649   O685    1.296   .     A
C649   O684    1.300   .     A
C650   C651    1.416   .     A
C650   C676    1.413   .     A
C650   C4      1.424   1_556 S
C651   C658    1.421   .     A
C651   C655    1.413   .     A
C652   C656    1.417   .     A
C653   C654    1.415   .     A
C653   C4      1.420   1_556 S
C653   C24     1.421   1_556 S
C654   C655    1.414   .     A
C654   O707    1.382   .     S
C655   O717    1.384   .     S
C656   C673    1.414   .     A
C656   O711    1.379   .     S
C657   C672    1.410   .     A
C657   C673    1.408   .     A
C657   O692    1.383   .     S
C658   C674    1.418   .     A
C658   C660    1.482   .     S
C659   C665    1.406   .     A
C659   O719    1.383   .     S
C659   C877    1.395   .     S
C660   O687    1.308   .     A
C660   O686    1.303   .     A
C661   C662    1.398   .     A
C661   H679    1.080   .     S
C661   C1091   1.395   1_545 S
C662   C670    1.450   .     S
C662   C663    1.407   .     A
C663   N694    1.434   .     S
C663   C1096   1.390   1_545 S
C664   H680    1.084   .     S
C664   C665    1.398   .     A
C664   C879    1.390   .     S
C666   N683    1.363   .     A
C666   N697    1.431   .     S
C666   C739    1.421   .     S
C667   O700    1.374   .     S
C667   N682    1.386   .     A
C667   C810    1.421   1_455 S
C668   N682    1.385   .     A
C668   O702    1.376   .     S
C668   C813    1.420   1_455 S
C669   N704    1.428   .     S
C669   N683    1.364   .     A
C669   C740    1.420   .     S
C670   O688    1.296   .     A
C670   O689    1.301   .     A
C671   O690    1.306   .     A
C671   C673    1.484   .     S
C671   O691    1.307   .     A
C674   C675    1.392   .     A
C674   O713    1.376   .     S
C675   O715    1.381   .     S
C675   C676    1.398   .     A
C676   H33     1.078   1_556 S
Cu677  O686    1.948   .     S
Cu677  O690    1.931   .     S
Cu677  O684    1.962   .     S
Cu677  Cu678   2.704   .     S
Cu677  N682    2.032   .     S
Cu677  O688    1.961   .     S
Cu678  O689    1.962   .     S
Cu678  N683    2.032   .     S
Cu678  O691    1.948   .     S
Cu678  O685    1.961   .     S
Cu678  O687    1.931   .     S
O692   H693    0.989   .     S
N694   H696    1.046   .     S
N694   H695    1.046   .     S
N697   H698    1.046   .     S
N697   H699    1.046   .     S
O700   H701    0.977   .     S
O702   H703    0.978   .     S
N704   H706    1.044   .     S
N704   H705    1.045   .     S
O707   H708    0.991   .     S
O709   H710    0.990   .     S
O709   C24     1.380   1_556 S
O711   H712    0.992   .     S
O713   H714    0.990   .     S
O715   H68     0.992   1_556 S
O717   H718    0.990   .     S
O719   H720    0.992   .     S
C721   C737    1.448   .     S
C721   O757    1.296   .     A
C721   O756    1.300   .     A
C722   C723    1.416   .     A
C722   C748    1.413   .     A
C722   C76     1.424   1_556 S
C723   C730    1.421   .     A
C723   C727    1.413   .     A
C724   C728    1.417   .     A
C725   C726    1.415   .     A
C725   C76     1.420   1_556 S
C725   C96     1.421   1_556 S
C726   C727    1.414   .     A
C726   O779    1.382   .     S
C727   O789    1.384   .     S
C728   C745    1.414   .     A
C728   O783    1.379   .     S
C729   C744    1.410   .     A
C729   C745    1.408   .     A
C729   O764    1.383   .     S
C730   C746    1.418   .     A
C730   C732    1.482   .     S
C731   C737    1.406   .     A
C731   O791    1.383   .     S
C731   C949    1.395   .     S
C732   O759    1.308   .     A
C732   O758    1.303   .     A
C733   C734    1.398   .     A
C733   H751    1.080   .     S
C733   C1163   1.395   1_545 S
C734   C742    1.450   .     S
C734   C735    1.407   .     A
C735   N766    1.434   .     S
C735   C1168   1.390   1_545 S
C736   H752    1.084   .     S
C736   C737    1.398   .     A
C736   C951    1.390   .     S
C738   N755    1.363   .     A
C738   N769    1.431   .     S
C738   C811    1.421   .     S
C739   O772    1.374   .     S
C739   N754    1.386   .     A
C740   N754    1.385   .     A
C740   O774    1.376   .     S
C741   N776    1.428   .     S
C741   N755    1.364   .     A
C741   C812    1.420   .     S
C742   O760    1.296   .     A
C742   O761    1.301   .     A
C743   O762    1.306   .     A
C743   C745    1.484   .     S
C743   O763    1.307   .     A
C746   C747    1.392   .     A
C746   O785    1.376   .     S
C747   O787    1.381   .     S
C747   C748    1.398   .     A
C748   H105    1.078   1_556 S
Cu749  O758    1.948   .     S
Cu749  O762    1.931   .     S
Cu749  O756    1.962   .     S
Cu749  Cu750   2.704   .     S
Cu749  N754    2.032   .     S
Cu749  O760    1.961   .     S
Cu750  O761    1.962   .     S
Cu750  N755    2.032   .     S
Cu750  O763    1.948   .     S
Cu750  O757    1.961   .     S
Cu750  O759    1.931   .     S
O764   H765    0.989   .     S
N766   H768    1.046   .     S
N766   H767    1.046   .     S
N769   H770    1.046   .     S
N769   H771    1.046   .     S
O772   H773    0.977   .     S
O774   H775    0.978   .     S
N776   H778    1.044   .     S
N776   H777    1.045   .     S
O779   H780    0.991   .     S
O781   H782    0.990   .     S
O781   C96     1.380   1_556 S
O783   H784    0.992   .     S
O785   H786    0.990   .     S
O787   H140    0.992   1_556 S
O789   H790    0.990   .     S
O791   H792    0.992   .     S
C793   C809    1.448   .     S
C793   O829    1.296   .     A
C793   O828    1.300   .     A
C794   C795    1.416   .     A
C794   C820    1.413   .     A
C794   C148    1.424   1_556 S
C795   C802    1.421   .     A
C795   C799    1.413   .     A
C796   C800    1.417   .     A
C797   C798    1.415   .     A
C797   C148    1.420   1_556 S
C797   C168    1.421   1_556 S
C798   C799    1.414   .     A
C798   O851    1.382   .     S
C799   O861    1.384   .     S
C800   C817    1.414   .     A
C800   O855    1.379   .     S
C801   C816    1.410   .     A
C801   C817    1.408   .     A
C801   O836    1.383   .     S
C802   C818    1.418   .     A
C802   C804    1.482   .     S
C803   C809    1.406   .     A
C803   O863    1.383   .     S
C803   C1021   1.395   .     S
C804   O831    1.308   .     A
C804   O830    1.303   .     A
C805   C806    1.398   .     A
C805   H823    1.080   .     S
C805   C1235   1.395   1_545 S
C806   C814    1.450   .     S
C806   C807    1.407   .     A
C807   N838    1.434   .     S
C807   C1240   1.390   1_545 S
C808   H824    1.084   .     S
C808   C809    1.398   .     A
C808   C1023   1.390   .     S
C810   N827    1.363   .     A
C810   N841    1.431   .     S
C810   C667    1.421   1_655 S
C811   O844    1.374   .     S
C811   N826    1.386   .     A
C812   N826    1.385   .     A
C812   O846    1.376   .     S
C813   N848    1.428   .     S
C813   N827    1.364   .     A
C813   C668    1.420   1_655 S
C814   O832    1.296   .     A
C814   O833    1.301   .     A
C815   O834    1.306   .     A
C815   C817    1.484   .     S
C815   O835    1.307   .     A
C818   C819    1.392   .     A
C818   O857    1.376   .     S
C819   O859    1.381   .     S
C819   C820    1.398   .     A
C820   H177    1.078   1_556 S
Cu821  O830    1.948   .     S
Cu821  O834    1.931   .     S
Cu821  O828    1.962   .     S
Cu821  Cu822   2.704   .     S
Cu821  N826    2.032   .     S
Cu821  O832    1.961   .     S
Cu822  O833    1.962   .     S
Cu822  N827    2.032   .     S
Cu822  O835    1.948   .     S
Cu822  O829    1.961   .     S
Cu822  O831    1.931   .     S
O836   H837    0.989   .     S
N838   H840    1.046   .     S
N838   H839    1.046   .     S
N841   H842    1.046   .     S
N841   H843    1.046   .     S
O844   H845    0.977   .     S
O846   H847    0.978   .     S
N848   H850    1.044   .     S
N848   H849    1.045   .     S
O851   H852    0.991   .     S
O853   H854    0.990   .     S
O853   C168    1.380   1_556 S
O855   H856    0.992   .     S
O857   H858    0.990   .     S
O859   H212    0.992   1_556 S
O861   H862    0.990   .     S
O863   H864    0.992   .     S
C865   C881    1.448   .     S
C865   O901    1.296   .     A
C865   O900    1.300   .     A
C866   C867    1.416   .     A
C866   C892    1.413   .     A
C866   C220    1.424   1_556 S
C867   C874    1.421   .     A
C867   C871    1.413   .     A
C868   C872    1.417   .     A
C869   C870    1.415   .     A
C869   C220    1.420   1_556 S
C869   C240    1.421   1_556 S
C870   C871    1.414   .     A
C870   O923    1.382   .     S
C871   O933    1.384   .     S
C872   C889    1.414   .     A
C872   O927    1.379   .     S
C873   C888    1.410   .     A
C873   C889    1.408   .     A
C873   O908    1.383   .     S
C874   C890    1.418   .     A
C874   C876    1.482   .     S
C875   C881    1.406   .     A
C875   O935    1.383   .     S
C875   C1093   1.395   .     S
C876   O903    1.308   .     A
C876   O902    1.303   .     A
C877   C878    1.398   .     A
C877   H895    1.080   .     S
C878   C886    1.450   .     S
C878   C879    1.407   .     A
C879   N910    1.434   .     S
C880   H896    1.084   .     S
C880   C881    1.398   .     A
C880   C1095   1.390   .     S
C882   N899    1.363   .     A
C882   N913    1.431   .     S
C882   C955    1.421   .     S
C883   O916    1.374   .     S
C883   N898    1.386   .     A
C883   C1026   1.421   1_455 S
C884   N898    1.385   .     A
C884   O918    1.376   .     S
C884   C1029   1.420   1_455 S
C885   N920    1.428   .     S
C885   N899    1.364   .     A
C885   C956    1.420   .     S
C886   O904    1.296   .     A
C886   O905    1.301   .     A
C887   O906    1.306   .     A
C887   C889    1.484   .     S
C887   O907    1.307   .     A
C890   C891    1.392   .     A
C890   O929    1.376   .     S
C891   O931    1.381   .     S
C891   C892    1.398   .     A
C892   H249    1.078   1_556 S
Cu893  O902    1.948   .     S
Cu893  O906    1.931   .     S
Cu893  O900    1.962   .     S
Cu893  Cu894   2.704   .     S
Cu893  N898    2.032   .     S
Cu893  O904    1.961   .     S
Cu894  O905    1.962   .     S
Cu894  N899    2.032   .     S
Cu894  O907    1.948   .     S
Cu894  O901    1.961   .     S
Cu894  O903    1.931   .     S
O908   H909    0.989   .     S
N910   H912    1.046   .     S
N910   H911    1.046   .     S
N913   H914    1.046   .     S
N913   H915    1.046   .     S
O916   H917    0.977   .     S
O918   H919    0.978   .     S
N920   H922    1.044   .     S
N920   H921    1.045   .     S
O923   H924    0.991   .     S
O925   H926    0.990   .     S
O925   C240    1.380   1_556 S
O927   H928    0.992   .     S
O929   H930    0.990   .     S
O931   H284    0.992   1_556 S
O933   H934    0.990   .     S
O935   H936    0.992   .     S
C937   C953    1.448   .     S
C937   O973    1.296   .     A
C937   O972    1.300   .     A
C938   C939    1.416   .     A
C938   C964    1.413   .     A
C938   C292    1.424   1_556 S
C939   C946    1.421   .     A
C939   C943    1.413   .     A
C940   C944    1.417   .     A
C941   C942    1.415   .     A
C941   C292    1.420   1_556 S
C941   C312    1.421   1_556 S
C942   C943    1.414   .     A
C942   O995    1.382   .     S
C943   O1005   1.384   .     S
C944   C961    1.414   .     A
C944   O999    1.379   .     S
C945   C960    1.410   .     A
C945   C961    1.408   .     A
C945   O980    1.383   .     S
C946   C962    1.418   .     A
C946   C948    1.482   .     S
C947   C953    1.406   .     A
C947   O1007   1.383   .     S
C947   C1165   1.395   .     S
C948   O975    1.308   .     A
C948   O974    1.303   .     A
C949   C950    1.398   .     A
C949   H967    1.080   .     S
C950   C958    1.450   .     S
C950   C951    1.407   .     A
C951   N982    1.434   .     S
C952   H968    1.084   .     S
C952   C953    1.398   .     A
C952   C1167   1.390   .     S
C954   N971    1.363   .     A
C954   N985    1.431   .     S
C954   C1027   1.421   .     S
C955   O988    1.374   .     S
C955   N970    1.386   .     A
C956   N970    1.385   .     A
C956   O990    1.376   .     S
C957   N992    1.428   .     S
C957   N971    1.364   .     A
C957   C1028   1.420   .     S
C958   O976    1.296   .     A
C958   O977    1.301   .     A
C959   O978    1.306   .     A
C959   C961    1.484   .     S
C959   O979    1.307   .     A
C962   C963    1.392   .     A
C962   O1001   1.376   .     S
C963   O1003   1.381   .     S
C963   C964    1.398   .     A
C964   H321    1.078   1_556 S
Cu965  O974    1.948   .     S
Cu965  O978    1.931   .     S
Cu965  O972    1.962   .     S
Cu965  Cu966   2.704   .     S
Cu965  N970    2.032   .     S
Cu965  O976    1.961   .     S
Cu966  O977    1.962   .     S
Cu966  N971    2.032   .     S
Cu966  O979    1.948   .     S
Cu966  O973    1.961   .     S
Cu966  O975    1.931   .     S
O980   H981    0.989   .     S
N982   H984    1.046   .     S
N982   H983    1.046   .     S
N985   H986    1.046   .     S
N985   H987    1.046   .     S
O988   H989    0.977   .     S
O990   H991    0.978   .     S
N992   H994    1.044   .     S
N992   H993    1.045   .     S
O995   H996    0.991   .     S
O997   H998    0.990   .     S
O997   C312    1.380   1_556 S
O999   H1000   0.992   .     S
O1001  H1002   0.990   .     S
O1003  H356    0.992   1_556 S
O1005  H1006   0.990   .     S
O1007  H1008   0.992   .     S
C1009  C1025   1.448   .     S
C1009  O1045   1.296   .     A
C1009  O1044   1.300   .     A
C1010  C1011   1.416   .     A
C1010  C1036   1.413   .     A
C1010  C364    1.424   1_556 S
C1011  C1018   1.421   .     A
C1011  C1015   1.413   .     A
C1012  C1016   1.417   .     A
C1013  C1014   1.415   .     A
C1013  C364    1.420   1_556 S
C1013  C384    1.421   1_556 S
C1014  C1015   1.414   .     A
C1014  O1067   1.382   .     S
C1015  O1077   1.384   .     S
C1016  C1033   1.414   .     A
C1016  O1071   1.379   .     S
C1017  C1032   1.410   .     A
C1017  C1033   1.408   .     A
C1017  O1052   1.383   .     S
C1018  C1034   1.418   .     A
C1018  C1020   1.482   .     S
C1019  C1025   1.406   .     A
C1019  O1079   1.383   .     S
C1019  C1237   1.395   .     S
C1020  O1047   1.308   .     A
C1020  O1046   1.303   .     A
C1021  C1022   1.398   .     A
C1021  H1039   1.080   .     S
C1022  C1030   1.450   .     S
C1022  C1023   1.407   .     A
C1023  N1054   1.434   .     S
C1024  H1040   1.084   .     S
C1024  C1025   1.398   .     A
C1024  C1239   1.390   .     S
C1026  N1043   1.363   .     A
C1026  N1057   1.431   .     S
C1026  C883    1.421   1_655 S
C1027  O1060   1.374   .     S
C1027  N1042   1.386   .     A
C1028  N1042   1.385   .     A
C1028  O1062   1.376   .     S
C1029  N1064   1.428   .     S
C1029  N1043   1.364   .     A
C1029  C884    1.420   1_655 S
C1030  O1048   1.296   .     A
C1030  O1049   1.301   .     A
C1031  O1050   1.306   .     A
C1031  C1033   1.484   .     S
C1031  O1051   1.307   .     A
C1034  C1035   1.392   .     A
C1034  O1073   1.376   .     S
C1035  O1075   1.381   .     S
C1035  C1036   1.398   .     A
C1036  H393    1.078   1_556 S
Cu1037 O1046   1.948   .     S
Cu1037 O1050   1.931   .     S
Cu1037 O1044   1.962   .     S
Cu1037 Cu1038  2.704   .     S
Cu1037 N1042   2.032   .     S
Cu1037 O1048   1.961   .     S
Cu1038 O1049   1.962   .     S
Cu1038 N1043   2.032   .     S
Cu1038 O1051   1.948   .     S
Cu1038 O1045   1.961   .     S
Cu1038 O1047   1.931   .     S
O1052  H1053   0.989   .     S
N1054  H1056   1.046   .     S
N1054  H1055   1.046   .     S
N1057  H1058   1.046   .     S
N1057  H1059   1.046   .     S
O1060  H1061   0.977   .     S
O1062  H1063   0.978   .     S
N1064  H1066   1.044   .     S
N1064  H1065   1.045   .     S
O1067  H1068   0.991   .     S
O1069  H1070   0.990   .     S
O1069  C384    1.380   1_556 S
O1071  H1072   0.992   .     S
O1073  H1074   0.990   .     S
O1075  H428    0.992   1_556 S
O1077  H1078   0.990   .     S
O1079  H1080   0.992   .     S
C1081  C1097   1.448   .     S
C1081  O1117   1.296   .     A
C1081  O1116   1.300   .     A
C1082  C1083   1.416   .     A
C1082  C1108   1.413   .     A
C1082  C436    1.424   1_556 S
C1083  C1090   1.421   .     A
C1083  C1087   1.413   .     A
C1084  C1088   1.417   .     A
C1085  C1086   1.415   .     A
C1085  C436    1.420   1_556 S
C1085  C456    1.421   1_556 S
C1086  C1087   1.414   .     A
C1086  O1139   1.382   .     S
C1087  O1149   1.384   .     S
C1088  C1105   1.414   .     A
C1088  O1143   1.379   .     S
C1089  C1104   1.410   .     A
C1089  C1105   1.408   .     A
C1089  O1124   1.383   .     S
C1090  C1106   1.418   .     A
C1090  C1092   1.482   .     S
C1091  C1097   1.406   .     A
C1091  O1151   1.383   .     S
C1091  C661    1.395   1_565 S
C1092  O1119   1.308   .     A
C1092  O1118   1.303   .     A
C1093  C1094   1.398   .     A
C1093  H1111   1.080   .     S
C1094  C1102   1.450   .     S
C1094  C1095   1.407   .     A
C1095  N1126   1.434   .     S
C1096  H1112   1.084   .     S
C1096  C1097   1.398   .     A
C1096  C663    1.390   1_565 S
C1098  N1115   1.363   .     A
C1098  N1129   1.431   .     S
C1098  C1171   1.421   .     S
C1099  O1132   1.374   .     S
C1099  N1114   1.386   .     A
C1099  C1242   1.421   1_455 S
C1100  N1114   1.385   .     A
C1100  O1134   1.376   .     S
C1100  C1245   1.420   1_455 S
C1101  N1136   1.428   .     S
C1101  N1115   1.364   .     A
C1101  C1172   1.420   .     S
C1102  O1120   1.296   .     A
C1102  O1121   1.301   .     A
C1103  O1122   1.306   .     A
C1103  C1105   1.484   .     S
C1103  O1123   1.307   .     A
C1106  C1107   1.392   .     A
C1106  O1145   1.376   .     S
C1107  O1147   1.381   .     S
C1107  C1108   1.398   .     A
C1108  H465    1.078   1_556 S
Cu1109 O1118   1.948   .     S
Cu1109 O1122   1.931   .     S
Cu1109 O1116   1.962   .     S
Cu1109 Cu1110  2.704   .     S
Cu1109 N1114   2.032   .     S
Cu1109 O1120   1.961   .     S
Cu1110 O1121   1.962   .     S
Cu1110 N1115   2.032   .     S
Cu1110 O1123   1.948   .     S
Cu1110 O1117   1.961   .     S
Cu1110 O1119   1.931   .     S
O1124  H1125   0.989   .     S
N1126  H1128   1.046   .     S
N1126  H1127   1.046   .     S
N1129  H1130   1.046   .     S
N1129  H1131   1.046   .     S
O1132  H1133   0.977   .     S
O1134  H1135   0.978   .     S
N1136  H1138   1.044   .     S
N1136  H1137   1.045   .     S
O1139  H1140   0.991   .     S
O1141  H1142   0.990   .     S
O1141  C456    1.380   1_556 S
O1143  H1144   0.992   .     S
O1145  H1146   0.990   .     S
O1147  H500    0.992   1_556 S
O1149  H1150   0.990   .     S
O1151  H1152   0.992   .     S
C1153  C1169   1.448   .     S
C1153  O1189   1.296   .     A
C1153  O1188   1.300   .     A
C1154  C1155   1.416   .     A
C1154  C1180   1.413   .     A
C1154  C508    1.424   1_556 S
C1155  C1162   1.421   .     A
C1155  C1159   1.413   .     A
C1156  C1160   1.417   .     A
C1157  C1158   1.415   .     A
C1157  C508    1.420   1_556 S
C1157  C528    1.421   1_556 S
C1158  C1159   1.414   .     A
C1158  O1211   1.382   .     S
C1159  O1221   1.384   .     S
C1160  C1177   1.414   .     A
C1160  O1215   1.379   .     S
C1161  C1176   1.410   .     A
C1161  C1177   1.408   .     A
C1161  O1196   1.383   .     S
C1162  C1178   1.418   .     A
C1162  C1164   1.482   .     S
C1163  C1169   1.406   .     A
C1163  O1223   1.383   .     S
C1163  C733    1.395   1_565 S
C1164  O1191   1.308   .     A
C1164  O1190   1.303   .     A
C1165  C1166   1.398   .     A
C1165  H1183   1.080   .     S
C1166  C1174   1.450   .     S
C1166  C1167   1.407   .     A
C1167  N1198   1.434   .     S
C1168  H1184   1.084   .     S
C1168  C1169   1.398   .     A
C1168  C735    1.390   1_565 S
C1170  N1187   1.363   .     A
C1170  N1201   1.431   .     S
C1170  C1243   1.421   .     S
C1171  O1204   1.374   .     S
C1171  N1186   1.386   .     A
C1172  N1186   1.385   .     A
C1172  O1206   1.376   .     S
C1173  N1208   1.428   .     S
C1173  N1187   1.364   .     A
C1173  C1244   1.420   .     S
C1174  O1192   1.296   .     A
C1174  O1193   1.301   .     A
C1175  O1194   1.306   .     A
C1175  C1177   1.484   .     S
C1175  O1195   1.307   .     A
C1178  C1179   1.392   .     A
C1178  O1217   1.376   .     S
C1179  O1219   1.381   .     S
C1179  C1180   1.398   .     A
C1180  H537    1.078   1_556 S
Cu1181 O1190   1.948   .     S
Cu1181 O1194   1.931   .     S
Cu1181 O1188   1.962   .     S
Cu1181 Cu1182  2.704   .     S
Cu1181 N1186   2.032   .     S
Cu1181 O1192   1.961   .     S
Cu1182 O1193   1.962   .     S
Cu1182 N1187   2.032   .     S
Cu1182 O1195   1.948   .     S
Cu1182 O1189   1.961   .     S
Cu1182 O1191   1.931   .     S
O1196  H1197   0.989   .     S
N1198  H1200   1.046   .     S
N1198  H1199   1.046   .     S
N1201  H1202   1.046   .     S
N1201  H1203   1.046   .     S
O1204  H1205   0.977   .     S
O1206  H1207   0.978   .     S
N1208  H1210   1.044   .     S
N1208  H1209   1.045   .     S
O1211  H1212   0.991   .     S
O1213  H1214   0.990   .     S
O1213  C528    1.380   1_556 S
O1215  H1216   0.992   .     S
O1217  H1218   0.990   .     S
O1219  H572    0.992   1_556 S
O1221  H1222   0.990   .     S
O1223  H1224   0.992   .     S
C1225  C1241   1.448   .     S
C1225  O1261   1.296   .     A
C1225  O1260   1.300   .     A
C1226  C1227   1.416   .     A
C1226  C1252   1.413   .     A
C1226  C580    1.424   1_556 S
C1227  C1234   1.421   .     A
C1227  C1231   1.413   .     A
C1228  C1232   1.417   .     A
C1229  C1230   1.415   .     A
C1229  C580    1.420   1_556 S
C1229  C600    1.421   1_556 S
C1230  C1231   1.414   .     A
C1230  O1283   1.382   .     S
C1231  O1293   1.384   .     S
C1232  C1249   1.414   .     A
C1232  O1287   1.379   .     S
C1233  C1248   1.410   .     A
C1233  C1249   1.408   .     A
C1233  O1268   1.383   .     S
C1234  C1250   1.418   .     A
C1234  C1236   1.482   .     S
C1235  C1241   1.406   .     A
C1235  O1295   1.383   .     S
C1235  C805    1.395   1_565 S
C1236  O1263   1.308   .     A
C1236  O1262   1.303   .     A
C1237  C1238   1.398   .     A
C1237  H1255   1.080   .     S
C1238  C1246   1.450   .     S
C1238  C1239   1.407   .     A
C1239  N1270   1.434   .     S
C1240  H1256   1.084   .     S
C1240  C1241   1.398   .     A
C1240  C807    1.390   1_565 S
C1242  N1259   1.363   .     A
C1242  N1273   1.431   .     S
C1242  C1099   1.421   1_655 S
C1243  O1276   1.374   .     S
C1243  N1258   1.386   .     A
C1244  N1258   1.385   .     A
C1244  O1278   1.376   .     S
C1245  N1280   1.428   .     S
C1245  N1259   1.364   .     A
C1245  C1100   1.420   1_655 S
C1246  O1264   1.296   .     A
C1246  O1265   1.301   .     A
C1247  O1266   1.306   .     A
C1247  C1249   1.484   .     S
C1247  O1267   1.307   .     A
C1250  C1251   1.392   .     A
C1250  O1289   1.376   .     S
C1251  O1291   1.381   .     S
C1251  C1252   1.398   .     A
C1252  H609    1.078   1_556 S
Cu1253 O1262   1.948   .     S
Cu1253 O1266   1.931   .     S
Cu1253 O1260   1.962   .     S
Cu1253 Cu1254  2.704   .     S
Cu1253 N1258   2.032   .     S
Cu1253 O1264   1.961   .     S
Cu1254 O1265   1.962   .     S
Cu1254 N1259   2.032   .     S
Cu1254 O1267   1.948   .     S
Cu1254 O1261   1.961   .     S
Cu1254 O1263   1.931   .     S
O1268  H1269   0.989   .     S
N1270  H1272   1.046   .     S
N1270  H1271   1.046   .     S
N1273  H1274   1.046   .     S
N1273  H1275   1.046   .     S
O1276  H1277   0.977   .     S
O1278  H1279   0.978   .     S
N1280  H1282   1.044   .     S
N1280  H1281   1.045   .     S
O1283  H1284   0.991   .     S
O1285  H1286   0.990   .     S
O1285  C600    1.380   1_556 S
O1287  H1288   0.992   .     S
O1289  H1290   0.990   .     S
O1291  H644    0.992   1_556 S
O1293  H1294   0.990   .     S
O1295  H1296   0.992   .     S
