data_str_m2_o2_o10_pcu_sym.87
_audit_creation_date              2020-01-03
_audit_creation_method            'Materials Studio'
_symmetry_space_group_name_H-M    'P1'
_symmetry_Int_Tables_number       1
_symmetry_cell_setting            triclinic
loop_
_symmetry_equiv_pos_as_xyz
  x,y,z
_cell_length_a                    26.1638
_cell_length_b                    30.2002
_cell_length_c                    27.9651
_cell_angle_alpha                 90.0985
_cell_angle_beta                  97.8360
_cell_angle_gamma                 92.2780
loop_
_atom_site_label
_atom_site_type_symbol
_atom_site_fract_x
_atom_site_fract_y
_atom_site_fract_z
_atom_site_U_iso_or_equiv
_atom_site_adp_type
_atom_site_occupancy
C1     C     0.16663   0.16516   0.24991   0.00000  Uiso   1.00
C2     C     0.18668   0.28901   0.44810   0.00000  Uiso   1.00
C3     C     0.16302   0.25242   0.02684   0.00000  Uiso   1.00
C4     C     0.16420   0.25336   0.47233   0.00000  Uiso   1.00
C5     C     0.06800   0.24967   0.23764   0.00000  Uiso   1.00
C6     C     0.26534   0.25000   0.26238   0.00000  Uiso   1.00
C7     C     0.01267   0.24897   0.23091   0.00000  Uiso   1.00
C8     C     0.32067   0.25010   0.26918   0.00000  Uiso   1.00
C9     C     0.13508   0.04611   0.27300   0.00000  Uiso   1.00
C10    C     0.16011   0.45315   0.20799   0.00000  Uiso   1.00
C11    C     0.13353   0.09198   0.27331   0.00000  Uiso   1.00
C12    C     0.16668   0.33510   0.25008   0.00000  Uiso   1.00
C13    C     0.15846   0.40712   0.20730   0.00000  Uiso   1.00
C14    C     0.16816   0.11719   0.24972   0.00000  Uiso   1.00
C15    C     0.16762   0.38367   0.25057   0.00000  Uiso   1.00
C16    C     0.20476   0.09659   0.22613   0.00000  Uiso   1.00
C17    C     0.17854   0.40689   0.29452   0.00000  Uiso   1.00
C18    C     0.20810   0.05039   0.22700   0.00000  Uiso   1.00
C19    C     0.18216   0.45325   0.29565   0.00000  Uiso   1.00
C20    C     0.17243   0.02505   0.25058   0.00000  Uiso   1.00
C21    C     0.17239   0.47645   0.25170   0.00000  Uiso   1.00
C22    C     0.24977   0.02941   0.20487   0.00000  Uiso   1.00
C23    C     0.20633   0.26820   0.05810   0.00000  Uiso   1.00
C24    C     0.19761   0.47674   0.34250   0.00000  Uiso   1.00
C25    C     0.24718   0.29871   0.13658   0.00000  Uiso   1.00
C26    C     0.10962   0.18115   0.36636   0.00000  Uiso   1.00
C27    C     0.09150   0.19910   0.12084   0.00000  Uiso   1.00
C28    C     0.22945   0.31188   0.37745   0.00000  Uiso   1.00
C29    C     0.07005   0.22466   0.01789   0.00000  Uiso   1.00
C30    C     0.19947   0.33239   0.47364   0.00000  Uiso   1.00
C31    C     0.14465   0.21651   0.44417   0.00000  Uiso   1.00
C32    C     0.20572   0.27101   0.10833   0.00000  Uiso   1.00
C33    C     0.14158   0.21687   0.39348   0.00000  Uiso   1.00
C34    C     0.12663   0.22883   0.09979   0.00000  Uiso   1.00
C35    C     0.19267   0.28368   0.39828   0.00000  Uiso   1.00
C36    C     0.12080   0.23420   0.04845   0.00000  Uiso   1.00
Cu37   Cu    0.16667   0.25000   0.29822   0.00000  Uiso   1.00
Cu38   Cu    0.16667   0.25001   0.20179   0.00000  Uiso   1.00
H39    H     0.32608   0.24740   0.19421   0.00000  Uiso   1.00
H40    H     0.12898   0.18805   0.46158   0.00000  Uiso   1.00
H41    H     0.25587   0.49424   0.20888   0.00000  Uiso   1.00
H42    H     0.20559   0.01225   0.34369   0.00000  Uiso   1.00
H43    H     0.24122   0.31467   0.16973   0.00000  Uiso   1.00
H44    H     0.09089   0.18624   0.33016   0.00000  Uiso   1.00
H45    H     0.06193   0.24009   0.48283   0.00000  Uiso   1.00
H46    H     0.18259   0.33974   0.00593   0.00000  Uiso   1.00
H47    H     0.00731   0.25133   0.30593   0.00000  Uiso   1.00
H48    H     0.10735   0.02684   0.29068   0.00000  Uiso   1.00
H49    H     0.15200   0.47080   0.17427   0.00000  Uiso   1.00
H50    H     0.10472   0.10774   0.29109   0.00000  Uiso   1.00
H51    H     0.14952   0.38994   0.17298   0.00000  Uiso   1.00
H52    H     0.23166   0.11683   0.20843   0.00000  Uiso   1.00
H53    H     0.18521   0.38886   0.32800   0.00000  Uiso   1.00
H54    H     0.23989   0.28095   0.04302   0.00000  Uiso   1.00
N55    N     0.16667   0.25001   0.12935   0.00000  Uiso   1.00
N56    N     0.16667   0.24999   0.37066   0.00000  Uiso   1.00
N57    N     0.06335   0.17489   0.13734   0.00000  Uiso   1.00
N58    N     0.25962   0.33425   0.36125   0.00000  Uiso   1.00
O59    O     0.16667   0.18573   0.29072   0.00000  Uiso   1.00
O60    O     0.20211   0.45657   0.38057   0.00000  Uiso   1.00
O61    O     0.28881   0.30536   0.12213   0.00000  Uiso   1.00
O62    O     0.10247   0.14527   0.38496   0.00000  Uiso   1.00
O63    O     0.03654   0.20021   0.03113   0.00000  Uiso   1.00
O64    O     0.22797   0.36072   0.45901   0.00000  Uiso   1.00
O65    O     0.16666   0.31428   0.20929   0.00000  Uiso   1.00
O66    O     0.16667   0.18573   0.20928   0.00000  Uiso   1.00
O67    O     0.16666   0.31427   0.29072   0.00000  Uiso   1.00
O68    O     0.09161   0.25000   0.28132   0.00000  Uiso   1.00
O69    O     0.24172   0.25001   0.21868   0.00000  Uiso   1.00
O70    O     0.09161   0.25000   0.19989   0.00000  Uiso   1.00
O71    O     0.24172   0.25000   0.30012   0.00000  Uiso   1.00
O72    O     0.27827   0.05131   0.18208   0.00000  Uiso   1.00
C73    C     0.49996   0.16516   0.24991   0.00000  Uiso   1.00
C74    C     0.52002   0.28901   0.44810   0.00000  Uiso   1.00
C75    C     0.49635   0.25242   0.02684   0.00000  Uiso   1.00
C76    C     0.49753   0.25336   0.47233   0.00000  Uiso   1.00
C77    C     0.40133   0.24967   0.23764   0.00000  Uiso   1.00
C78    C     0.59867   0.25000   0.26238   0.00000  Uiso   1.00
C79    C     0.34601   0.24897   0.23091   0.00000  Uiso   1.00
C80    C     0.65400   0.25010   0.26918   0.00000  Uiso   1.00
C81    C     0.46841   0.04611   0.27300   0.00000  Uiso   1.00
C82    C     0.49344   0.45315   0.20799   0.00000  Uiso   1.00
C83    C     0.46687   0.09198   0.27331   0.00000  Uiso   1.00
C84    C     0.50001   0.33510   0.25008   0.00000  Uiso   1.00
C85    C     0.49179   0.40712   0.20730   0.00000  Uiso   1.00
C86    C     0.50150   0.11719   0.24972   0.00000  Uiso   1.00
C87    C     0.50095   0.38367   0.25057   0.00000  Uiso   1.00
C88    C     0.53810   0.09659   0.22613   0.00000  Uiso   1.00
C89    C     0.51187   0.40689   0.29452   0.00000  Uiso   1.00
C90    C     0.54144   0.05039   0.22700   0.00000  Uiso   1.00
C91    C     0.51549   0.45325   0.29565   0.00000  Uiso   1.00
C92    C     0.50576   0.02505   0.25058   0.00000  Uiso   1.00
C93    C     0.50572   0.47645   0.25170   0.00000  Uiso   1.00
C94    C     0.58310   0.02941   0.20487   0.00000  Uiso   1.00
C95    C     0.53966   0.26820   0.05810   0.00000  Uiso   1.00
C96    C     0.53095   0.47674   0.34250   0.00000  Uiso   1.00
C97    C     0.58052   0.29871   0.13658   0.00000  Uiso   1.00
C98    C     0.44295   0.18115   0.36636   0.00000  Uiso   1.00
C99    C     0.42484   0.19910   0.12084   0.00000  Uiso   1.00
C100   C     0.56279   0.31188   0.37745   0.00000  Uiso   1.00
C101   C     0.40338   0.22466   0.01789   0.00000  Uiso   1.00
C102   C     0.53281   0.33239   0.47364   0.00000  Uiso   1.00
C103   C     0.47798   0.21651   0.44417   0.00000  Uiso   1.00
C104   C     0.53906   0.27101   0.10833   0.00000  Uiso   1.00
C105   C     0.47491   0.21687   0.39348   0.00000  Uiso   1.00
C106   C     0.45996   0.22883   0.09979   0.00000  Uiso   1.00
C107   C     0.52600   0.28368   0.39828   0.00000  Uiso   1.00
C108   C     0.45413   0.23420   0.04845   0.00000  Uiso   1.00
Cu109  Cu    0.50000   0.25000   0.29822   0.00000  Uiso   1.00
Cu110  Cu    0.50000   0.25001   0.20179   0.00000  Uiso   1.00
H111   H     0.65941   0.24740   0.19421   0.00000  Uiso   1.00
H112   H     0.46231   0.18805   0.46158   0.00000  Uiso   1.00
H113   H     0.58921   0.49424   0.20888   0.00000  Uiso   1.00
H114   H     0.53892   0.01225   0.34369   0.00000  Uiso   1.00
H115   H     0.57455   0.31467   0.16973   0.00000  Uiso   1.00
H116   H     0.42422   0.18624   0.33016   0.00000  Uiso   1.00
H117   H     0.39527   0.24009   0.48283   0.00000  Uiso   1.00
H118   H     0.51592   0.33974   0.00593   0.00000  Uiso   1.00
H119   H     0.34064   0.25133   0.30593   0.00000  Uiso   1.00
H120   H     0.44068   0.02684   0.29068   0.00000  Uiso   1.00
H121   H     0.48533   0.47080   0.17427   0.00000  Uiso   1.00
H122   H     0.43805   0.10774   0.29109   0.00000  Uiso   1.00
H123   H     0.48286   0.38994   0.17298   0.00000  Uiso   1.00
H124   H     0.56499   0.11683   0.20843   0.00000  Uiso   1.00
H125   H     0.51854   0.38886   0.32800   0.00000  Uiso   1.00
H126   H     0.57322   0.28095   0.04302   0.00000  Uiso   1.00
N127   N     0.50000   0.25001   0.12935   0.00000  Uiso   1.00
N128   N     0.50000   0.24999   0.37066   0.00000  Uiso   1.00
N129   N     0.39668   0.17489   0.13734   0.00000  Uiso   1.00
N130   N     0.59295   0.33425   0.36125   0.00000  Uiso   1.00
O131   O     0.50000   0.18573   0.29072   0.00000  Uiso   1.00
O132   O     0.53544   0.45657   0.38057   0.00000  Uiso   1.00
O133   O     0.62214   0.30536   0.12213   0.00000  Uiso   1.00
O134   O     0.43580   0.14527   0.38496   0.00000  Uiso   1.00
O135   O     0.36988   0.20021   0.03113   0.00000  Uiso   1.00
O136   O     0.56131   0.36072   0.45901   0.00000  Uiso   1.00
O137   O     0.50000   0.31428   0.20929   0.00000  Uiso   1.00
O138   O     0.50000   0.18573   0.20928   0.00000  Uiso   1.00
O139   O     0.50000   0.31427   0.29072   0.00000  Uiso   1.00
O140   O     0.42495   0.25000   0.28132   0.00000  Uiso   1.00
O141   O     0.57505   0.25001   0.21868   0.00000  Uiso   1.00
O142   O     0.42495   0.25000   0.19989   0.00000  Uiso   1.00
O143   O     0.57505   0.25000   0.30012   0.00000  Uiso   1.00
O144   O     0.61160   0.05131   0.18208   0.00000  Uiso   1.00
C145   C     0.83330   0.16516   0.24991   0.00000  Uiso   1.00
C146   C     0.85335   0.28901   0.44810   0.00000  Uiso   1.00
C147   C     0.82969   0.25242   0.02684   0.00000  Uiso   1.00
C148   C     0.83086   0.25336   0.47233   0.00000  Uiso   1.00
C149   C     0.73466   0.24967   0.23764   0.00000  Uiso   1.00
C150   C     0.93201   0.25000   0.26238   0.00000  Uiso   1.00
C151   C     0.67934   0.24897   0.23091   0.00000  Uiso   1.00
C152   C     0.98734   0.25010   0.26918   0.00000  Uiso   1.00
C153   C     0.80174   0.04611   0.27300   0.00000  Uiso   1.00
C154   C     0.82677   0.45315   0.20799   0.00000  Uiso   1.00
C155   C     0.80020   0.09198   0.27331   0.00000  Uiso   1.00
C156   C     0.83335   0.33510   0.25008   0.00000  Uiso   1.00
C157   C     0.82513   0.40712   0.20730   0.00000  Uiso   1.00
C158   C     0.83483   0.11719   0.24972   0.00000  Uiso   1.00
C159   C     0.83428   0.38367   0.25057   0.00000  Uiso   1.00
C160   C     0.87143   0.09659   0.22613   0.00000  Uiso   1.00
C161   C     0.84521   0.40689   0.29452   0.00000  Uiso   1.00
C162   C     0.87477   0.05039   0.22700   0.00000  Uiso   1.00
C163   C     0.84883   0.45325   0.29565   0.00000  Uiso   1.00
C164   C     0.83910   0.02505   0.25058   0.00000  Uiso   1.00
C165   C     0.83906   0.47645   0.25170   0.00000  Uiso   1.00
C166   C     0.91643   0.02941   0.20487   0.00000  Uiso   1.00
C167   C     0.87299   0.26820   0.05810   0.00000  Uiso   1.00
C168   C     0.86428   0.47674   0.34250   0.00000  Uiso   1.00
C169   C     0.91385   0.29871   0.13658   0.00000  Uiso   1.00
C170   C     0.77628   0.18115   0.36636   0.00000  Uiso   1.00
C171   C     0.75817   0.19910   0.12084   0.00000  Uiso   1.00
C172   C     0.89612   0.31188   0.37745   0.00000  Uiso   1.00
C173   C     0.73672   0.22466   0.01789   0.00000  Uiso   1.00
C174   C     0.86614   0.33239   0.47364   0.00000  Uiso   1.00
C175   C     0.81131   0.21651   0.44417   0.00000  Uiso   1.00
C176   C     0.87239   0.27101   0.10833   0.00000  Uiso   1.00
C177   C     0.80825   0.21687   0.39348   0.00000  Uiso   1.00
C178   C     0.79330   0.22883   0.09979   0.00000  Uiso   1.00
C179   C     0.85934   0.28368   0.39828   0.00000  Uiso   1.00
C180   C     0.78747   0.23420   0.04845   0.00000  Uiso   1.00
Cu181  Cu    0.83333   0.25000   0.29822   0.00000  Uiso   1.00
Cu182  Cu    0.83333   0.25001   0.20179   0.00000  Uiso   1.00
H183   H     0.99274   0.24740   0.19421   0.00000  Uiso   1.00
H184   H     0.79565   0.18805   0.46158   0.00000  Uiso   1.00
H185   H     0.92254   0.49424   0.20888   0.00000  Uiso   1.00
H186   H     0.87225   0.01225   0.34369   0.00000  Uiso   1.00
H187   H     0.90789   0.31467   0.16973   0.00000  Uiso   1.00
H188   H     0.75756   0.18624   0.33016   0.00000  Uiso   1.00
H189   H     0.72860   0.24009   0.48283   0.00000  Uiso   1.00
H190   H     0.84926   0.33974   0.00593   0.00000  Uiso   1.00
H191   H     0.67397   0.25133   0.30593   0.00000  Uiso   1.00
H192   H     0.77401   0.02684   0.29068   0.00000  Uiso   1.00
H193   H     0.81866   0.47080   0.17427   0.00000  Uiso   1.00
H194   H     0.77139   0.10774   0.29109   0.00000  Uiso   1.00
H195   H     0.81619   0.38994   0.17298   0.00000  Uiso   1.00
H196   H     0.89832   0.11683   0.20843   0.00000  Uiso   1.00
H197   H     0.85187   0.38886   0.32800   0.00000  Uiso   1.00
H198   H     0.90656   0.28095   0.04302   0.00000  Uiso   1.00
N199   N     0.83333   0.25001   0.12935   0.00000  Uiso   1.00
N200   N     0.83333   0.24999   0.37066   0.00000  Uiso   1.00
N201   N     0.73001   0.17489   0.13734   0.00000  Uiso   1.00
N202   N     0.92629   0.33425   0.36125   0.00000  Uiso   1.00
O203   O     0.83334   0.18573   0.29072   0.00000  Uiso   1.00
O204   O     0.86877   0.45657   0.38057   0.00000  Uiso   1.00
O205   O     0.95548   0.30536   0.12213   0.00000  Uiso   1.00
O206   O     0.76914   0.14527   0.38496   0.00000  Uiso   1.00
O207   O     0.70321   0.20021   0.03113   0.00000  Uiso   1.00
O208   O     0.89464   0.36072   0.45901   0.00000  Uiso   1.00
O209   O     0.83333   0.31428   0.20929   0.00000  Uiso   1.00
O210   O     0.83334   0.18573   0.20928   0.00000  Uiso   1.00
O211   O     0.83333   0.31427   0.29072   0.00000  Uiso   1.00
O212   O     0.75828   0.25000   0.28132   0.00000  Uiso   1.00
O213   O     0.90839   0.25001   0.21868   0.00000  Uiso   1.00
O214   O     0.75828   0.25000   0.19989   0.00000  Uiso   1.00
O215   O     0.90839   0.25000   0.30012   0.00000  Uiso   1.00
O216   O     0.94493   0.05131   0.18208   0.00000  Uiso   1.00
C217   C     0.16663   0.66516   0.24991   0.00000  Uiso   1.00
C218   C     0.18668   0.78901   0.44810   0.00000  Uiso   1.00
C219   C     0.16302   0.75242   0.02684   0.00000  Uiso   1.00
C220   C     0.16420   0.75336   0.47233   0.00000  Uiso   1.00
C221   C     0.06800   0.74967   0.23764   0.00000  Uiso   1.00
C222   C     0.26534   0.75000   0.26238   0.00000  Uiso   1.00
C223   C     0.01267   0.74897   0.23091   0.00000  Uiso   1.00
C224   C     0.32067   0.75010   0.26918   0.00000  Uiso   1.00
C225   C     0.13508   0.54611   0.27300   0.00000  Uiso   1.00
C226   C     0.16011   0.95315   0.20799   0.00000  Uiso   1.00
C227   C     0.13353   0.59198   0.27331   0.00000  Uiso   1.00
C228   C     0.16668   0.83510   0.25008   0.00000  Uiso   1.00
C229   C     0.15846   0.90712   0.20730   0.00000  Uiso   1.00
C230   C     0.16816   0.61719   0.24972   0.00000  Uiso   1.00
C231   C     0.16762   0.88367   0.25057   0.00000  Uiso   1.00
C232   C     0.20476   0.59659   0.22613   0.00000  Uiso   1.00
C233   C     0.17854   0.90689   0.29452   0.00000  Uiso   1.00
C234   C     0.20810   0.55039   0.22700   0.00000  Uiso   1.00
C235   C     0.18216   0.95325   0.29565   0.00000  Uiso   1.00
C236   C     0.17243   0.52505   0.25058   0.00000  Uiso   1.00
C237   C     0.17239   0.97645   0.25170   0.00000  Uiso   1.00
C238   C     0.24977   0.52941   0.20487   0.00000  Uiso   1.00
C239   C     0.20633   0.76820   0.05810   0.00000  Uiso   1.00
C240   C     0.19761   0.97674   0.34250   0.00000  Uiso   1.00
C241   C     0.24718   0.79871   0.13658   0.00000  Uiso   1.00
C242   C     0.10962   0.68115   0.36636   0.00000  Uiso   1.00
C243   C     0.09150   0.69910   0.12084   0.00000  Uiso   1.00
C244   C     0.22945   0.81188   0.37745   0.00000  Uiso   1.00
C245   C     0.07005   0.72466   0.01789   0.00000  Uiso   1.00
C246   C     0.19947   0.83239   0.47364   0.00000  Uiso   1.00
C247   C     0.14465   0.71651   0.44417   0.00000  Uiso   1.00
C248   C     0.20572   0.77101   0.10833   0.00000  Uiso   1.00
C249   C     0.14158   0.71687   0.39348   0.00000  Uiso   1.00
C250   C     0.12663   0.72883   0.09979   0.00000  Uiso   1.00
C251   C     0.19267   0.78368   0.39828   0.00000  Uiso   1.00
C252   C     0.12080   0.73420   0.04845   0.00000  Uiso   1.00
Cu253  Cu    0.16667   0.75000   0.29822   0.00000  Uiso   1.00
Cu254  Cu    0.16667   0.75001   0.20179   0.00000  Uiso   1.00
H255   H     0.32608   0.74740   0.19421   0.00000  Uiso   1.00
H256   H     0.12898   0.68805   0.46158   0.00000  Uiso   1.00
H257   H     0.25587   0.99424   0.20888   0.00000  Uiso   1.00
H258   H     0.20559   0.51225   0.34369   0.00000  Uiso   1.00
H259   H     0.24122   0.81467   0.16973   0.00000  Uiso   1.00
H260   H     0.09089   0.68624   0.33016   0.00000  Uiso   1.00
H261   H     0.06193   0.74009   0.48283   0.00000  Uiso   1.00
H262   H     0.18259   0.83974   0.00593   0.00000  Uiso   1.00
H263   H     0.00731   0.75133   0.30593   0.00000  Uiso   1.00
H264   H     0.10735   0.52684   0.29068   0.00000  Uiso   1.00
H265   H     0.15200   0.97080   0.17427   0.00000  Uiso   1.00
H266   H     0.10472   0.60774   0.29109   0.00000  Uiso   1.00
H267   H     0.14952   0.88994   0.17298   0.00000  Uiso   1.00
H268   H     0.23166   0.61683   0.20843   0.00000  Uiso   1.00
H269   H     0.18521   0.88886   0.32800   0.00000  Uiso   1.00
H270   H     0.23989   0.78095   0.04302   0.00000  Uiso   1.00
N271   N     0.16667   0.75001   0.12935   0.00000  Uiso   1.00
N272   N     0.16667   0.74999   0.37066   0.00000  Uiso   1.00
N273   N     0.06335   0.67489   0.13734   0.00000  Uiso   1.00
N274   N     0.25962   0.83425   0.36125   0.00000  Uiso   1.00
O275   O     0.16667   0.68573   0.29072   0.00000  Uiso   1.00
O276   O     0.20211   0.95657   0.38057   0.00000  Uiso   1.00
O277   O     0.28881   0.80536   0.12213   0.00000  Uiso   1.00
O278   O     0.10247   0.64527   0.38496   0.00000  Uiso   1.00
O279   O     0.03654   0.70021   0.03113   0.00000  Uiso   1.00
O280   O     0.22797   0.86072   0.45901   0.00000  Uiso   1.00
O281   O     0.16666   0.81428   0.20929   0.00000  Uiso   1.00
O282   O     0.16667   0.68573   0.20928   0.00000  Uiso   1.00
O283   O     0.16666   0.81427   0.29072   0.00000  Uiso   1.00
O284   O     0.09161   0.75000   0.28132   0.00000  Uiso   1.00
O285   O     0.24172   0.75001   0.21868   0.00000  Uiso   1.00
O286   O     0.09161   0.75000   0.19989   0.00000  Uiso   1.00
O287   O     0.24172   0.75000   0.30012   0.00000  Uiso   1.00
O288   O     0.27827   0.55131   0.18208   0.00000  Uiso   1.00
C289   C     0.49996   0.66516   0.24991   0.00000  Uiso   1.00
C290   C     0.52002   0.78901   0.44810   0.00000  Uiso   1.00
C291   C     0.49635   0.75242   0.02684   0.00000  Uiso   1.00
C292   C     0.49753   0.75336   0.47233   0.00000  Uiso   1.00
C293   C     0.40133   0.74967   0.23764   0.00000  Uiso   1.00
C294   C     0.59867   0.75000   0.26238   0.00000  Uiso   1.00
C295   C     0.34601   0.74897   0.23091   0.00000  Uiso   1.00
C296   C     0.65400   0.75010   0.26918   0.00000  Uiso   1.00
C297   C     0.46841   0.54611   0.27300   0.00000  Uiso   1.00
C298   C     0.49344   0.95315   0.20799   0.00000  Uiso   1.00
C299   C     0.46687   0.59198   0.27331   0.00000  Uiso   1.00
C300   C     0.50001   0.83510   0.25008   0.00000  Uiso   1.00
C301   C     0.49179   0.90712   0.20730   0.00000  Uiso   1.00
C302   C     0.50150   0.61719   0.24972   0.00000  Uiso   1.00
C303   C     0.50095   0.88367   0.25057   0.00000  Uiso   1.00
C304   C     0.53810   0.59659   0.22613   0.00000  Uiso   1.00
C305   C     0.51187   0.90689   0.29452   0.00000  Uiso   1.00
C306   C     0.54144   0.55039   0.22700   0.00000  Uiso   1.00
C307   C     0.51549   0.95325   0.29565   0.00000  Uiso   1.00
C308   C     0.50576   0.52505   0.25058   0.00000  Uiso   1.00
C309   C     0.50572   0.97645   0.25170   0.00000  Uiso   1.00
C310   C     0.58310   0.52941   0.20487   0.00000  Uiso   1.00
C311   C     0.53966   0.76820   0.05810   0.00000  Uiso   1.00
C312   C     0.53095   0.97674   0.34250   0.00000  Uiso   1.00
C313   C     0.58052   0.79871   0.13658   0.00000  Uiso   1.00
C314   C     0.44295   0.68115   0.36636   0.00000  Uiso   1.00
C315   C     0.42484   0.69910   0.12084   0.00000  Uiso   1.00
C316   C     0.56279   0.81188   0.37745   0.00000  Uiso   1.00
C317   C     0.40338   0.72466   0.01789   0.00000  Uiso   1.00
C318   C     0.53281   0.83239   0.47364   0.00000  Uiso   1.00
C319   C     0.47798   0.71651   0.44417   0.00000  Uiso   1.00
C320   C     0.53906   0.77101   0.10833   0.00000  Uiso   1.00
C321   C     0.47491   0.71687   0.39348   0.00000  Uiso   1.00
C322   C     0.45996   0.72883   0.09979   0.00000  Uiso   1.00
C323   C     0.52600   0.78368   0.39828   0.00000  Uiso   1.00
C324   C     0.45413   0.73420   0.04845   0.00000  Uiso   1.00
Cu325  Cu    0.50000   0.75000   0.29822   0.00000  Uiso   1.00
Cu326  Cu    0.50000   0.75001   0.20179   0.00000  Uiso   1.00
H327   H     0.65941   0.74740   0.19421   0.00000  Uiso   1.00
H328   H     0.46231   0.68805   0.46158   0.00000  Uiso   1.00
H329   H     0.58921   0.99424   0.20888   0.00000  Uiso   1.00
H330   H     0.53892   0.51225   0.34369   0.00000  Uiso   1.00
H331   H     0.57455   0.81467   0.16973   0.00000  Uiso   1.00
H332   H     0.42422   0.68624   0.33016   0.00000  Uiso   1.00
H333   H     0.39527   0.74009   0.48283   0.00000  Uiso   1.00
H334   H     0.51592   0.83974   0.00593   0.00000  Uiso   1.00
H335   H     0.34064   0.75133   0.30593   0.00000  Uiso   1.00
H336   H     0.44068   0.52684   0.29068   0.00000  Uiso   1.00
H337   H     0.48533   0.97080   0.17427   0.00000  Uiso   1.00
H338   H     0.43805   0.60774   0.29109   0.00000  Uiso   1.00
H339   H     0.48286   0.88994   0.17298   0.00000  Uiso   1.00
H340   H     0.56499   0.61683   0.20843   0.00000  Uiso   1.00
H341   H     0.51854   0.88886   0.32800   0.00000  Uiso   1.00
H342   H     0.57322   0.78095   0.04302   0.00000  Uiso   1.00
N343   N     0.50000   0.75001   0.12935   0.00000  Uiso   1.00
N344   N     0.50000   0.74999   0.37066   0.00000  Uiso   1.00
N345   N     0.39668   0.67489   0.13734   0.00000  Uiso   1.00
N346   N     0.59295   0.83425   0.36125   0.00000  Uiso   1.00
O347   O     0.50000   0.68573   0.29072   0.00000  Uiso   1.00
O348   O     0.53544   0.95657   0.38057   0.00000  Uiso   1.00
O349   O     0.62214   0.80536   0.12213   0.00000  Uiso   1.00
O350   O     0.43580   0.64527   0.38496   0.00000  Uiso   1.00
O351   O     0.36988   0.70021   0.03113   0.00000  Uiso   1.00
O352   O     0.56131   0.86072   0.45901   0.00000  Uiso   1.00
O353   O     0.50000   0.81428   0.20929   0.00000  Uiso   1.00
O354   O     0.50000   0.68573   0.20928   0.00000  Uiso   1.00
O355   O     0.50000   0.81427   0.29072   0.00000  Uiso   1.00
O356   O     0.42495   0.75000   0.28132   0.00000  Uiso   1.00
O357   O     0.57505   0.75001   0.21868   0.00000  Uiso   1.00
O358   O     0.42495   0.75000   0.19989   0.00000  Uiso   1.00
O359   O     0.57505   0.75000   0.30012   0.00000  Uiso   1.00
O360   O     0.61160   0.55131   0.18208   0.00000  Uiso   1.00
C361   C     0.83330   0.66516   0.24991   0.00000  Uiso   1.00
C362   C     0.85335   0.78901   0.44810   0.00000  Uiso   1.00
C363   C     0.82969   0.75242   0.02684   0.00000  Uiso   1.00
C364   C     0.83086   0.75336   0.47233   0.00000  Uiso   1.00
C365   C     0.73466   0.74967   0.23764   0.00000  Uiso   1.00
C366   C     0.93201   0.75000   0.26238   0.00000  Uiso   1.00
C367   C     0.67934   0.74897   0.23091   0.00000  Uiso   1.00
C368   C     0.98734   0.75010   0.26918   0.00000  Uiso   1.00
C369   C     0.80174   0.54611   0.27300   0.00000  Uiso   1.00
C370   C     0.82677   0.95315   0.20799   0.00000  Uiso   1.00
C371   C     0.80020   0.59198   0.27331   0.00000  Uiso   1.00
C372   C     0.83335   0.83510   0.25008   0.00000  Uiso   1.00
C373   C     0.82513   0.90712   0.20730   0.00000  Uiso   1.00
C374   C     0.83483   0.61719   0.24972   0.00000  Uiso   1.00
C375   C     0.83428   0.88367   0.25057   0.00000  Uiso   1.00
C376   C     0.87143   0.59659   0.22613   0.00000  Uiso   1.00
C377   C     0.84521   0.90689   0.29452   0.00000  Uiso   1.00
C378   C     0.87477   0.55039   0.22700   0.00000  Uiso   1.00
C379   C     0.84883   0.95325   0.29565   0.00000  Uiso   1.00
C380   C     0.83910   0.52505   0.25058   0.00000  Uiso   1.00
C381   C     0.83906   0.97645   0.25170   0.00000  Uiso   1.00
C382   C     0.91643   0.52941   0.20487   0.00000  Uiso   1.00
C383   C     0.87299   0.76820   0.05810   0.00000  Uiso   1.00
C384   C     0.86428   0.97674   0.34250   0.00000  Uiso   1.00
C385   C     0.91385   0.79871   0.13658   0.00000  Uiso   1.00
C386   C     0.77628   0.68115   0.36636   0.00000  Uiso   1.00
C387   C     0.75817   0.69910   0.12084   0.00000  Uiso   1.00
C388   C     0.89612   0.81188   0.37745   0.00000  Uiso   1.00
C389   C     0.73672   0.72466   0.01789   0.00000  Uiso   1.00
C390   C     0.86614   0.83239   0.47364   0.00000  Uiso   1.00
C391   C     0.81131   0.71651   0.44417   0.00000  Uiso   1.00
C392   C     0.87239   0.77101   0.10833   0.00000  Uiso   1.00
C393   C     0.80825   0.71687   0.39348   0.00000  Uiso   1.00
C394   C     0.79330   0.72883   0.09979   0.00000  Uiso   1.00
C395   C     0.85934   0.78368   0.39828   0.00000  Uiso   1.00
C396   C     0.78747   0.73420   0.04845   0.00000  Uiso   1.00
Cu397  Cu    0.83333   0.75000   0.29822   0.00000  Uiso   1.00
Cu398  Cu    0.83333   0.75001   0.20179   0.00000  Uiso   1.00
H399   H     0.99274   0.74740   0.19421   0.00000  Uiso   1.00
H400   H     0.79565   0.68805   0.46158   0.00000  Uiso   1.00
H401   H     0.92254   0.99424   0.20888   0.00000  Uiso   1.00
H402   H     0.87225   0.51225   0.34369   0.00000  Uiso   1.00
H403   H     0.90789   0.81467   0.16973   0.00000  Uiso   1.00
H404   H     0.75756   0.68624   0.33016   0.00000  Uiso   1.00
H405   H     0.72860   0.74009   0.48283   0.00000  Uiso   1.00
H406   H     0.84926   0.83974   0.00593   0.00000  Uiso   1.00
H407   H     0.67397   0.75133   0.30593   0.00000  Uiso   1.00
H408   H     0.77401   0.52684   0.29068   0.00000  Uiso   1.00
H409   H     0.81866   0.97080   0.17427   0.00000  Uiso   1.00
H410   H     0.77139   0.60774   0.29109   0.00000  Uiso   1.00
H411   H     0.81619   0.88994   0.17298   0.00000  Uiso   1.00
H412   H     0.89832   0.61683   0.20843   0.00000  Uiso   1.00
H413   H     0.85187   0.88886   0.32800   0.00000  Uiso   1.00
H414   H     0.90656   0.78095   0.04302   0.00000  Uiso   1.00
N415   N     0.83333   0.75001   0.12935   0.00000  Uiso   1.00
N416   N     0.83333   0.74999   0.37066   0.00000  Uiso   1.00
N417   N     0.73001   0.67489   0.13734   0.00000  Uiso   1.00
N418   N     0.92629   0.83425   0.36125   0.00000  Uiso   1.00
O419   O     0.83334   0.68573   0.29072   0.00000  Uiso   1.00
O420   O     0.86877   0.95657   0.38057   0.00000  Uiso   1.00
O421   O     0.95548   0.80536   0.12213   0.00000  Uiso   1.00
O422   O     0.76914   0.64527   0.38496   0.00000  Uiso   1.00
O423   O     0.70321   0.70021   0.03113   0.00000  Uiso   1.00
O424   O     0.89464   0.86072   0.45901   0.00000  Uiso   1.00
O425   O     0.83333   0.81428   0.20929   0.00000  Uiso   1.00
O426   O     0.83334   0.68573   0.20928   0.00000  Uiso   1.00
O427   O     0.83333   0.81427   0.29072   0.00000  Uiso   1.00
O428   O     0.75828   0.75000   0.28132   0.00000  Uiso   1.00
O429   O     0.90839   0.75001   0.21868   0.00000  Uiso   1.00
O430   O     0.75828   0.75000   0.19989   0.00000  Uiso   1.00
O431   O     0.90839   0.75000   0.30012   0.00000  Uiso   1.00
O432   O     0.94493   0.55131   0.18208   0.00000  Uiso   1.00
C433   C     0.16663   0.16516   0.74991   0.00000  Uiso   1.00
C434   C     0.18668   0.28901   0.94810   0.00000  Uiso   1.00
C435   C     0.16302   0.25242   0.52684   0.00000  Uiso   1.00
C436   C     0.16420   0.25336   0.97233   0.00000  Uiso   1.00
C437   C     0.06800   0.24967   0.73764   0.00000  Uiso   1.00
C438   C     0.26534   0.25000   0.76238   0.00000  Uiso   1.00
C439   C     0.01267   0.24897   0.73091   0.00000  Uiso   1.00
C440   C     0.32067   0.25010   0.76918   0.00000  Uiso   1.00
C441   C     0.13508   0.04611   0.77300   0.00000  Uiso   1.00
C442   C     0.16011   0.45315   0.70799   0.00000  Uiso   1.00
C443   C     0.13353   0.09198   0.77331   0.00000  Uiso   1.00
C444   C     0.16668   0.33510   0.75008   0.00000  Uiso   1.00
C445   C     0.15846   0.40712   0.70730   0.00000  Uiso   1.00
C446   C     0.16816   0.11719   0.74972   0.00000  Uiso   1.00
C447   C     0.16762   0.38367   0.75057   0.00000  Uiso   1.00
C448   C     0.20476   0.09659   0.72613   0.00000  Uiso   1.00
C449   C     0.17854   0.40689   0.79452   0.00000  Uiso   1.00
C450   C     0.20810   0.05039   0.72700   0.00000  Uiso   1.00
C451   C     0.18216   0.45325   0.79565   0.00000  Uiso   1.00
C452   C     0.17243   0.02505   0.75058   0.00000  Uiso   1.00
C453   C     0.17239   0.47645   0.75170   0.00000  Uiso   1.00
C454   C     0.24977   0.02941   0.70487   0.00000  Uiso   1.00
C455   C     0.20633   0.26820   0.55810   0.00000  Uiso   1.00
C456   C     0.19761   0.47674   0.84250   0.00000  Uiso   1.00
C457   C     0.24718   0.29871   0.63658   0.00000  Uiso   1.00
C458   C     0.10962   0.18115   0.86636   0.00000  Uiso   1.00
C459   C     0.09150   0.19910   0.62084   0.00000  Uiso   1.00
C460   C     0.22945   0.31188   0.87745   0.00000  Uiso   1.00
C461   C     0.07005   0.22466   0.51789   0.00000  Uiso   1.00
C462   C     0.19947   0.33239   0.97364   0.00000  Uiso   1.00
C463   C     0.14465   0.21651   0.94417   0.00000  Uiso   1.00
C464   C     0.20572   0.27101   0.60833   0.00000  Uiso   1.00
C465   C     0.14158   0.21687   0.89348   0.00000  Uiso   1.00
C466   C     0.12663   0.22883   0.59979   0.00000  Uiso   1.00
C467   C     0.19267   0.28368   0.89828   0.00000  Uiso   1.00
C468   C     0.12080   0.23420   0.54845   0.00000  Uiso   1.00
Cu469  Cu    0.16667   0.25000   0.79822   0.00000  Uiso   1.00
Cu470  Cu    0.16667   0.25001   0.70179   0.00000  Uiso   1.00
H471   H     0.32608   0.24740   0.69421   0.00000  Uiso   1.00
H472   H     0.12898   0.18805   0.96158   0.00000  Uiso   1.00
H473   H     0.25587   0.49424   0.70888   0.00000  Uiso   1.00
H474   H     0.20559   0.01225   0.84369   0.00000  Uiso   1.00
H475   H     0.24122   0.31467   0.66973   0.00000  Uiso   1.00
H476   H     0.09089   0.18624   0.83016   0.00000  Uiso   1.00
H477   H     0.06193   0.24009   0.98283   0.00000  Uiso   1.00
H478   H     0.18259   0.33974   0.50593   0.00000  Uiso   1.00
H479   H     0.00731   0.25133   0.80593   0.00000  Uiso   1.00
H480   H     0.10735   0.02684   0.79068   0.00000  Uiso   1.00
H481   H     0.15200   0.47080   0.67427   0.00000  Uiso   1.00
H482   H     0.10472   0.10774   0.79109   0.00000  Uiso   1.00
H483   H     0.14952   0.38994   0.67298   0.00000  Uiso   1.00
H484   H     0.23166   0.11683   0.70843   0.00000  Uiso   1.00
H485   H     0.18521   0.38886   0.82800   0.00000  Uiso   1.00
H486   H     0.23989   0.28095   0.54302   0.00000  Uiso   1.00
N487   N     0.16667   0.25001   0.62935   0.00000  Uiso   1.00
N488   N     0.16667   0.24999   0.87066   0.00000  Uiso   1.00
N489   N     0.06335   0.17489   0.63734   0.00000  Uiso   1.00
N490   N     0.25962   0.33425   0.86125   0.00000  Uiso   1.00
O491   O     0.16667   0.18573   0.79072   0.00000  Uiso   1.00
O492   O     0.20211   0.45657   0.88057   0.00000  Uiso   1.00
O493   O     0.28881   0.30536   0.62213   0.00000  Uiso   1.00
O494   O     0.10247   0.14527   0.88496   0.00000  Uiso   1.00
O495   O     0.03654   0.20021   0.53113   0.00000  Uiso   1.00
O496   O     0.22797   0.36072   0.95901   0.00000  Uiso   1.00
O497   O     0.16666   0.31428   0.70929   0.00000  Uiso   1.00
O498   O     0.16667   0.18573   0.70928   0.00000  Uiso   1.00
O499   O     0.16666   0.31427   0.79072   0.00000  Uiso   1.00
O500   O     0.09161   0.25000   0.78132   0.00000  Uiso   1.00
O501   O     0.24172   0.25001   0.71868   0.00000  Uiso   1.00
O502   O     0.09161   0.25000   0.69989   0.00000  Uiso   1.00
O503   O     0.24172   0.25000   0.80012   0.00000  Uiso   1.00
O504   O     0.27827   0.05131   0.68208   0.00000  Uiso   1.00
C505   C     0.49996   0.16516   0.74991   0.00000  Uiso   1.00
C506   C     0.52002   0.28901   0.94810   0.00000  Uiso   1.00
C507   C     0.49635   0.25242   0.52684   0.00000  Uiso   1.00
C508   C     0.49753   0.25336   0.97233   0.00000  Uiso   1.00
C509   C     0.40133   0.24967   0.73764   0.00000  Uiso   1.00
C510   C     0.59867   0.25000   0.76238   0.00000  Uiso   1.00
C511   C     0.34601   0.24897   0.73091   0.00000  Uiso   1.00
C512   C     0.65400   0.25010   0.76918   0.00000  Uiso   1.00
C513   C     0.46841   0.04611   0.77300   0.00000  Uiso   1.00
C514   C     0.49344   0.45315   0.70799   0.00000  Uiso   1.00
C515   C     0.46687   0.09198   0.77331   0.00000  Uiso   1.00
C516   C     0.50001   0.33510   0.75008   0.00000  Uiso   1.00
C517   C     0.49179   0.40712   0.70730   0.00000  Uiso   1.00
C518   C     0.50150   0.11719   0.74972   0.00000  Uiso   1.00
C519   C     0.50095   0.38367   0.75057   0.00000  Uiso   1.00
C520   C     0.53810   0.09659   0.72613   0.00000  Uiso   1.00
C521   C     0.51187   0.40689   0.79452   0.00000  Uiso   1.00
C522   C     0.54144   0.05039   0.72700   0.00000  Uiso   1.00
C523   C     0.51549   0.45325   0.79565   0.00000  Uiso   1.00
C524   C     0.50576   0.02505   0.75058   0.00000  Uiso   1.00
C525   C     0.50572   0.47645   0.75170   0.00000  Uiso   1.00
C526   C     0.58310   0.02941   0.70487   0.00000  Uiso   1.00
C527   C     0.53966   0.26820   0.55810   0.00000  Uiso   1.00
C528   C     0.53095   0.47674   0.84250   0.00000  Uiso   1.00
C529   C     0.58052   0.29871   0.63658   0.00000  Uiso   1.00
C530   C     0.44295   0.18115   0.86636   0.00000  Uiso   1.00
C531   C     0.42484   0.19910   0.62084   0.00000  Uiso   1.00
C532   C     0.56279   0.31188   0.87745   0.00000  Uiso   1.00
C533   C     0.40338   0.22466   0.51789   0.00000  Uiso   1.00
C534   C     0.53281   0.33239   0.97364   0.00000  Uiso   1.00
C535   C     0.47798   0.21651   0.94417   0.00000  Uiso   1.00
C536   C     0.53906   0.27101   0.60833   0.00000  Uiso   1.00
C537   C     0.47491   0.21687   0.89348   0.00000  Uiso   1.00
C538   C     0.45996   0.22883   0.59979   0.00000  Uiso   1.00
C539   C     0.52600   0.28368   0.89828   0.00000  Uiso   1.00
C540   C     0.45413   0.23420   0.54845   0.00000  Uiso   1.00
Cu541  Cu    0.50000   0.25000   0.79822   0.00000  Uiso   1.00
Cu542  Cu    0.50000   0.25001   0.70179   0.00000  Uiso   1.00
H543   H     0.65941   0.24740   0.69421   0.00000  Uiso   1.00
H544   H     0.46231   0.18805   0.96158   0.00000  Uiso   1.00
H545   H     0.58921   0.49424   0.70888   0.00000  Uiso   1.00
H546   H     0.53892   0.01225   0.84369   0.00000  Uiso   1.00
H547   H     0.57455   0.31467   0.66973   0.00000  Uiso   1.00
H548   H     0.42422   0.18624   0.83016   0.00000  Uiso   1.00
H549   H     0.39527   0.24009   0.98283   0.00000  Uiso   1.00
H550   H     0.51592   0.33974   0.50593   0.00000  Uiso   1.00
H551   H     0.34064   0.25133   0.80593   0.00000  Uiso   1.00
H552   H     0.44068   0.02684   0.79068   0.00000  Uiso   1.00
H553   H     0.48533   0.47080   0.67427   0.00000  Uiso   1.00
H554   H     0.43805   0.10774   0.79109   0.00000  Uiso   1.00
H555   H     0.48286   0.38994   0.67298   0.00000  Uiso   1.00
H556   H     0.56499   0.11683   0.70843   0.00000  Uiso   1.00
H557   H     0.51854   0.38886   0.82800   0.00000  Uiso   1.00
H558   H     0.57322   0.28095   0.54302   0.00000  Uiso   1.00
N559   N     0.50000   0.25001   0.62935   0.00000  Uiso   1.00
N560   N     0.50000   0.24999   0.87066   0.00000  Uiso   1.00
N561   N     0.39668   0.17489   0.63734   0.00000  Uiso   1.00
N562   N     0.59295   0.33425   0.86125   0.00000  Uiso   1.00
O563   O     0.50000   0.18573   0.79072   0.00000  Uiso   1.00
O564   O     0.53544   0.45657   0.88057   0.00000  Uiso   1.00
O565   O     0.62214   0.30536   0.62213   0.00000  Uiso   1.00
O566   O     0.43580   0.14527   0.88496   0.00000  Uiso   1.00
O567   O     0.36988   0.20021   0.53113   0.00000  Uiso   1.00
O568   O     0.56131   0.36072   0.95901   0.00000  Uiso   1.00
O569   O     0.50000   0.31428   0.70929   0.00000  Uiso   1.00
O570   O     0.50000   0.18573   0.70928   0.00000  Uiso   1.00
O571   O     0.50000   0.31427   0.79072   0.00000  Uiso   1.00
O572   O     0.42495   0.25000   0.78132   0.00000  Uiso   1.00
O573   O     0.57505   0.25001   0.71868   0.00000  Uiso   1.00
O574   O     0.42495   0.25000   0.69989   0.00000  Uiso   1.00
O575   O     0.57505   0.25000   0.80012   0.00000  Uiso   1.00
O576   O     0.61160   0.05131   0.68208   0.00000  Uiso   1.00
C577   C     0.83330   0.16516   0.74991   0.00000  Uiso   1.00
C578   C     0.85335   0.28901   0.94810   0.00000  Uiso   1.00
C579   C     0.82969   0.25242   0.52684   0.00000  Uiso   1.00
C580   C     0.83086   0.25336   0.97233   0.00000  Uiso   1.00
C581   C     0.73466   0.24967   0.73764   0.00000  Uiso   1.00
C582   C     0.93201   0.25000   0.76238   0.00000  Uiso   1.00
C583   C     0.67934   0.24897   0.73091   0.00000  Uiso   1.00
C584   C     0.98734   0.25010   0.76918   0.00000  Uiso   1.00
C585   C     0.80174   0.04611   0.77300   0.00000  Uiso   1.00
C586   C     0.82677   0.45315   0.70799   0.00000  Uiso   1.00
C587   C     0.80020   0.09198   0.77331   0.00000  Uiso   1.00
C588   C     0.83335   0.33510   0.75008   0.00000  Uiso   1.00
C589   C     0.82513   0.40712   0.70730   0.00000  Uiso   1.00
C590   C     0.83483   0.11719   0.74972   0.00000  Uiso   1.00
C591   C     0.83428   0.38367   0.75057   0.00000  Uiso   1.00
C592   C     0.87143   0.09659   0.72613   0.00000  Uiso   1.00
C593   C     0.84521   0.40689   0.79452   0.00000  Uiso   1.00
C594   C     0.87477   0.05039   0.72700   0.00000  Uiso   1.00
C595   C     0.84883   0.45325   0.79565   0.00000  Uiso   1.00
C596   C     0.83910   0.02505   0.75058   0.00000  Uiso   1.00
C597   C     0.83906   0.47645   0.75170   0.00000  Uiso   1.00
C598   C     0.91643   0.02941   0.70487   0.00000  Uiso   1.00
C599   C     0.87299   0.26820   0.55810   0.00000  Uiso   1.00
C600   C     0.86428   0.47674   0.84250   0.00000  Uiso   1.00
C601   C     0.91385   0.29871   0.63658   0.00000  Uiso   1.00
C602   C     0.77628   0.18115   0.86636   0.00000  Uiso   1.00
C603   C     0.75817   0.19910   0.62084   0.00000  Uiso   1.00
C604   C     0.89612   0.31188   0.87745   0.00000  Uiso   1.00
C605   C     0.73672   0.22466   0.51789   0.00000  Uiso   1.00
C606   C     0.86614   0.33239   0.97364   0.00000  Uiso   1.00
C607   C     0.81131   0.21651   0.94417   0.00000  Uiso   1.00
C608   C     0.87239   0.27101   0.60833   0.00000  Uiso   1.00
C609   C     0.80825   0.21687   0.89348   0.00000  Uiso   1.00
C610   C     0.79330   0.22883   0.59979   0.00000  Uiso   1.00
C611   C     0.85934   0.28368   0.89828   0.00000  Uiso   1.00
C612   C     0.78747   0.23420   0.54845   0.00000  Uiso   1.00
Cu613  Cu    0.83333   0.25000   0.79822   0.00000  Uiso   1.00
Cu614  Cu    0.83333   0.25001   0.70179   0.00000  Uiso   1.00
H615   H     0.99274   0.24740   0.69421   0.00000  Uiso   1.00
H616   H     0.79565   0.18805   0.96158   0.00000  Uiso   1.00
H617   H     0.92254   0.49424   0.70888   0.00000  Uiso   1.00
H618   H     0.87225   0.01225   0.84369   0.00000  Uiso   1.00
H619   H     0.90789   0.31467   0.66973   0.00000  Uiso   1.00
H620   H     0.75756   0.18624   0.83016   0.00000  Uiso   1.00
H621   H     0.72860   0.24009   0.98283   0.00000  Uiso   1.00
H622   H     0.84926   0.33974   0.50593   0.00000  Uiso   1.00
H623   H     0.67397   0.25133   0.80593   0.00000  Uiso   1.00
H624   H     0.77401   0.02684   0.79068   0.00000  Uiso   1.00
H625   H     0.81866   0.47080   0.67427   0.00000  Uiso   1.00
H626   H     0.77139   0.10774   0.79109   0.00000  Uiso   1.00
H627   H     0.81619   0.38994   0.67298   0.00000  Uiso   1.00
H628   H     0.89832   0.11683   0.70843   0.00000  Uiso   1.00
H629   H     0.85187   0.38886   0.82800   0.00000  Uiso   1.00
H630   H     0.90656   0.28095   0.54302   0.00000  Uiso   1.00
N631   N     0.83333   0.25001   0.62935   0.00000  Uiso   1.00
N632   N     0.83333   0.24999   0.87066   0.00000  Uiso   1.00
N633   N     0.73001   0.17489   0.63734   0.00000  Uiso   1.00
N634   N     0.92629   0.33425   0.86125   0.00000  Uiso   1.00
O635   O     0.83334   0.18573   0.79072   0.00000  Uiso   1.00
O636   O     0.86877   0.45657   0.88057   0.00000  Uiso   1.00
O637   O     0.95548   0.30536   0.62213   0.00000  Uiso   1.00
O638   O     0.76914   0.14527   0.88496   0.00000  Uiso   1.00
O639   O     0.70321   0.20021   0.53113   0.00000  Uiso   1.00
O640   O     0.89464   0.36072   0.95901   0.00000  Uiso   1.00
O641   O     0.83333   0.31428   0.70929   0.00000  Uiso   1.00
O642   O     0.83334   0.18573   0.70928   0.00000  Uiso   1.00
O643   O     0.83333   0.31427   0.79072   0.00000  Uiso   1.00
O644   O     0.75828   0.25000   0.78132   0.00000  Uiso   1.00
O645   O     0.90839   0.25001   0.71868   0.00000  Uiso   1.00
O646   O     0.75828   0.25000   0.69989   0.00000  Uiso   1.00
O647   O     0.90839   0.25000   0.80012   0.00000  Uiso   1.00
O648   O     0.94493   0.05131   0.68208   0.00000  Uiso   1.00
C649   C     0.16663   0.66516   0.74991   0.00000  Uiso   1.00
C650   C     0.18668   0.78901   0.94810   0.00000  Uiso   1.00
C651   C     0.16302   0.75242   0.52684   0.00000  Uiso   1.00
C652   C     0.16420   0.75336   0.97233   0.00000  Uiso   1.00
C653   C     0.06800   0.74967   0.73764   0.00000  Uiso   1.00
C654   C     0.26534   0.75000   0.76238   0.00000  Uiso   1.00
C655   C     0.01267   0.74897   0.73091   0.00000  Uiso   1.00
C656   C     0.32067   0.75010   0.76918   0.00000  Uiso   1.00
C657   C     0.13508   0.54611   0.77300   0.00000  Uiso   1.00
C658   C     0.16011   0.95315   0.70799   0.00000  Uiso   1.00
C659   C     0.13353   0.59198   0.77331   0.00000  Uiso   1.00
C660   C     0.16668   0.83510   0.75008   0.00000  Uiso   1.00
C661   C     0.15846   0.90712   0.70730   0.00000  Uiso   1.00
C662   C     0.16816   0.61719   0.74972   0.00000  Uiso   1.00
C663   C     0.16762   0.88367   0.75057   0.00000  Uiso   1.00
C664   C     0.20476   0.59659   0.72613   0.00000  Uiso   1.00
C665   C     0.17854   0.90689   0.79452   0.00000  Uiso   1.00
C666   C     0.20810   0.55039   0.72700   0.00000  Uiso   1.00
C667   C     0.18216   0.95325   0.79565   0.00000  Uiso   1.00
C668   C     0.17243   0.52505   0.75058   0.00000  Uiso   1.00
C669   C     0.17239   0.97645   0.75170   0.00000  Uiso   1.00
C670   C     0.24977   0.52941   0.70487   0.00000  Uiso   1.00
C671   C     0.20633   0.76820   0.55810   0.00000  Uiso   1.00
C672   C     0.19761   0.97674   0.84250   0.00000  Uiso   1.00
C673   C     0.24718   0.79871   0.63658   0.00000  Uiso   1.00
C674   C     0.10962   0.68115   0.86636   0.00000  Uiso   1.00
C675   C     0.09150   0.69910   0.62084   0.00000  Uiso   1.00
C676   C     0.22945   0.81188   0.87745   0.00000  Uiso   1.00
C677   C     0.07005   0.72466   0.51789   0.00000  Uiso   1.00
C678   C     0.19947   0.83239   0.97364   0.00000  Uiso   1.00
C679   C     0.14465   0.71651   0.94417   0.00000  Uiso   1.00
C680   C     0.20572   0.77101   0.60833   0.00000  Uiso   1.00
C681   C     0.14158   0.71687   0.89348   0.00000  Uiso   1.00
C682   C     0.12663   0.72883   0.59979   0.00000  Uiso   1.00
C683   C     0.19267   0.78368   0.89828   0.00000  Uiso   1.00
C684   C     0.12080   0.73420   0.54845   0.00000  Uiso   1.00
Cu685  Cu    0.16667   0.75000   0.79822   0.00000  Uiso   1.00
Cu686  Cu    0.16667   0.75001   0.70179   0.00000  Uiso   1.00
H687   H     0.32608   0.74740   0.69421   0.00000  Uiso   1.00
H688   H     0.12898   0.68805   0.96158   0.00000  Uiso   1.00
H689   H     0.25587   0.99424   0.70888   0.00000  Uiso   1.00
H690   H     0.20559   0.51225   0.84369   0.00000  Uiso   1.00
H691   H     0.24122   0.81467   0.66973   0.00000  Uiso   1.00
H692   H     0.09089   0.68624   0.83016   0.00000  Uiso   1.00
H693   H     0.06193   0.74009   0.98283   0.00000  Uiso   1.00
H694   H     0.18259   0.83974   0.50593   0.00000  Uiso   1.00
H695   H     0.00731   0.75133   0.80593   0.00000  Uiso   1.00
H696   H     0.10735   0.52684   0.79068   0.00000  Uiso   1.00
H697   H     0.15200   0.97080   0.67427   0.00000  Uiso   1.00
H698   H     0.10472   0.60774   0.79109   0.00000  Uiso   1.00
H699   H     0.14952   0.88994   0.67298   0.00000  Uiso   1.00
H700   H     0.23166   0.61683   0.70843   0.00000  Uiso   1.00
H701   H     0.18521   0.88886   0.82800   0.00000  Uiso   1.00
H702   H     0.23989   0.78095   0.54302   0.00000  Uiso   1.00
N703   N     0.16667   0.75001   0.62935   0.00000  Uiso   1.00
N704   N     0.16667   0.74999   0.87066   0.00000  Uiso   1.00
N705   N     0.06335   0.67489   0.63734   0.00000  Uiso   1.00
N706   N     0.25962   0.83425   0.86125   0.00000  Uiso   1.00
O707   O     0.16667   0.68573   0.79072   0.00000  Uiso   1.00
O708   O     0.20211   0.95657   0.88057   0.00000  Uiso   1.00
O709   O     0.28881   0.80536   0.62213   0.00000  Uiso   1.00
O710   O     0.10247   0.64527   0.88496   0.00000  Uiso   1.00
O711   O     0.03654   0.70021   0.53113   0.00000  Uiso   1.00
O712   O     0.22797   0.86072   0.95901   0.00000  Uiso   1.00
O713   O     0.16666   0.81428   0.70929   0.00000  Uiso   1.00
O714   O     0.16667   0.68573   0.70928   0.00000  Uiso   1.00
O715   O     0.16666   0.81427   0.79072   0.00000  Uiso   1.00
O716   O     0.09161   0.75000   0.78132   0.00000  Uiso   1.00
O717   O     0.24172   0.75001   0.71868   0.00000  Uiso   1.00
O718   O     0.09161   0.75000   0.69989   0.00000  Uiso   1.00
O719   O     0.24172   0.75000   0.80012   0.00000  Uiso   1.00
O720   O     0.27827   0.55131   0.68208   0.00000  Uiso   1.00
C721   C     0.49996   0.66516   0.74991   0.00000  Uiso   1.00
C722   C     0.52002   0.78901   0.94810   0.00000  Uiso   1.00
C723   C     0.49635   0.75242   0.52684   0.00000  Uiso   1.00
C724   C     0.49753   0.75336   0.97233   0.00000  Uiso   1.00
C725   C     0.40133   0.74967   0.73764   0.00000  Uiso   1.00
C726   C     0.59867   0.75000   0.76238   0.00000  Uiso   1.00
C727   C     0.34601   0.74897   0.73091   0.00000  Uiso   1.00
C728   C     0.65400   0.75010   0.76918   0.00000  Uiso   1.00
C729   C     0.46841   0.54611   0.77300   0.00000  Uiso   1.00
C730   C     0.49344   0.95315   0.70799   0.00000  Uiso   1.00
C731   C     0.46687   0.59198   0.77331   0.00000  Uiso   1.00
C732   C     0.50001   0.83510   0.75008   0.00000  Uiso   1.00
C733   C     0.49179   0.90712   0.70730   0.00000  Uiso   1.00
C734   C     0.50150   0.61719   0.74972   0.00000  Uiso   1.00
C735   C     0.50095   0.88367   0.75057   0.00000  Uiso   1.00
C736   C     0.53810   0.59659   0.72613   0.00000  Uiso   1.00
C737   C     0.51187   0.90689   0.79452   0.00000  Uiso   1.00
C738   C     0.54144   0.55039   0.72700   0.00000  Uiso   1.00
C739   C     0.51549   0.95325   0.79565   0.00000  Uiso   1.00
C740   C     0.50576   0.52505   0.75058   0.00000  Uiso   1.00
C741   C     0.50572   0.97645   0.75170   0.00000  Uiso   1.00
C742   C     0.58310   0.52941   0.70487   0.00000  Uiso   1.00
C743   C     0.53966   0.76820   0.55810   0.00000  Uiso   1.00
C744   C     0.53095   0.97674   0.84250   0.00000  Uiso   1.00
C745   C     0.58052   0.79871   0.63658   0.00000  Uiso   1.00
C746   C     0.44295   0.68115   0.86636   0.00000  Uiso   1.00
C747   C     0.42484   0.69910   0.62084   0.00000  Uiso   1.00
C748   C     0.56279   0.81188   0.87745   0.00000  Uiso   1.00
C749   C     0.40338   0.72466   0.51789   0.00000  Uiso   1.00
C750   C     0.53281   0.83239   0.97364   0.00000  Uiso   1.00
C751   C     0.47798   0.71651   0.94417   0.00000  Uiso   1.00
C752   C     0.53906   0.77101   0.60833   0.00000  Uiso   1.00
C753   C     0.47491   0.71687   0.89348   0.00000  Uiso   1.00
C754   C     0.45996   0.72883   0.59979   0.00000  Uiso   1.00
C755   C     0.52600   0.78368   0.89828   0.00000  Uiso   1.00
C756   C     0.45413   0.73420   0.54845   0.00000  Uiso   1.00
Cu757  Cu    0.50000   0.75000   0.79822   0.00000  Uiso   1.00
Cu758  Cu    0.50000   0.75001   0.70179   0.00000  Uiso   1.00
H759   H     0.65941   0.74740   0.69421   0.00000  Uiso   1.00
H760   H     0.46231   0.68805   0.96158   0.00000  Uiso   1.00
H761   H     0.58921   0.99424   0.70888   0.00000  Uiso   1.00
H762   H     0.53892   0.51225   0.84369   0.00000  Uiso   1.00
H763   H     0.57455   0.81467   0.66973   0.00000  Uiso   1.00
H764   H     0.42422   0.68624   0.83016   0.00000  Uiso   1.00
H765   H     0.39527   0.74009   0.98283   0.00000  Uiso   1.00
H766   H     0.51592   0.83974   0.50593   0.00000  Uiso   1.00
H767   H     0.34064   0.75133   0.80593   0.00000  Uiso   1.00
H768   H     0.44068   0.52684   0.79068   0.00000  Uiso   1.00
H769   H     0.48533   0.97080   0.67427   0.00000  Uiso   1.00
H770   H     0.43805   0.60774   0.79109   0.00000  Uiso   1.00
H771   H     0.48286   0.88994   0.67298   0.00000  Uiso   1.00
H772   H     0.56499   0.61683   0.70843   0.00000  Uiso   1.00
H773   H     0.51854   0.88886   0.82800   0.00000  Uiso   1.00
H774   H     0.57322   0.78095   0.54302   0.00000  Uiso   1.00
N775   N     0.50000   0.75001   0.62935   0.00000  Uiso   1.00
N776   N     0.50000   0.74999   0.87066   0.00000  Uiso   1.00
N777   N     0.39668   0.67489   0.63734   0.00000  Uiso   1.00
N778   N     0.59295   0.83425   0.86125   0.00000  Uiso   1.00
O779   O     0.50000   0.68573   0.79072   0.00000  Uiso   1.00
O780   O     0.53544   0.95657   0.88057   0.00000  Uiso   1.00
O781   O     0.62214   0.80536   0.62213   0.00000  Uiso   1.00
O782   O     0.43580   0.64527   0.88496   0.00000  Uiso   1.00
O783   O     0.36988   0.70021   0.53113   0.00000  Uiso   1.00
O784   O     0.56131   0.86072   0.95901   0.00000  Uiso   1.00
O785   O     0.50000   0.81428   0.70929   0.00000  Uiso   1.00
O786   O     0.50000   0.68573   0.70928   0.00000  Uiso   1.00
O787   O     0.50000   0.81427   0.79072   0.00000  Uiso   1.00
O788   O     0.42495   0.75000   0.78132   0.00000  Uiso   1.00
O789   O     0.57505   0.75001   0.71868   0.00000  Uiso   1.00
O790   O     0.42495   0.75000   0.69989   0.00000  Uiso   1.00
O791   O     0.57505   0.75000   0.80012   0.00000  Uiso   1.00
O792   O     0.61160   0.55131   0.68208   0.00000  Uiso   1.00
C793   C     0.83330   0.66516   0.74991   0.00000  Uiso   1.00
C794   C     0.85335   0.78901   0.94810   0.00000  Uiso   1.00
C795   C     0.82969   0.75242   0.52684   0.00000  Uiso   1.00
C796   C     0.83086   0.75336   0.97233   0.00000  Uiso   1.00
C797   C     0.73466   0.74967   0.73764   0.00000  Uiso   1.00
C798   C     0.93201   0.75000   0.76238   0.00000  Uiso   1.00
C799   C     0.67934   0.74897   0.73091   0.00000  Uiso   1.00
C800   C     0.98734   0.75010   0.76918   0.00000  Uiso   1.00
C801   C     0.80174   0.54611   0.77300   0.00000  Uiso   1.00
C802   C     0.82677   0.95315   0.70799   0.00000  Uiso   1.00
C803   C     0.80020   0.59198   0.77331   0.00000  Uiso   1.00
C804   C     0.83335   0.83510   0.75008   0.00000  Uiso   1.00
C805   C     0.82513   0.90712   0.70730   0.00000  Uiso   1.00
C806   C     0.83483   0.61719   0.74972   0.00000  Uiso   1.00
C807   C     0.83428   0.88367   0.75057   0.00000  Uiso   1.00
C808   C     0.87143   0.59659   0.72613   0.00000  Uiso   1.00
C809   C     0.84521   0.90689   0.79452   0.00000  Uiso   1.00
C810   C     0.87477   0.55039   0.72700   0.00000  Uiso   1.00
C811   C     0.84883   0.95325   0.79565   0.00000  Uiso   1.00
C812   C     0.83910   0.52505   0.75058   0.00000  Uiso   1.00
C813   C     0.83906   0.97645   0.75170   0.00000  Uiso   1.00
C814   C     0.91643   0.52941   0.70487   0.00000  Uiso   1.00
C815   C     0.87299   0.76820   0.55810   0.00000  Uiso   1.00
C816   C     0.86428   0.97674   0.84250   0.00000  Uiso   1.00
C817   C     0.91385   0.79871   0.63658   0.00000  Uiso   1.00
C818   C     0.77628   0.68115   0.86636   0.00000  Uiso   1.00
C819   C     0.75817   0.69910   0.62084   0.00000  Uiso   1.00
C820   C     0.89612   0.81188   0.87745   0.00000  Uiso   1.00
C821   C     0.73672   0.72466   0.51789   0.00000  Uiso   1.00
C822   C     0.86614   0.83239   0.97364   0.00000  Uiso   1.00
C823   C     0.81131   0.71651   0.94417   0.00000  Uiso   1.00
C824   C     0.87239   0.77101   0.60833   0.00000  Uiso   1.00
C825   C     0.80825   0.71687   0.89348   0.00000  Uiso   1.00
C826   C     0.79330   0.72883   0.59979   0.00000  Uiso   1.00
C827   C     0.85934   0.78368   0.89828   0.00000  Uiso   1.00
C828   C     0.78747   0.73420   0.54845   0.00000  Uiso   1.00
Cu829  Cu    0.83333   0.75000   0.79822   0.00000  Uiso   1.00
Cu830  Cu    0.83333   0.75001   0.70179   0.00000  Uiso   1.00
H831   H     0.99274   0.74740   0.69421   0.00000  Uiso   1.00
H832   H     0.79565   0.68805   0.96158   0.00000  Uiso   1.00
H833   H     0.92254   0.99424   0.70888   0.00000  Uiso   1.00
H834   H     0.87225   0.51225   0.84369   0.00000  Uiso   1.00
H835   H     0.90789   0.81467   0.66973   0.00000  Uiso   1.00
H836   H     0.75756   0.68624   0.83016   0.00000  Uiso   1.00
H837   H     0.72860   0.74009   0.98283   0.00000  Uiso   1.00
H838   H     0.84926   0.83974   0.50593   0.00000  Uiso   1.00
H839   H     0.67397   0.75133   0.80593   0.00000  Uiso   1.00
H840   H     0.77401   0.52684   0.79068   0.00000  Uiso   1.00
H841   H     0.81866   0.97080   0.67427   0.00000  Uiso   1.00
H842   H     0.77139   0.60774   0.79109   0.00000  Uiso   1.00
H843   H     0.81619   0.88994   0.67298   0.00000  Uiso   1.00
H844   H     0.89832   0.61683   0.70843   0.00000  Uiso   1.00
H845   H     0.85187   0.88886   0.82800   0.00000  Uiso   1.00
H846   H     0.90656   0.78095   0.54302   0.00000  Uiso   1.00
N847   N     0.83333   0.75001   0.62935   0.00000  Uiso   1.00
N848   N     0.83333   0.74999   0.87066   0.00000  Uiso   1.00
N849   N     0.73001   0.67489   0.63734   0.00000  Uiso   1.00
N850   N     0.92629   0.83425   0.86125   0.00000  Uiso   1.00
O851   O     0.83334   0.68573   0.79072   0.00000  Uiso   1.00
O852   O     0.86877   0.95657   0.88057   0.00000  Uiso   1.00
O853   O     0.95548   0.80536   0.62213   0.00000  Uiso   1.00
O854   O     0.76914   0.64527   0.88496   0.00000  Uiso   1.00
O855   O     0.70321   0.70021   0.53113   0.00000  Uiso   1.00
O856   O     0.89464   0.86072   0.95901   0.00000  Uiso   1.00
O857   O     0.83333   0.81428   0.70929   0.00000  Uiso   1.00
O858   O     0.83334   0.68573   0.70928   0.00000  Uiso   1.00
O859   O     0.83333   0.81427   0.79072   0.00000  Uiso   1.00
O860   O     0.75828   0.75000   0.78132   0.00000  Uiso   1.00
O861   O     0.90839   0.75001   0.71868   0.00000  Uiso   1.00
O862   O     0.75828   0.75000   0.69989   0.00000  Uiso   1.00
O863   O     0.90839   0.75000   0.80012   0.00000  Uiso   1.00
O864   O     0.94493   0.55131   0.68208   0.00000  Uiso   1.00
loop_
_geom_bond_atom_site_label_1
_geom_bond_atom_site_label_2
_geom_bond_distance
_geom_bond_site_symmetry_2
_ccdc_geom_bond_type
C1     O66     1.296   .     A
C1     O59     1.298   .     A
C1     C14     1.451   .     S
C2     C35     1.433   .     A
C2     C4      1.423   .     A
C2     C30     1.495   .     S
C3     C36     1.422   .     A
C3     C23     1.400   .     A
C3     C436    1.529   1_554 S
C4     C31     1.401   .     A
C4     C435    1.529   .     S
C5     O68     1.291   .     A
C5     C7      1.433   .     S
C5     O70     1.294   .     A
C6     O69     1.292   .     A
C6     O71     1.293   .     A
C6     C8      1.434   .     S
C7     C152    1.335   1_455 S
C7     H183    1.086   1_455 S
C8     C79     1.335   .     S
C8     H119    1.087   .     S
C9     C11     1.387   .     A
C9     H48     1.084   .     S
C9     C20     1.403   .     A
C10    H49     1.084   .     S
C10    C21     1.402   .     A
C10    C13     1.389   .     A
C11    H50     1.083   .     S
C11    C14     1.395   .     A
C12    O65     1.302   .     A
C12    C15     1.466   .     S
C12    O67     1.300   .     A
C13    C15     1.400   .     A
C13    H51     1.083   .     S
C14    C16     1.399   .     A
C15    C17     1.403   .     A
C16    C18     1.401   .     A
C16    H52     1.084   .     S
C17    C19     1.400   .     A
C17    H53     1.081   .     S
C18    C22     1.487   .     S
C18    C20     1.416   .     A
C19    C24     1.487   .     S
C19    C21     1.414   .     A
C20    C237    1.468   1_545 S
C21    C236    1.468   .     S
C22    O72     1.221   .     D
C22    H257    1.084   1_545 S
C23    C32     1.409   .     A
C23    H54     1.083   .     S
C24    O60     1.221   .     D
C24    H258    1.084   .     S
C25    H43     1.077   .     S
C25    O61     1.222   .     D
C25    C32     1.481   .     S
C26    C33     1.480   .     S
C26    O62     1.222   .     D
C26    H44     1.077   .     S
C27    C34     1.443   .     S
C27    N57     1.158   .     T
C28    N58     1.158   .     T
C28    C35     1.442   .     S
C29    O63     1.220   .     D
C29    C36     1.495   .     S
C29    H477    1.085   1_554 S
C30    O64     1.220   .     D
C30    H478    1.084   .     S
C31    C33     1.409   .     A
C31    H40     1.083   .     S
C32    N55     1.380   .     A
C33    N56     1.380   .     A
C34    C36     1.433   .     A
C34    N55     1.378   .     A
C35    N56     1.376   .     A
Cu37   O59     1.952   .     S
Cu37   O67     1.953   .     S
Cu37   Cu38    2.697   .     S
Cu37   O71     1.957   .     S
Cu37   O68     1.956   .     S
Cu37   N56     2.026   .     S
Cu38   O65     1.952   .     S
Cu38   O69     1.956   .     S
Cu38   O70     1.957   .     S
Cu38   O66     1.953   .     S
Cu38   N55     2.026   .     S
H39    C79     1.086   .     S
H41    C238    1.084   .     S
H42    C240    1.084   1_545 S
H45    C461    1.085   .     S
H46    C462    1.084   1_554 S
H47    C152    1.087   1_455 S
C73    O138    1.296   .     A
C73    O131    1.298   .     A
C73    C86     1.451   .     S
C74    C107    1.433   .     A
C74    C76     1.423   .     A
C74    C102    1.495   .     S
C75    C108    1.422   .     A
C75    C95     1.400   .     A
C75    C508    1.529   1_554 S
C76    C103    1.401   .     A
C76    C507    1.529   .     S
C77    O140    1.291   .     A
C77    C79     1.433   .     S
C77    O142    1.294   .     A
C78    O141    1.292   .     A
C78    O143    1.293   .     A
C78    C80     1.434   .     S
C80    C151    1.335   .     S
C80    H191    1.087   .     S
C81    C83     1.387   .     A
C81    H120    1.084   .     S
C81    C92     1.403   .     A
C82    H121    1.084   .     S
C82    C93     1.402   .     A
C82    C85     1.389   .     A
C83    H122    1.083   .     S
C83    C86     1.395   .     A
C84    O137    1.302   .     A
C84    C87     1.466   .     S
C84    O139    1.300   .     A
C85    C87     1.400   .     A
C85    H123    1.083   .     S
C86    C88     1.399   .     A
C87    C89     1.403   .     A
C88    C90     1.401   .     A
C88    H124    1.084   .     S
C89    C91     1.400   .     A
C89    H125    1.081   .     S
C90    C94     1.487   .     S
C90    C92     1.416   .     A
C91    C96     1.487   .     S
C91    C93     1.414   .     A
C92    C309    1.468   1_545 S
C93    C308    1.468   .     S
C94    O144    1.221   .     D
C94    H329    1.084   1_545 S
C95    C104    1.409   .     A
C95    H126    1.083   .     S
C96    O132    1.221   .     D
C96    H330    1.084   .     S
C97    H115    1.077   .     S
C97    O133    1.222   .     D
C97    C104    1.481   .     S
C98    C105    1.480   .     S
C98    O134    1.222   .     D
C98    H116    1.077   .     S
C99    C106    1.443   .     S
C99    N129    1.158   .     T
C100   N130    1.158   .     T
C100   C107    1.442   .     S
C101   O135    1.220   .     D
C101   C108    1.495   .     S
C101   H549    1.085   1_554 S
C102   O136    1.220   .     D
C102   H550    1.084   .     S
C103   C105    1.409   .     A
C103   H112    1.083   .     S
C104   N127    1.380   .     A
C105   N128    1.380   .     A
C106   C108    1.433   .     A
C106   N127    1.378   .     A
C107   N128    1.376   .     A
Cu109  O131    1.952   .     S
Cu109  O139    1.953   .     S
Cu109  Cu110   2.697   .     S
Cu109  O143    1.957   .     S
Cu109  O140    1.956   .     S
Cu109  N128    2.026   .     S
Cu110  O137    1.952   .     S
Cu110  O141    1.956   .     S
Cu110  O142    1.957   .     S
Cu110  O138    1.953   .     S
Cu110  N127    2.026   .     S
H111   C151    1.086   .     S
H113   C310    1.084   .     S
H114   C312    1.084   1_545 S
H117   C533    1.085   .     S
H118   C534    1.084   1_554 S
C145   O210    1.296   .     A
C145   O203    1.298   .     A
C145   C158    1.451   .     S
C146   C179    1.433   .     A
C146   C148    1.423   .     A
C146   C174    1.495   .     S
C147   C180    1.422   .     A
C147   C167    1.400   .     A
C147   C580    1.529   1_554 S
C148   C175    1.401   .     A
C148   C579    1.529   .     S
C149   O212    1.291   .     A
C149   C151    1.433   .     S
C149   O214    1.294   .     A
C150   O213    1.292   .     A
C150   O215    1.293   .     A
C150   C152    1.434   .     S
C152   C7      1.335   1_655 S
C152   H47     1.087   1_655 S
C153   C155    1.387   .     A
C153   H192    1.084   .     S
C153   C164    1.403   .     A
C154   H193    1.084   .     S
C154   C165    1.402   .     A
C154   C157    1.389   .     A
C155   H194    1.083   .     S
C155   C158    1.395   .     A
C156   O209    1.302   .     A
C156   C159    1.466   .     S
C156   O211    1.300   .     A
C157   C159    1.400   .     A
C157   H195    1.083   .     S
C158   C160    1.399   .     A
C159   C161    1.403   .     A
C160   C162    1.401   .     A
C160   H196    1.084   .     S
C161   C163    1.400   .     A
C161   H197    1.081   .     S
C162   C166    1.487   .     S
C162   C164    1.416   .     A
C163   C168    1.487   .     S
C163   C165    1.414   .     A
C164   C381    1.468   1_545 S
C165   C380    1.468   .     S
C166   O216    1.221   .     D
C166   H401    1.084   1_545 S
C167   C176    1.409   .     A
C167   H198    1.083   .     S
C168   O204    1.221   .     D
C168   H402    1.084   .     S
C169   H187    1.077   .     S
C169   O205    1.222   .     D
C169   C176    1.481   .     S
C170   C177    1.480   .     S
C170   O206    1.222   .     D
C170   H188    1.077   .     S
C171   C178    1.443   .     S
C171   N201    1.158   .     T
C172   N202    1.158   .     T
C172   C179    1.442   .     S
C173   O207    1.220   .     D
C173   C180    1.495   .     S
C173   H621    1.085   1_554 S
C174   O208    1.220   .     D
C174   H622    1.084   .     S
C175   C177    1.409   .     A
C175   H184    1.083   .     S
C176   N199    1.380   .     A
C177   N200    1.380   .     A
C178   C180    1.433   .     A
C178   N199    1.378   .     A
C179   N200    1.376   .     A
Cu181  O203    1.952   .     S
Cu181  O211    1.953   .     S
Cu181  Cu182   2.697   .     S
Cu181  O215    1.957   .     S
Cu181  O212    1.956   .     S
Cu181  N200    2.026   .     S
Cu182  O209    1.952   .     S
Cu182  O213    1.956   .     S
Cu182  O214    1.957   .     S
Cu182  O210    1.953   .     S
Cu182  N199    2.026   .     S
H183   C7      1.086   1_655 S
H185   C382    1.084   .     S
H186   C384    1.084   1_545 S
H189   C605    1.085   .     S
H190   C606    1.084   1_554 S
C217   O282    1.296   .     A
C217   O275    1.298   .     A
C217   C230    1.451   .     S
C218   C251    1.433   .     A
C218   C220    1.423   .     A
C218   C246    1.495   .     S
C219   C252    1.422   .     A
C219   C239    1.400   .     A
C219   C652    1.529   1_554 S
C220   C247    1.401   .     A
C220   C651    1.529   .     S
C221   O284    1.291   .     A
C221   C223    1.433   .     S
C221   O286    1.294   .     A
C222   O285    1.292   .     A
C222   O287    1.293   .     A
C222   C224    1.434   .     S
C223   C368    1.335   1_455 S
C223   H399    1.086   1_455 S
C224   C295    1.335   .     S
C224   H335    1.087   .     S
C225   C227    1.387   .     A
C225   H264    1.084   .     S
C225   C236    1.403   .     A
C226   H265    1.084   .     S
C226   C237    1.402   .     A
C226   C229    1.389   .     A
C227   H266    1.083   .     S
C227   C230    1.395   .     A
C228   O281    1.302   .     A
C228   C231    1.466   .     S
C228   O283    1.300   .     A
C229   C231    1.400   .     A
C229   H267    1.083   .     S
C230   C232    1.399   .     A
C231   C233    1.403   .     A
C232   C234    1.401   .     A
C232   H268    1.084   .     S
C233   C235    1.400   .     A
C233   H269    1.081   .     S
C234   C238    1.487   .     S
C234   C236    1.416   .     A
C235   C240    1.487   .     S
C235   C237    1.414   .     A
C237   C20     1.468   1_565 S
C238   O288    1.221   .     D
C239   C248    1.409   .     A
C239   H270    1.083   .     S
C240   O276    1.221   .     D
C240   H42     1.084   1_565 S
C241   H259    1.077   .     S
C241   O277    1.222   .     D
C241   C248    1.481   .     S
C242   C249    1.480   .     S
C242   O278    1.222   .     D
C242   H260    1.077   .     S
C243   C250    1.443   .     S
C243   N273    1.158   .     T
C244   N274    1.158   .     T
C244   C251    1.442   .     S
C245   O279    1.220   .     D
C245   C252    1.495   .     S
C245   H693    1.085   1_554 S
C246   O280    1.220   .     D
C246   H694    1.084   .     S
C247   C249    1.409   .     A
C247   H256    1.083   .     S
C248   N271    1.380   .     A
C249   N272    1.380   .     A
C250   C252    1.433   .     A
C250   N271    1.378   .     A
C251   N272    1.376   .     A
Cu253  O275    1.952   .     S
Cu253  O283    1.953   .     S
Cu253  Cu254   2.697   .     S
Cu253  O287    1.957   .     S
Cu253  O284    1.956   .     S
Cu253  N272    2.026   .     S
Cu254  O281    1.952   .     S
Cu254  O285    1.956   .     S
Cu254  O286    1.957   .     S
Cu254  O282    1.953   .     S
Cu254  N271    2.026   .     S
H255   C295    1.086   .     S
H257   C22     1.084   1_565 S
H261   C677    1.085   .     S
H262   C678    1.084   1_554 S
H263   C368    1.087   1_455 S
C289   O354    1.296   .     A
C289   O347    1.298   .     A
C289   C302    1.451   .     S
C290   C323    1.433   .     A
C290   C292    1.423   .     A
C290   C318    1.495   .     S
C291   C324    1.422   .     A
C291   C311    1.400   .     A
C291   C724    1.529   1_554 S
C292   C319    1.401   .     A
C292   C723    1.529   .     S
C293   O356    1.291   .     A
C293   C295    1.433   .     S
C293   O358    1.294   .     A
C294   O357    1.292   .     A
C294   O359    1.293   .     A
C294   C296    1.434   .     S
C296   C367    1.335   .     S
C296   H407    1.087   .     S
C297   C299    1.387   .     A
C297   H336    1.084   .     S
C297   C308    1.403   .     A
C298   H337    1.084   .     S
C298   C309    1.402   .     A
C298   C301    1.389   .     A
C299   H338    1.083   .     S
C299   C302    1.395   .     A
C300   O353    1.302   .     A
C300   C303    1.466   .     S
C300   O355    1.300   .     A
C301   C303    1.400   .     A
C301   H339    1.083   .     S
C302   C304    1.399   .     A
C303   C305    1.403   .     A
C304   C306    1.401   .     A
C304   H340    1.084   .     S
C305   C307    1.400   .     A
C305   H341    1.081   .     S
C306   C310    1.487   .     S
C306   C308    1.416   .     A
C307   C312    1.487   .     S
C307   C309    1.414   .     A
C309   C92     1.468   1_565 S
C310   O360    1.221   .     D
C311   C320    1.409   .     A
C311   H342    1.083   .     S
C312   O348    1.221   .     D
C312   H114    1.084   1_565 S
C313   H331    1.077   .     S
C313   O349    1.222   .     D
C313   C320    1.481   .     S
C314   C321    1.480   .     S
C314   O350    1.222   .     D
C314   H332    1.077   .     S
C315   C322    1.443   .     S
C315   N345    1.158   .     T
C316   N346    1.158   .     T
C316   C323    1.442   .     S
C317   O351    1.220   .     D
C317   C324    1.495   .     S
C317   H765    1.085   1_554 S
C318   O352    1.220   .     D
C318   H766    1.084   .     S
C319   C321    1.409   .     A
C319   H328    1.083   .     S
C320   N343    1.380   .     A
C321   N344    1.380   .     A
C322   C324    1.433   .     A
C322   N343    1.378   .     A
C323   N344    1.376   .     A
Cu325  O347    1.952   .     S
Cu325  O355    1.953   .     S
Cu325  Cu326   2.697   .     S
Cu325  O359    1.957   .     S
Cu325  O356    1.956   .     S
Cu325  N344    2.026   .     S
Cu326  O353    1.952   .     S
Cu326  O357    1.956   .     S
Cu326  O358    1.957   .     S
Cu326  O354    1.953   .     S
Cu326  N343    2.026   .     S
H327   C367    1.086   .     S
H329   C94     1.084   1_565 S
H333   C749    1.085   .     S
H334   C750    1.084   1_554 S
C361   O426    1.296   .     A
C361   O419    1.298   .     A
C361   C374    1.451   .     S
C362   C395    1.433   .     A
C362   C364    1.423   .     A
C362   C390    1.495   .     S
C363   C396    1.422   .     A
C363   C383    1.400   .     A
C363   C796    1.529   1_554 S
C364   C391    1.401   .     A
C364   C795    1.529   .     S
C365   O428    1.291   .     A
C365   C367    1.433   .     S
C365   O430    1.294   .     A
C366   O429    1.292   .     A
C366   O431    1.293   .     A
C366   C368    1.434   .     S
C368   C223    1.335   1_655 S
C368   H263    1.087   1_655 S
C369   C371    1.387   .     A
C369   H408    1.084   .     S
C369   C380    1.403   .     A
C370   H409    1.084   .     S
C370   C381    1.402   .     A
C370   C373    1.389   .     A
C371   H410    1.083   .     S
C371   C374    1.395   .     A
C372   O425    1.302   .     A
C372   C375    1.466   .     S
C372   O427    1.300   .     A
C373   C375    1.400   .     A
C373   H411    1.083   .     S
C374   C376    1.399   .     A
C375   C377    1.403   .     A
C376   C378    1.401   .     A
C376   H412    1.084   .     S
C377   C379    1.400   .     A
C377   H413    1.081   .     S
C378   C382    1.487   .     S
C378   C380    1.416   .     A
C379   C384    1.487   .     S
C379   C381    1.414   .     A
C381   C164    1.468   1_565 S
C382   O432    1.221   .     D
C383   C392    1.409   .     A
C383   H414    1.083   .     S
C384   O420    1.221   .     D
C384   H186    1.084   1_565 S
C385   H403    1.077   .     S
C385   O421    1.222   .     D
C385   C392    1.481   .     S
C386   C393    1.480   .     S
C386   O422    1.222   .     D
C386   H404    1.077   .     S
C387   C394    1.443   .     S
C387   N417    1.158   .     T
C388   N418    1.158   .     T
C388   C395    1.442   .     S
C389   O423    1.220   .     D
C389   C396    1.495   .     S
C389   H837    1.085   1_554 S
C390   O424    1.220   .     D
C390   H838    1.084   .     S
C391   C393    1.409   .     A
C391   H400    1.083   .     S
C392   N415    1.380   .     A
C393   N416    1.380   .     A
C394   C396    1.433   .     A
C394   N415    1.378   .     A
C395   N416    1.376   .     A
Cu397  O419    1.952   .     S
Cu397  O427    1.953   .     S
Cu397  Cu398   2.697   .     S
Cu397  O431    1.957   .     S
Cu397  O428    1.956   .     S
Cu397  N416    2.026   .     S
Cu398  O425    1.952   .     S
Cu398  O429    1.956   .     S
Cu398  O430    1.957   .     S
Cu398  O426    1.953   .     S
Cu398  N415    2.026   .     S
H399   C223    1.086   1_655 S
H401   C166    1.084   1_565 S
H405   C821    1.085   .     S
H406   C822    1.084   1_554 S
C433   O498    1.296   .     A
C433   O491    1.298   .     A
C433   C446    1.451   .     S
C434   C467    1.433   .     A
C434   C436    1.423   .     A
C434   C462    1.495   .     S
C435   C468    1.422   .     A
C435   C455    1.400   .     A
C436   C463    1.401   .     A
C436   C3      1.529   1_556 S
C437   O500    1.291   .     A
C437   C439    1.433   .     S
C437   O502    1.294   .     A
C438   O501    1.292   .     A
C438   O503    1.293   .     A
C438   C440    1.434   .     S
C439   C584    1.335   1_455 S
C439   H615    1.086   1_455 S
C440   C511    1.335   .     S
C440   H551    1.087   .     S
C441   C443    1.387   .     A
C441   H480    1.084   .     S
C441   C452    1.403   .     A
C442   H481    1.084   .     S
C442   C453    1.402   .     A
C442   C445    1.389   .     A
C443   H482    1.083   .     S
C443   C446    1.395   .     A
C444   O497    1.302   .     A
C444   C447    1.466   .     S
C444   O499    1.300   .     A
C445   C447    1.400   .     A
C445   H483    1.083   .     S
C446   C448    1.399   .     A
C447   C449    1.403   .     A
C448   C450    1.401   .     A
C448   H484    1.084   .     S
C449   C451    1.400   .     A
C449   H485    1.081   .     S
C450   C454    1.487   .     S
C450   C452    1.416   .     A
C451   C456    1.487   .     S
C451   C453    1.414   .     A
C452   C669    1.468   1_545 S
C453   C668    1.468   .     S
C454   O504    1.221   .     D
C454   H689    1.084   1_545 S
C455   C464    1.409   .     A
C455   H486    1.083   .     S
C456   O492    1.221   .     D
C456   H690    1.084   .     S
C457   H475    1.077   .     S
C457   O493    1.222   .     D
C457   C464    1.481   .     S
C458   C465    1.480   .     S
C458   O494    1.222   .     D
C458   H476    1.077   .     S
C459   C466    1.443   .     S
C459   N489    1.158   .     T
C460   N490    1.158   .     T
C460   C467    1.442   .     S
C461   O495    1.220   .     D
C461   C468    1.495   .     S
C462   O496    1.220   .     D
C462   H46     1.084   1_556 S
C463   C465    1.409   .     A
C463   H472    1.083   .     S
C464   N487    1.380   .     A
C465   N488    1.380   .     A
C466   C468    1.433   .     A
C466   N487    1.378   .     A
C467   N488    1.376   .     A
Cu469  O491    1.952   .     S
Cu469  O499    1.953   .     S
Cu469  Cu470   2.697   .     S
Cu469  O503    1.957   .     S
Cu469  O500    1.956   .     S
Cu469  N488    2.026   .     S
Cu470  O497    1.952   .     S
Cu470  O501    1.956   .     S
Cu470  O502    1.957   .     S
Cu470  O498    1.953   .     S
Cu470  N487    2.026   .     S
H471   C511    1.086   .     S
H473   C670    1.084   .     S
H474   C672    1.084   1_545 S
H477   C29     1.085   1_556 S
H479   C584    1.087   1_455 S
C505   O570    1.296   .     A
C505   O563    1.298   .     A
C505   C518    1.451   .     S
C506   C539    1.433   .     A
C506   C508    1.423   .     A
C506   C534    1.495   .     S
C507   C540    1.422   .     A
C507   C527    1.400   .     A
C508   C535    1.401   .     A
C508   C75     1.529   1_556 S
C509   O572    1.291   .     A
C509   C511    1.433   .     S
C509   O574    1.294   .     A
C510   O573    1.292   .     A
C510   O575    1.293   .     A
C510   C512    1.434   .     S
C512   C583    1.335   .     S
C512   H623    1.087   .     S
C513   C515    1.387   .     A
C513   H552    1.084   .     S
C513   C524    1.403   .     A
C514   H553    1.084   .     S
C514   C525    1.402   .     A
C514   C517    1.389   .     A
C515   H554    1.083   .     S
C515   C518    1.395   .     A
C516   O569    1.302   .     A
C516   C519    1.466   .     S
C516   O571    1.300   .     A
C517   C519    1.400   .     A
C517   H555    1.083   .     S
C518   C520    1.399   .     A
C519   C521    1.403   .     A
C520   C522    1.401   .     A
C520   H556    1.084   .     S
C521   C523    1.400   .     A
C521   H557    1.081   .     S
C522   C526    1.487   .     S
C522   C524    1.416   .     A
C523   C528    1.487   .     S
C523   C525    1.414   .     A
C524   C741    1.468   1_545 S
C525   C740    1.468   .     S
C526   O576    1.221   .     D
C526   H761    1.084   1_545 S
C527   C536    1.409   .     A
C527   H558    1.083   .     S
C528   O564    1.221   .     D
C528   H762    1.084   .     S
C529   H547    1.077   .     S
C529   O565    1.222   .     D
C529   C536    1.481   .     S
C530   C537    1.480   .     S
C530   O566    1.222   .     D
C530   H548    1.077   .     S
C531   C538    1.443   .     S
C531   N561    1.158   .     T
C532   N562    1.158   .     T
C532   C539    1.442   .     S
C533   O567    1.220   .     D
C533   C540    1.495   .     S
C534   O568    1.220   .     D
C534   H118    1.084   1_556 S
C535   C537    1.409   .     A
C535   H544    1.083   .     S
C536   N559    1.380   .     A
C537   N560    1.380   .     A
C538   C540    1.433   .     A
C538   N559    1.378   .     A
C539   N560    1.376   .     A
Cu541  O563    1.952   .     S
Cu541  O571    1.953   .     S
Cu541  Cu542   2.697   .     S
Cu541  O575    1.957   .     S
Cu541  O572    1.956   .     S
Cu541  N560    2.026   .     S
Cu542  O569    1.952   .     S
Cu542  O573    1.956   .     S
Cu542  O574    1.957   .     S
Cu542  O570    1.953   .     S
Cu542  N559    2.026   .     S
H543   C583    1.086   .     S
H545   C742    1.084   .     S
H546   C744    1.084   1_545 S
H549   C101    1.085   1_556 S
C577   O642    1.296   .     A
C577   O635    1.298   .     A
C577   C590    1.451   .     S
C578   C611    1.433   .     A
C578   C580    1.423   .     A
C578   C606    1.495   .     S
C579   C612    1.422   .     A
C579   C599    1.400   .     A
C580   C607    1.401   .     A
C580   C147    1.529   1_556 S
C581   O644    1.291   .     A
C581   C583    1.433   .     S
C581   O646    1.294   .     A
C582   O645    1.292   .     A
C582   O647    1.293   .     A
C582   C584    1.434   .     S
C584   C439    1.335   1_655 S
C584   H479    1.087   1_655 S
C585   C587    1.387   .     A
C585   H624    1.084   .     S
C585   C596    1.403   .     A
C586   H625    1.084   .     S
C586   C597    1.402   .     A
C586   C589    1.389   .     A
C587   H626    1.083   .     S
C587   C590    1.395   .     A
C588   O641    1.302   .     A
C588   C591    1.466   .     S
C588   O643    1.300   .     A
C589   C591    1.400   .     A
C589   H627    1.083   .     S
C590   C592    1.399   .     A
C591   C593    1.403   .     A
C592   C594    1.401   .     A
C592   H628    1.084   .     S
C593   C595    1.400   .     A
C593   H629    1.081   .     S
C594   C598    1.487   .     S
C594   C596    1.416   .     A
C595   C600    1.487   .     S
C595   C597    1.414   .     A
C596   C813    1.468   1_545 S
C597   C812    1.468   .     S
C598   O648    1.221   .     D
C598   H833    1.084   1_545 S
C599   C608    1.409   .     A
C599   H630    1.083   .     S
C600   O636    1.221   .     D
C600   H834    1.084   .     S
C601   H619    1.077   .     S
C601   O637    1.222   .     D
C601   C608    1.481   .     S
C602   C609    1.480   .     S
C602   O638    1.222   .     D
C602   H620    1.077   .     S
C603   C610    1.443   .     S
C603   N633    1.158   .     T
C604   N634    1.158   .     T
C604   C611    1.442   .     S
C605   O639    1.220   .     D
C605   C612    1.495   .     S
C606   O640    1.220   .     D
C606   H190    1.084   1_556 S
C607   C609    1.409   .     A
C607   H616    1.083   .     S
C608   N631    1.380   .     A
C609   N632    1.380   .     A
C610   C612    1.433   .     A
C610   N631    1.378   .     A
C611   N632    1.376   .     A
Cu613  O635    1.952   .     S
Cu613  O643    1.953   .     S
Cu613  Cu614   2.697   .     S
Cu613  O647    1.957   .     S
Cu613  O644    1.956   .     S
Cu613  N632    2.026   .     S
Cu614  O641    1.952   .     S
Cu614  O645    1.956   .     S
Cu614  O646    1.957   .     S
Cu614  O642    1.953   .     S
Cu614  N631    2.026   .     S
H615   C439    1.086   1_655 S
H617   C814    1.084   .     S
H618   C816    1.084   1_545 S
H621   C173    1.085   1_556 S
C649   O714    1.296   .     A
C649   O707    1.298   .     A
C649   C662    1.451   .     S
C650   C683    1.433   .     A
C650   C652    1.423   .     A
C650   C678    1.495   .     S
C651   C684    1.422   .     A
C651   C671    1.400   .     A
C652   C679    1.401   .     A
C652   C219    1.529   1_556 S
C653   O716    1.291   .     A
C653   C655    1.433   .     S
C653   O718    1.294   .     A
C654   O717    1.292   .     A
C654   O719    1.293   .     A
C654   C656    1.434   .     S
C655   C800    1.335   1_455 S
C655   H831    1.086   1_455 S
C656   C727    1.335   .     S
C656   H767    1.087   .     S
C657   C659    1.387   .     A
C657   H696    1.084   .     S
C657   C668    1.403   .     A
C658   H697    1.084   .     S
C658   C669    1.402   .     A
C658   C661    1.389   .     A
C659   H698    1.083   .     S
C659   C662    1.395   .     A
C660   O713    1.302   .     A
C660   C663    1.466   .     S
C660   O715    1.300   .     A
C661   C663    1.400   .     A
C661   H699    1.083   .     S
C662   C664    1.399   .     A
C663   C665    1.403   .     A
C664   C666    1.401   .     A
C664   H700    1.084   .     S
C665   C667    1.400   .     A
C665   H701    1.081   .     S
C666   C670    1.487   .     S
C666   C668    1.416   .     A
C667   C672    1.487   .     S
C667   C669    1.414   .     A
C669   C452    1.468   1_565 S
C670   O720    1.221   .     D
C671   C680    1.409   .     A
C671   H702    1.083   .     S
C672   O708    1.221   .     D
C672   H474    1.084   1_565 S
C673   H691    1.077   .     S
C673   O709    1.222   .     D
C673   C680    1.481   .     S
C674   C681    1.480   .     S
C674   O710    1.222   .     D
C674   H692    1.077   .     S
C675   C682    1.443   .     S
C675   N705    1.158   .     T
C676   N706    1.158   .     T
C676   C683    1.442   .     S
C677   O711    1.220   .     D
C677   C684    1.495   .     S
C678   O712    1.220   .     D
C678   H262    1.084   1_556 S
C679   C681    1.409   .     A
C679   H688    1.083   .     S
C680   N703    1.380   .     A
C681   N704    1.380   .     A
C682   C684    1.433   .     A
C682   N703    1.378   .     A
C683   N704    1.376   .     A
Cu685  O707    1.952   .     S
Cu685  O715    1.953   .     S
Cu685  Cu686   2.697   .     S
Cu685  O719    1.957   .     S
Cu685  O716    1.956   .     S
Cu685  N704    2.026   .     S
Cu686  O713    1.952   .     S
Cu686  O717    1.956   .     S
Cu686  O718    1.957   .     S
Cu686  O714    1.953   .     S
Cu686  N703    2.026   .     S
H687   C727    1.086   .     S
H689   C454    1.084   1_565 S
H693   C245    1.085   1_556 S
H695   C800    1.087   1_455 S
C721   O786    1.296   .     A
C721   O779    1.298   .     A
C721   C734    1.451   .     S
C722   C755    1.433   .     A
C722   C724    1.423   .     A
C722   C750    1.495   .     S
C723   C756    1.422   .     A
C723   C743    1.400   .     A
C724   C751    1.401   .     A
C724   C291    1.529   1_556 S
C725   O788    1.291   .     A
C725   C727    1.433   .     S
C725   O790    1.294   .     A
C726   O789    1.292   .     A
C726   O791    1.293   .     A
C726   C728    1.434   .     S
C728   C799    1.335   .     S
C728   H839    1.087   .     S
C729   C731    1.387   .     A
C729   H768    1.084   .     S
C729   C740    1.403   .     A
C730   H769    1.084   .     S
C730   C741    1.402   .     A
C730   C733    1.389   .     A
C731   H770    1.083   .     S
C731   C734    1.395   .     A
C732   O785    1.302   .     A
C732   C735    1.466   .     S
C732   O787    1.300   .     A
C733   C735    1.400   .     A
C733   H771    1.083   .     S
C734   C736    1.399   .     A
C735   C737    1.403   .     A
C736   C738    1.401   .     A
C736   H772    1.084   .     S
C737   C739    1.400   .     A
C737   H773    1.081   .     S
C738   C742    1.487   .     S
C738   C740    1.416   .     A
C739   C744    1.487   .     S
C739   C741    1.414   .     A
C741   C524    1.468   1_565 S
C742   O792    1.221   .     D
C743   C752    1.409   .     A
C743   H774    1.083   .     S
C744   O780    1.221   .     D
C744   H546    1.084   1_565 S
C745   H763    1.077   .     S
C745   O781    1.222   .     D
C745   C752    1.481   .     S
C746   C753    1.480   .     S
C746   O782    1.222   .     D
C746   H764    1.077   .     S
C747   C754    1.443   .     S
C747   N777    1.158   .     T
C748   N778    1.158   .     T
C748   C755    1.442   .     S
C749   O783    1.220   .     D
C749   C756    1.495   .     S
C750   O784    1.220   .     D
C750   H334    1.084   1_556 S
C751   C753    1.409   .     A
C751   H760    1.083   .     S
C752   N775    1.380   .     A
C753   N776    1.380   .     A
C754   C756    1.433   .     A
C754   N775    1.378   .     A
C755   N776    1.376   .     A
Cu757  O779    1.952   .     S
Cu757  O787    1.953   .     S
Cu757  Cu758   2.697   .     S
Cu757  O791    1.957   .     S
Cu757  O788    1.956   .     S
Cu757  N776    2.026   .     S
Cu758  O785    1.952   .     S
Cu758  O789    1.956   .     S
Cu758  O790    1.957   .     S
Cu758  O786    1.953   .     S
Cu758  N775    2.026   .     S
H759   C799    1.086   .     S
H761   C526    1.084   1_565 S
H765   C317    1.085   1_556 S
C793   O858    1.296   .     A
C793   O851    1.298   .     A
C793   C806    1.451   .     S
C794   C827    1.433   .     A
C794   C796    1.423   .     A
C794   C822    1.495   .     S
C795   C828    1.422   .     A
C795   C815    1.400   .     A
C796   C823    1.401   .     A
C796   C363    1.529   1_556 S
C797   O860    1.291   .     A
C797   C799    1.433   .     S
C797   O862    1.294   .     A
C798   O861    1.292   .     A
C798   O863    1.293   .     A
C798   C800    1.434   .     S
C800   C655    1.335   1_655 S
C800   H695    1.087   1_655 S
C801   C803    1.387   .     A
C801   H840    1.084   .     S
C801   C812    1.403   .     A
C802   H841    1.084   .     S
C802   C813    1.402   .     A
C802   C805    1.389   .     A
C803   H842    1.083   .     S
C803   C806    1.395   .     A
C804   O857    1.302   .     A
C804   C807    1.466   .     S
C804   O859    1.300   .     A
C805   C807    1.400   .     A
C805   H843    1.083   .     S
C806   C808    1.399   .     A
C807   C809    1.403   .     A
C808   C810    1.401   .     A
C808   H844    1.084   .     S
C809   C811    1.400   .     A
C809   H845    1.081   .     S
C810   C814    1.487   .     S
C810   C812    1.416   .     A
C811   C816    1.487   .     S
C811   C813    1.414   .     A
C813   C596    1.468   1_565 S
C814   O864    1.221   .     D
C815   C824    1.409   .     A
C815   H846    1.083   .     S
C816   O852    1.221   .     D
C816   H618    1.084   1_565 S
C817   H835    1.077   .     S
C817   O853    1.222   .     D
C817   C824    1.481   .     S
C818   C825    1.480   .     S
C818   O854    1.222   .     D
C818   H836    1.077   .     S
C819   C826    1.443   .     S
C819   N849    1.158   .     T
C820   N850    1.158   .     T
C820   C827    1.442   .     S
C821   O855    1.220   .     D
C821   C828    1.495   .     S
C822   O856    1.220   .     D
C822   H406    1.084   1_556 S
C823   C825    1.409   .     A
C823   H832    1.083   .     S
C824   N847    1.380   .     A
C825   N848    1.380   .     A
C826   C828    1.433   .     A
C826   N847    1.378   .     A
C827   N848    1.376   .     A
Cu829  O851    1.952   .     S
Cu829  O859    1.953   .     S
Cu829  Cu830   2.697   .     S
Cu829  O863    1.957   .     S
Cu829  O860    1.956   .     S
Cu829  N848    2.026   .     S
Cu830  O857    1.952   .     S
Cu830  O861    1.956   .     S
Cu830  O862    1.957   .     S
Cu830  O858    1.953   .     S
Cu830  N847    2.026   .     S
H831   C655    1.086   1_655 S
H833   C598    1.084   1_565 S
H837   C389    1.085   1_556 S
