data_str_m2_o1_o10_pcu_sym.108
_audit_creation_date              2020-01-03
_audit_creation_method            'Materials Studio'
_symmetry_space_group_name_H-M    'P1'
_symmetry_Int_Tables_number       1
_symmetry_cell_setting            triclinic
loop_
_symmetry_equiv_pos_as_xyz
  x,y,z
_cell_length_a                    26.1463
_cell_length_b                    32.4180
_cell_length_c                    28.7759
_cell_angle_alpha                 89.7120
_cell_angle_beta                  98.0803
_cell_angle_gamma                 91.4978
loop_
_atom_site_label
_atom_site_type_symbol
_atom_site_fract_x
_atom_site_fract_y
_atom_site_fract_z
_atom_site_U_iso_or_equiv
_atom_site_adp_type
_atom_site_occupancy
C1     C     0.16621   0.08744   0.16671   0.00000  Uiso   1.00
C2     C     0.16632   0.24588   0.16663   0.00000  Uiso   1.00
C3     C     0.06798   0.16693   0.15457   0.00000  Uiso   1.00
C4     C     0.26534   0.16732   0.17871   0.00000  Uiso   1.00
C5     C     0.01257   0.16674   0.14792   0.00000  Uiso   1.00
C6     C     0.32070   0.16890   0.18510   0.00000  Uiso   1.00
C7     C     0.14654   0.02110   0.12585   0.00000  Uiso   1.00
C8     C     0.18351   0.31215   0.20816   0.00000  Uiso   1.00
C9     C     0.14606   0.31173   0.12596   0.00000  Uiso   1.00
C10    C     0.18330   0.02153   0.20825   0.00000  Uiso   1.00
C11    C     0.16543   0.29051   0.16682   0.00000  Uiso   1.00
C12    C     0.16540   0.04278   0.16692   0.00000  Uiso   1.00
C13    C     0.13872   0.13727   0.02136   0.00000  Uiso   1.00
C14    C     0.19727   0.19421   0.31212   0.00000  Uiso   1.00
C15    C     0.13906   0.13708   0.30505   0.00000  Uiso   1.00
C16    C     0.19508   0.19575   0.02849   0.00000  Uiso   1.00
Cu17   Cu    0.16667   0.16667   0.21355   0.00000  Uiso   1.00
Cu18   Cu    0.16667   0.16666   0.11978   0.00000  Uiso   1.00
H19    H     0.32578   0.16427   0.11227   0.00000  Uiso   1.00
H20    H     0.00745   0.17208   0.22057   0.00000  Uiso   1.00
H21    H     0.13161   0.03703   0.09389   0.00000  Uiso   1.00
H22    H     0.19837   0.29613   0.24016   0.00000  Uiso   1.00
H23    H     0.13021   0.29535   0.09430   0.00000  Uiso   1.00
H24    H     0.19793   0.03789   0.24032   0.00000  Uiso   1.00
N25    N     0.16668   0.16668   0.28403   0.00000  Uiso   1.00
N26    N     0.16665   0.16666   0.04931   0.00000  Uiso   1.00
O27    O     0.16666   0.10655   0.20625   0.00000  Uiso   1.00
O28    O     0.16667   0.22678   0.12709   0.00000  Uiso   1.00
O29    O     0.16666   0.10654   0.12706   0.00000  Uiso   1.00
O30    O     0.16667   0.22679   0.20628   0.00000  Uiso   1.00
O31    O     0.09161   0.16667   0.19712   0.00000  Uiso   1.00
O32    O     0.24172   0.16666   0.13621   0.00000  Uiso   1.00
O33    O     0.09161   0.16666   0.11793   0.00000  Uiso   1.00
O34    O     0.24172   0.16667   0.21540   0.00000  Uiso   1.00
O35    O     0.11692   0.10380   0.04200   0.00000  Uiso   1.00
C36    C     0.06371   0.10944   0.04338   0.00000  Uiso   1.00
H37    H     0.04058   0.08657   0.02040   0.00000  Uiso   1.00
H38    H     0.04981   0.14105   0.03378   0.00000  Uiso   1.00
H39    H     0.05528   0.10209   0.07924   0.00000  Uiso   1.00
O40    O     0.23098   0.21980   0.29176   0.00000  Uiso   1.00
C41    C     0.28220   0.20710   0.30578   0.00000  Uiso   1.00
H42    H     0.28603   0.17304   0.30326   0.00000  Uiso   1.00
H43    H     0.29702   0.21759   0.00860   0.00000  Uiso   1.00
H44    H     0.30738   0.22170   0.28206   0.00000  Uiso   1.00
O45    O     0.12101   0.10217   0.27985   0.00000  Uiso   1.00
C46    C     0.06698   0.10270   0.26656   0.00000  Uiso   1.00
H47    H     0.05833   0.10153   0.22779   0.00000  Uiso   1.00
H48    H     0.04761   0.12967   0.27961   0.00000  Uiso   1.00
H49    H     0.04962   0.07389   0.27904   0.00000  Uiso   1.00
O50    O     0.22509   0.22401   0.05707   0.00000  Uiso   1.00
C51    C     0.21247   0.26479   0.04310   0.00000  Uiso   1.00
H52    H     0.22315   0.28534   0.07379   0.00000  Uiso   1.00
H53    H     0.17046   0.26836   0.03072   0.00000  Uiso   1.00
H54    H     0.23560   0.27583   0.01583   0.00000  Uiso   1.00
C55    C     0.49954   0.08744   0.16671   0.00000  Uiso   1.00
C56    C     0.49966   0.24588   0.16663   0.00000  Uiso   1.00
C57    C     0.40131   0.16693   0.15457   0.00000  Uiso   1.00
C58    C     0.59868   0.16732   0.17871   0.00000  Uiso   1.00
C59    C     0.34590   0.16674   0.14792   0.00000  Uiso   1.00
C60    C     0.65403   0.16890   0.18510   0.00000  Uiso   1.00
C61    C     0.47988   0.02110   0.12585   0.00000  Uiso   1.00
C62    C     0.51684   0.31215   0.20816   0.00000  Uiso   1.00
C63    C     0.47939   0.31173   0.12596   0.00000  Uiso   1.00
C64    C     0.51663   0.02153   0.20825   0.00000  Uiso   1.00
C65    C     0.49877   0.29051   0.16682   0.00000  Uiso   1.00
C66    C     0.49873   0.04278   0.16692   0.00000  Uiso   1.00
C67    C     0.47205   0.13727   0.02136   0.00000  Uiso   1.00
C68    C     0.53060   0.19421   0.31212   0.00000  Uiso   1.00
C69    C     0.47240   0.13708   0.30505   0.00000  Uiso   1.00
C70    C     0.52841   0.19575   0.02849   0.00000  Uiso   1.00
Cu71   Cu    0.50000   0.16667   0.21355   0.00000  Uiso   1.00
Cu72   Cu    0.50000   0.16666   0.11978   0.00000  Uiso   1.00
H73    H     0.65911   0.16427   0.11227   0.00000  Uiso   1.00
H74    H     0.34078   0.17208   0.22057   0.00000  Uiso   1.00
H75    H     0.46494   0.03703   0.09389   0.00000  Uiso   1.00
H76    H     0.53171   0.29613   0.24016   0.00000  Uiso   1.00
H77    H     0.46354   0.29535   0.09430   0.00000  Uiso   1.00
H78    H     0.53127   0.03789   0.24032   0.00000  Uiso   1.00
N79    N     0.50001   0.16668   0.28403   0.00000  Uiso   1.00
N80    N     0.49999   0.16666   0.04931   0.00000  Uiso   1.00
O81    O     0.50000   0.10655   0.20625   0.00000  Uiso   1.00
O82    O     0.50000   0.22678   0.12709   0.00000  Uiso   1.00
O83    O     0.50000   0.10654   0.12706   0.00000  Uiso   1.00
O84    O     0.50000   0.22679   0.20628   0.00000  Uiso   1.00
O85    O     0.42495   0.16667   0.19712   0.00000  Uiso   1.00
O86    O     0.57505   0.16666   0.13621   0.00000  Uiso   1.00
O87    O     0.42494   0.16666   0.11793   0.00000  Uiso   1.00
O88    O     0.57506   0.16667   0.21540   0.00000  Uiso   1.00
O89    O     0.45025   0.10380   0.04200   0.00000  Uiso   1.00
C90    C     0.39704   0.10944   0.04338   0.00000  Uiso   1.00
H91    H     0.37392   0.08657   0.02040   0.00000  Uiso   1.00
H92    H     0.38315   0.14105   0.03378   0.00000  Uiso   1.00
H93    H     0.38862   0.10209   0.07924   0.00000  Uiso   1.00
O94    O     0.56432   0.21980   0.29176   0.00000  Uiso   1.00
C95    C     0.61553   0.20710   0.30578   0.00000  Uiso   1.00
H96    H     0.61936   0.17304   0.30326   0.00000  Uiso   1.00
H97    H     0.63035   0.21759   0.00860   0.00000  Uiso   1.00
H98    H     0.64072   0.22170   0.28206   0.00000  Uiso   1.00
O99    O     0.45434   0.10217   0.27985   0.00000  Uiso   1.00
C100   C     0.40032   0.10270   0.26656   0.00000  Uiso   1.00
H101   H     0.39167   0.10153   0.22779   0.00000  Uiso   1.00
H102   H     0.38094   0.12967   0.27961   0.00000  Uiso   1.00
H103   H     0.38296   0.07389   0.27904   0.00000  Uiso   1.00
O104   O     0.55842   0.22401   0.05707   0.00000  Uiso   1.00
C105   C     0.54580   0.26479   0.04310   0.00000  Uiso   1.00
H106   H     0.55648   0.28534   0.07379   0.00000  Uiso   1.00
H107   H     0.50379   0.26836   0.03072   0.00000  Uiso   1.00
H108   H     0.56893   0.27583   0.01583   0.00000  Uiso   1.00
C109   C     0.83287   0.08744   0.16671   0.00000  Uiso   1.00
C110   C     0.83299   0.24588   0.16663   0.00000  Uiso   1.00
C111   C     0.73465   0.16693   0.15457   0.00000  Uiso   1.00
C112   C     0.93201   0.16732   0.17871   0.00000  Uiso   1.00
C113   C     0.67923   0.16674   0.14792   0.00000  Uiso   1.00
C114   C     0.98737   0.16890   0.18510   0.00000  Uiso   1.00
C115   C     0.81321   0.02110   0.12585   0.00000  Uiso   1.00
C116   C     0.85018   0.31215   0.20816   0.00000  Uiso   1.00
C117   C     0.81272   0.31173   0.12596   0.00000  Uiso   1.00
C118   C     0.84997   0.02153   0.20825   0.00000  Uiso   1.00
C119   C     0.83210   0.29051   0.16682   0.00000  Uiso   1.00
C120   C     0.83206   0.04278   0.16692   0.00000  Uiso   1.00
C121   C     0.80538   0.13727   0.02136   0.00000  Uiso   1.00
C122   C     0.86394   0.19421   0.31212   0.00000  Uiso   1.00
C123   C     0.80573   0.13708   0.30505   0.00000  Uiso   1.00
C124   C     0.86174   0.19575   0.02849   0.00000  Uiso   1.00
Cu125  Cu    0.83333   0.16667   0.21355   0.00000  Uiso   1.00
Cu126  Cu    0.83333   0.16666   0.11978   0.00000  Uiso   1.00
H127   H     0.99244   0.16427   0.11227   0.00000  Uiso   1.00
H128   H     0.67412   0.17208   0.22057   0.00000  Uiso   1.00
H129   H     0.79828   0.03703   0.09389   0.00000  Uiso   1.00
H130   H     0.86504   0.29613   0.24016   0.00000  Uiso   1.00
H131   H     0.79687   0.29535   0.09430   0.00000  Uiso   1.00
H132   H     0.86460   0.03789   0.24032   0.00000  Uiso   1.00
N133   N     0.83335   0.16668   0.28403   0.00000  Uiso   1.00
N134   N     0.83332   0.16666   0.04931   0.00000  Uiso   1.00
O135   O     0.83333   0.10655   0.20625   0.00000  Uiso   1.00
O136   O     0.83334   0.22678   0.12709   0.00000  Uiso   1.00
O137   O     0.83333   0.10654   0.12706   0.00000  Uiso   1.00
O138   O     0.83334   0.22679   0.20628   0.00000  Uiso   1.00
O139   O     0.75828   0.16667   0.19712   0.00000  Uiso   1.00
O140   O     0.90839   0.16666   0.13621   0.00000  Uiso   1.00
O141   O     0.75828   0.16666   0.11793   0.00000  Uiso   1.00
O142   O     0.90839   0.16667   0.21540   0.00000  Uiso   1.00
O143   O     0.78359   0.10380   0.04200   0.00000  Uiso   1.00
C144   C     0.73037   0.10944   0.04338   0.00000  Uiso   1.00
H145   H     0.70725   0.08657   0.02040   0.00000  Uiso   1.00
H146   H     0.71648   0.14105   0.03378   0.00000  Uiso   1.00
H147   H     0.72195   0.10209   0.07924   0.00000  Uiso   1.00
O148   O     0.89765   0.21980   0.29176   0.00000  Uiso   1.00
C149   C     0.94886   0.20710   0.30578   0.00000  Uiso   1.00
H150   H     0.95270   0.17304   0.30326   0.00000  Uiso   1.00
H151   H     0.96369   0.21759   0.00860   0.00000  Uiso   1.00
H152   H     0.97405   0.22170   0.28206   0.00000  Uiso   1.00
O153   O     0.78768   0.10217   0.27985   0.00000  Uiso   1.00
C154   C     0.73365   0.10270   0.26656   0.00000  Uiso   1.00
H155   H     0.72500   0.10153   0.22779   0.00000  Uiso   1.00
H156   H     0.71428   0.12967   0.27961   0.00000  Uiso   1.00
H157   H     0.71629   0.07389   0.27904   0.00000  Uiso   1.00
O158   O     0.89175   0.22401   0.05707   0.00000  Uiso   1.00
C159   C     0.87914   0.26479   0.04310   0.00000  Uiso   1.00
H160   H     0.88981   0.28534   0.07379   0.00000  Uiso   1.00
H161   H     0.83713   0.26836   0.03072   0.00000  Uiso   1.00
H162   H     0.90226   0.27583   0.01583   0.00000  Uiso   1.00
C163   C     0.16621   0.42077   0.16671   0.00000  Uiso   1.00
C164   C     0.16632   0.57921   0.16663   0.00000  Uiso   1.00
C165   C     0.06798   0.50026   0.15457   0.00000  Uiso   1.00
C166   C     0.26534   0.50065   0.17871   0.00000  Uiso   1.00
C167   C     0.01257   0.50007   0.14792   0.00000  Uiso   1.00
C168   C     0.32070   0.50223   0.18510   0.00000  Uiso   1.00
C169   C     0.14654   0.35443   0.12585   0.00000  Uiso   1.00
C170   C     0.18351   0.64548   0.20816   0.00000  Uiso   1.00
C171   C     0.14606   0.64506   0.12596   0.00000  Uiso   1.00
C172   C     0.18330   0.35486   0.20825   0.00000  Uiso   1.00
C173   C     0.16543   0.62384   0.16682   0.00000  Uiso   1.00
C174   C     0.16540   0.37611   0.16692   0.00000  Uiso   1.00
C175   C     0.13872   0.47061   0.02136   0.00000  Uiso   1.00
C176   C     0.19727   0.52754   0.31212   0.00000  Uiso   1.00
C177   C     0.13906   0.47041   0.30505   0.00000  Uiso   1.00
C178   C     0.19508   0.52908   0.02849   0.00000  Uiso   1.00
Cu179  Cu    0.16667   0.50001   0.21355   0.00000  Uiso   1.00
Cu180  Cu    0.16667   0.49999   0.11978   0.00000  Uiso   1.00
H181   H     0.32578   0.49760   0.11227   0.00000  Uiso   1.00
H182   H     0.00745   0.50541   0.22057   0.00000  Uiso   1.00
H183   H     0.13161   0.37036   0.09389   0.00000  Uiso   1.00
H184   H     0.19837   0.62946   0.24016   0.00000  Uiso   1.00
H185   H     0.13021   0.62868   0.09430   0.00000  Uiso   1.00
H186   H     0.19793   0.37122   0.24032   0.00000  Uiso   1.00
N187   N     0.16668   0.50001   0.28403   0.00000  Uiso   1.00
N188   N     0.16665   0.49999   0.04931   0.00000  Uiso   1.00
O189   O     0.16666   0.43989   0.20625   0.00000  Uiso   1.00
O190   O     0.16667   0.56011   0.12709   0.00000  Uiso   1.00
O191   O     0.16666   0.43988   0.12706   0.00000  Uiso   1.00
O192   O     0.16667   0.56012   0.20628   0.00000  Uiso   1.00
O193   O     0.09161   0.50000   0.19712   0.00000  Uiso   1.00
O194   O     0.24172   0.50000   0.13621   0.00000  Uiso   1.00
O195   O     0.09161   0.49999   0.11793   0.00000  Uiso   1.00
O196   O     0.24172   0.50001   0.21540   0.00000  Uiso   1.00
O197   O     0.11692   0.43713   0.04200   0.00000  Uiso   1.00
C198   C     0.06371   0.44277   0.04338   0.00000  Uiso   1.00
H199   H     0.04058   0.41990   0.02040   0.00000  Uiso   1.00
H200   H     0.04981   0.47439   0.03378   0.00000  Uiso   1.00
H201   H     0.05528   0.43542   0.07924   0.00000  Uiso   1.00
O202   O     0.23098   0.55314   0.29176   0.00000  Uiso   1.00
C203   C     0.28220   0.54043   0.30578   0.00000  Uiso   1.00
H204   H     0.28603   0.50637   0.30326   0.00000  Uiso   1.00
H205   H     0.29702   0.55093   0.00860   0.00000  Uiso   1.00
H206   H     0.30738   0.55503   0.28206   0.00000  Uiso   1.00
O207   O     0.12101   0.43550   0.27985   0.00000  Uiso   1.00
C208   C     0.06698   0.43603   0.26656   0.00000  Uiso   1.00
H209   H     0.05833   0.43487   0.22779   0.00000  Uiso   1.00
H210   H     0.04761   0.46301   0.27961   0.00000  Uiso   1.00
H211   H     0.04962   0.40722   0.27904   0.00000  Uiso   1.00
O212   O     0.22509   0.55734   0.05707   0.00000  Uiso   1.00
C213   C     0.21247   0.59813   0.04310   0.00000  Uiso   1.00
H214   H     0.22315   0.61867   0.07379   0.00000  Uiso   1.00
H215   H     0.17046   0.60170   0.03072   0.00000  Uiso   1.00
H216   H     0.23560   0.60916   0.01583   0.00000  Uiso   1.00
C217   C     0.49954   0.42077   0.16671   0.00000  Uiso   1.00
C218   C     0.49966   0.57921   0.16663   0.00000  Uiso   1.00
C219   C     0.40131   0.50026   0.15457   0.00000  Uiso   1.00
C220   C     0.59868   0.50065   0.17871   0.00000  Uiso   1.00
C221   C     0.34590   0.50007   0.14792   0.00000  Uiso   1.00
C222   C     0.65403   0.50223   0.18510   0.00000  Uiso   1.00
C223   C     0.47988   0.35443   0.12585   0.00000  Uiso   1.00
C224   C     0.51684   0.64548   0.20816   0.00000  Uiso   1.00
C225   C     0.47939   0.64506   0.12596   0.00000  Uiso   1.00
C226   C     0.51663   0.35486   0.20825   0.00000  Uiso   1.00
C227   C     0.49877   0.62384   0.16682   0.00000  Uiso   1.00
C228   C     0.49873   0.37611   0.16692   0.00000  Uiso   1.00
C229   C     0.47205   0.47061   0.02136   0.00000  Uiso   1.00
C230   C     0.53060   0.52754   0.31212   0.00000  Uiso   1.00
C231   C     0.47240   0.47041   0.30505   0.00000  Uiso   1.00
C232   C     0.52841   0.52908   0.02849   0.00000  Uiso   1.00
Cu233  Cu    0.50000   0.50001   0.21355   0.00000  Uiso   1.00
Cu234  Cu    0.50000   0.49999   0.11978   0.00000  Uiso   1.00
H235   H     0.65911   0.49760   0.11227   0.00000  Uiso   1.00
H236   H     0.34078   0.50541   0.22057   0.00000  Uiso   1.00
H237   H     0.46494   0.37036   0.09389   0.00000  Uiso   1.00
H238   H     0.53171   0.62946   0.24016   0.00000  Uiso   1.00
H239   H     0.46354   0.62868   0.09430   0.00000  Uiso   1.00
H240   H     0.53127   0.37122   0.24032   0.00000  Uiso   1.00
N241   N     0.50001   0.50001   0.28403   0.00000  Uiso   1.00
N242   N     0.49999   0.49999   0.04931   0.00000  Uiso   1.00
O243   O     0.50000   0.43989   0.20625   0.00000  Uiso   1.00
O244   O     0.50000   0.56011   0.12709   0.00000  Uiso   1.00
O245   O     0.50000   0.43988   0.12706   0.00000  Uiso   1.00
O246   O     0.50000   0.56012   0.20628   0.00000  Uiso   1.00
O247   O     0.42495   0.50000   0.19712   0.00000  Uiso   1.00
O248   O     0.57505   0.50000   0.13621   0.00000  Uiso   1.00
O249   O     0.42494   0.49999   0.11793   0.00000  Uiso   1.00
O250   O     0.57506   0.50001   0.21540   0.00000  Uiso   1.00
O251   O     0.45025   0.43713   0.04200   0.00000  Uiso   1.00
C252   C     0.39704   0.44277   0.04338   0.00000  Uiso   1.00
H253   H     0.37392   0.41990   0.02040   0.00000  Uiso   1.00
H254   H     0.38315   0.47439   0.03378   0.00000  Uiso   1.00
H255   H     0.38862   0.43542   0.07924   0.00000  Uiso   1.00
O256   O     0.56432   0.55314   0.29176   0.00000  Uiso   1.00
C257   C     0.61553   0.54043   0.30578   0.00000  Uiso   1.00
H258   H     0.61936   0.50637   0.30326   0.00000  Uiso   1.00
H259   H     0.63035   0.55093   0.00860   0.00000  Uiso   1.00
H260   H     0.64072   0.55503   0.28206   0.00000  Uiso   1.00
O261   O     0.45434   0.43550   0.27985   0.00000  Uiso   1.00
C262   C     0.40032   0.43603   0.26656   0.00000  Uiso   1.00
H263   H     0.39167   0.43487   0.22779   0.00000  Uiso   1.00
H264   H     0.38094   0.46301   0.27961   0.00000  Uiso   1.00
H265   H     0.38296   0.40722   0.27904   0.00000  Uiso   1.00
O266   O     0.55842   0.55734   0.05707   0.00000  Uiso   1.00
C267   C     0.54580   0.59813   0.04310   0.00000  Uiso   1.00
H268   H     0.55648   0.61867   0.07379   0.00000  Uiso   1.00
H269   H     0.50379   0.60170   0.03072   0.00000  Uiso   1.00
H270   H     0.56893   0.60916   0.01583   0.00000  Uiso   1.00
C271   C     0.83287   0.42077   0.16671   0.00000  Uiso   1.00
C272   C     0.83299   0.57921   0.16663   0.00000  Uiso   1.00
C273   C     0.73465   0.50026   0.15457   0.00000  Uiso   1.00
C274   C     0.93201   0.50065   0.17871   0.00000  Uiso   1.00
C275   C     0.67923   0.50007   0.14792   0.00000  Uiso   1.00
C276   C     0.98737   0.50223   0.18510   0.00000  Uiso   1.00
C277   C     0.81321   0.35443   0.12585   0.00000  Uiso   1.00
C278   C     0.85018   0.64548   0.20816   0.00000  Uiso   1.00
C279   C     0.81272   0.64506   0.12596   0.00000  Uiso   1.00
C280   C     0.84997   0.35486   0.20825   0.00000  Uiso   1.00
C281   C     0.83210   0.62384   0.16682   0.00000  Uiso   1.00
C282   C     0.83206   0.37611   0.16692   0.00000  Uiso   1.00
C283   C     0.80538   0.47061   0.02136   0.00000  Uiso   1.00
C284   C     0.86394   0.52754   0.31212   0.00000  Uiso   1.00
C285   C     0.80573   0.47041   0.30505   0.00000  Uiso   1.00
C286   C     0.86174   0.52908   0.02849   0.00000  Uiso   1.00
Cu287  Cu    0.83333   0.50001   0.21355   0.00000  Uiso   1.00
Cu288  Cu    0.83333   0.49999   0.11978   0.00000  Uiso   1.00
H289   H     0.99244   0.49760   0.11227   0.00000  Uiso   1.00
H290   H     0.67412   0.50541   0.22057   0.00000  Uiso   1.00
H291   H     0.79828   0.37036   0.09389   0.00000  Uiso   1.00
H292   H     0.86504   0.62946   0.24016   0.00000  Uiso   1.00
H293   H     0.79687   0.62868   0.09430   0.00000  Uiso   1.00
H294   H     0.86460   0.37122   0.24032   0.00000  Uiso   1.00
N295   N     0.83335   0.50001   0.28403   0.00000  Uiso   1.00
N296   N     0.83332   0.49999   0.04931   0.00000  Uiso   1.00
O297   O     0.83333   0.43989   0.20625   0.00000  Uiso   1.00
O298   O     0.83334   0.56011   0.12709   0.00000  Uiso   1.00
O299   O     0.83333   0.43988   0.12706   0.00000  Uiso   1.00
O300   O     0.83334   0.56012   0.20628   0.00000  Uiso   1.00
O301   O     0.75828   0.50000   0.19712   0.00000  Uiso   1.00
O302   O     0.90839   0.50000   0.13621   0.00000  Uiso   1.00
O303   O     0.75828   0.49999   0.11793   0.00000  Uiso   1.00
O304   O     0.90839   0.50001   0.21540   0.00000  Uiso   1.00
O305   O     0.78359   0.43713   0.04200   0.00000  Uiso   1.00
C306   C     0.73037   0.44277   0.04338   0.00000  Uiso   1.00
H307   H     0.70725   0.41990   0.02040   0.00000  Uiso   1.00
H308   H     0.71648   0.47439   0.03378   0.00000  Uiso   1.00
H309   H     0.72195   0.43542   0.07924   0.00000  Uiso   1.00
O310   O     0.89765   0.55314   0.29176   0.00000  Uiso   1.00
C311   C     0.94886   0.54043   0.30578   0.00000  Uiso   1.00
H312   H     0.95270   0.50637   0.30326   0.00000  Uiso   1.00
H313   H     0.96369   0.55093   0.00860   0.00000  Uiso   1.00
H314   H     0.97405   0.55503   0.28206   0.00000  Uiso   1.00
O315   O     0.78768   0.43550   0.27985   0.00000  Uiso   1.00
C316   C     0.73365   0.43603   0.26656   0.00000  Uiso   1.00
H317   H     0.72500   0.43487   0.22779   0.00000  Uiso   1.00
H318   H     0.71428   0.46301   0.27961   0.00000  Uiso   1.00
H319   H     0.71629   0.40722   0.27904   0.00000  Uiso   1.00
O320   O     0.89175   0.55734   0.05707   0.00000  Uiso   1.00
C321   C     0.87914   0.59813   0.04310   0.00000  Uiso   1.00
H322   H     0.88981   0.61867   0.07379   0.00000  Uiso   1.00
H323   H     0.83713   0.60170   0.03072   0.00000  Uiso   1.00
H324   H     0.90226   0.60916   0.01583   0.00000  Uiso   1.00
C325   C     0.16621   0.75411   0.16671   0.00000  Uiso   1.00
C326   C     0.16632   0.91255   0.16663   0.00000  Uiso   1.00
C327   C     0.06798   0.83359   0.15457   0.00000  Uiso   1.00
C328   C     0.26534   0.83399   0.17871   0.00000  Uiso   1.00
C329   C     0.01257   0.83341   0.14792   0.00000  Uiso   1.00
C330   C     0.32070   0.83557   0.18510   0.00000  Uiso   1.00
C331   C     0.14654   0.68776   0.12585   0.00000  Uiso   1.00
C332   C     0.18351   0.97881   0.20816   0.00000  Uiso   1.00
C333   C     0.14606   0.97840   0.12596   0.00000  Uiso   1.00
C334   C     0.18330   0.68819   0.20825   0.00000  Uiso   1.00
C335   C     0.16543   0.95717   0.16682   0.00000  Uiso   1.00
C336   C     0.16540   0.70944   0.16692   0.00000  Uiso   1.00
C337   C     0.13872   0.80394   0.02136   0.00000  Uiso   1.00
C338   C     0.19727   0.86087   0.31212   0.00000  Uiso   1.00
C339   C     0.13906   0.80375   0.30505   0.00000  Uiso   1.00
C340   C     0.19508   0.86242   0.02849   0.00000  Uiso   1.00
Cu341  Cu    0.16667   0.83334   0.21355   0.00000  Uiso   1.00
Cu342  Cu    0.16667   0.83333   0.11978   0.00000  Uiso   1.00
H343   H     0.32578   0.83093   0.11227   0.00000  Uiso   1.00
H344   H     0.00745   0.83875   0.22057   0.00000  Uiso   1.00
H345   H     0.13161   0.70370   0.09389   0.00000  Uiso   1.00
H346   H     0.19837   0.96279   0.24016   0.00000  Uiso   1.00
H347   H     0.13021   0.96201   0.09430   0.00000  Uiso   1.00
H348   H     0.19793   0.70455   0.24032   0.00000  Uiso   1.00
N349   N     0.16668   0.83334   0.28403   0.00000  Uiso   1.00
N350   N     0.16665   0.83332   0.04931   0.00000  Uiso   1.00
O351   O     0.16666   0.77322   0.20625   0.00000  Uiso   1.00
O352   O     0.16667   0.89345   0.12709   0.00000  Uiso   1.00
O353   O     0.16666   0.77321   0.12706   0.00000  Uiso   1.00
O354   O     0.16667   0.89346   0.20628   0.00000  Uiso   1.00
O355   O     0.09161   0.83334   0.19712   0.00000  Uiso   1.00
O356   O     0.24172   0.83333   0.13621   0.00000  Uiso   1.00
O357   O     0.09161   0.83333   0.11793   0.00000  Uiso   1.00
O358   O     0.24172   0.83334   0.21540   0.00000  Uiso   1.00
O359   O     0.11692   0.77047   0.04200   0.00000  Uiso   1.00
C360   C     0.06371   0.77611   0.04338   0.00000  Uiso   1.00
H361   H     0.04058   0.75323   0.02040   0.00000  Uiso   1.00
H362   H     0.04981   0.80772   0.03378   0.00000  Uiso   1.00
H363   H     0.05528   0.76876   0.07924   0.00000  Uiso   1.00
O364   O     0.23098   0.88647   0.29176   0.00000  Uiso   1.00
C365   C     0.28220   0.87377   0.30578   0.00000  Uiso   1.00
H366   H     0.28603   0.83971   0.30326   0.00000  Uiso   1.00
H367   H     0.29702   0.88426   0.00860   0.00000  Uiso   1.00
H368   H     0.30738   0.88837   0.28206   0.00000  Uiso   1.00
O369   O     0.12101   0.76883   0.27985   0.00000  Uiso   1.00
C370   C     0.06698   0.76936   0.26656   0.00000  Uiso   1.00
H371   H     0.05833   0.76820   0.22779   0.00000  Uiso   1.00
H372   H     0.04761   0.79634   0.27961   0.00000  Uiso   1.00
H373   H     0.04962   0.74056   0.27904   0.00000  Uiso   1.00
O374   O     0.22509   0.89068   0.05707   0.00000  Uiso   1.00
C375   C     0.21247   0.93146   0.04310   0.00000  Uiso   1.00
H376   H     0.22315   0.95200   0.07379   0.00000  Uiso   1.00
H377   H     0.17046   0.93503   0.03072   0.00000  Uiso   1.00
H378   H     0.23560   0.94249   0.01583   0.00000  Uiso   1.00
C379   C     0.49954   0.75411   0.16671   0.00000  Uiso   1.00
C380   C     0.49966   0.91255   0.16663   0.00000  Uiso   1.00
C381   C     0.40131   0.83359   0.15457   0.00000  Uiso   1.00
C382   C     0.59868   0.83399   0.17871   0.00000  Uiso   1.00
C383   C     0.34590   0.83341   0.14792   0.00000  Uiso   1.00
C384   C     0.65403   0.83557   0.18510   0.00000  Uiso   1.00
C385   C     0.47988   0.68776   0.12585   0.00000  Uiso   1.00
C386   C     0.51684   0.97881   0.20816   0.00000  Uiso   1.00
C387   C     0.47939   0.97840   0.12596   0.00000  Uiso   1.00
C388   C     0.51663   0.68819   0.20825   0.00000  Uiso   1.00
C389   C     0.49877   0.95717   0.16682   0.00000  Uiso   1.00
C390   C     0.49873   0.70944   0.16692   0.00000  Uiso   1.00
C391   C     0.47205   0.80394   0.02136   0.00000  Uiso   1.00
C392   C     0.53060   0.86087   0.31212   0.00000  Uiso   1.00
C393   C     0.47240   0.80375   0.30505   0.00000  Uiso   1.00
C394   C     0.52841   0.86242   0.02849   0.00000  Uiso   1.00
Cu395  Cu    0.50000   0.83334   0.21355   0.00000  Uiso   1.00
Cu396  Cu    0.50000   0.83333   0.11978   0.00000  Uiso   1.00
H397   H     0.65911   0.83093   0.11227   0.00000  Uiso   1.00
H398   H     0.34078   0.83875   0.22057   0.00000  Uiso   1.00
H399   H     0.46494   0.70370   0.09389   0.00000  Uiso   1.00
H400   H     0.53171   0.96279   0.24016   0.00000  Uiso   1.00
H401   H     0.46354   0.96201   0.09430   0.00000  Uiso   1.00
H402   H     0.53127   0.70455   0.24032   0.00000  Uiso   1.00
N403   N     0.50001   0.83334   0.28403   0.00000  Uiso   1.00
N404   N     0.49999   0.83332   0.04931   0.00000  Uiso   1.00
O405   O     0.50000   0.77322   0.20625   0.00000  Uiso   1.00
O406   O     0.50000   0.89345   0.12709   0.00000  Uiso   1.00
O407   O     0.50000   0.77321   0.12706   0.00000  Uiso   1.00
O408   O     0.50000   0.89346   0.20628   0.00000  Uiso   1.00
O409   O     0.42495   0.83334   0.19712   0.00000  Uiso   1.00
O410   O     0.57505   0.83333   0.13621   0.00000  Uiso   1.00
O411   O     0.42494   0.83333   0.11793   0.00000  Uiso   1.00
O412   O     0.57506   0.83334   0.21540   0.00000  Uiso   1.00
O413   O     0.45025   0.77047   0.04200   0.00000  Uiso   1.00
C414   C     0.39704   0.77611   0.04338   0.00000  Uiso   1.00
H415   H     0.37392   0.75323   0.02040   0.00000  Uiso   1.00
H416   H     0.38315   0.80772   0.03378   0.00000  Uiso   1.00
H417   H     0.38862   0.76876   0.07924   0.00000  Uiso   1.00
O418   O     0.56432   0.88647   0.29176   0.00000  Uiso   1.00
C419   C     0.61553   0.87377   0.30578   0.00000  Uiso   1.00
H420   H     0.61936   0.83971   0.30326   0.00000  Uiso   1.00
H421   H     0.63035   0.88426   0.00860   0.00000  Uiso   1.00
H422   H     0.64072   0.88837   0.28206   0.00000  Uiso   1.00
O423   O     0.45434   0.76883   0.27985   0.00000  Uiso   1.00
C424   C     0.40032   0.76936   0.26656   0.00000  Uiso   1.00
H425   H     0.39167   0.76820   0.22779   0.00000  Uiso   1.00
H426   H     0.38094   0.79634   0.27961   0.00000  Uiso   1.00
H427   H     0.38296   0.74056   0.27904   0.00000  Uiso   1.00
O428   O     0.55842   0.89068   0.05707   0.00000  Uiso   1.00
C429   C     0.54580   0.93146   0.04310   0.00000  Uiso   1.00
H430   H     0.55648   0.95200   0.07379   0.00000  Uiso   1.00
H431   H     0.50379   0.93503   0.03072   0.00000  Uiso   1.00
H432   H     0.56893   0.94249   0.01583   0.00000  Uiso   1.00
C433   C     0.83287   0.75411   0.16671   0.00000  Uiso   1.00
C434   C     0.83299   0.91255   0.16663   0.00000  Uiso   1.00
C435   C     0.73465   0.83359   0.15457   0.00000  Uiso   1.00
C436   C     0.93201   0.83399   0.17871   0.00000  Uiso   1.00
C437   C     0.67923   0.83341   0.14792   0.00000  Uiso   1.00
C438   C     0.98737   0.83557   0.18510   0.00000  Uiso   1.00
C439   C     0.81321   0.68776   0.12585   0.00000  Uiso   1.00
C440   C     0.85018   0.97881   0.20816   0.00000  Uiso   1.00
C441   C     0.81272   0.97840   0.12596   0.00000  Uiso   1.00
C442   C     0.84997   0.68819   0.20825   0.00000  Uiso   1.00
C443   C     0.83210   0.95717   0.16682   0.00000  Uiso   1.00
C444   C     0.83206   0.70944   0.16692   0.00000  Uiso   1.00
C445   C     0.80538   0.80394   0.02136   0.00000  Uiso   1.00
C446   C     0.86394   0.86087   0.31212   0.00000  Uiso   1.00
C447   C     0.80573   0.80375   0.30505   0.00000  Uiso   1.00
C448   C     0.86174   0.86242   0.02849   0.00000  Uiso   1.00
Cu449  Cu    0.83333   0.83334   0.21355   0.00000  Uiso   1.00
Cu450  Cu    0.83333   0.83333   0.11978   0.00000  Uiso   1.00
H451   H     0.99244   0.83093   0.11227   0.00000  Uiso   1.00
H452   H     0.67412   0.83875   0.22057   0.00000  Uiso   1.00
H453   H     0.79828   0.70370   0.09389   0.00000  Uiso   1.00
H454   H     0.86504   0.96279   0.24016   0.00000  Uiso   1.00
H455   H     0.79687   0.96201   0.09430   0.00000  Uiso   1.00
H456   H     0.86460   0.70455   0.24032   0.00000  Uiso   1.00
N457   N     0.83335   0.83334   0.28403   0.00000  Uiso   1.00
N458   N     0.83332   0.83332   0.04931   0.00000  Uiso   1.00
O459   O     0.83333   0.77322   0.20625   0.00000  Uiso   1.00
O460   O     0.83334   0.89345   0.12709   0.00000  Uiso   1.00
O461   O     0.83333   0.77321   0.12706   0.00000  Uiso   1.00
O462   O     0.83334   0.89346   0.20628   0.00000  Uiso   1.00
O463   O     0.75828   0.83334   0.19712   0.00000  Uiso   1.00
O464   O     0.90839   0.83333   0.13621   0.00000  Uiso   1.00
O465   O     0.75828   0.83333   0.11793   0.00000  Uiso   1.00
O466   O     0.90839   0.83334   0.21540   0.00000  Uiso   1.00
O467   O     0.78359   0.77047   0.04200   0.00000  Uiso   1.00
C468   C     0.73037   0.77611   0.04338   0.00000  Uiso   1.00
H469   H     0.70725   0.75323   0.02040   0.00000  Uiso   1.00
H470   H     0.71648   0.80772   0.03378   0.00000  Uiso   1.00
H471   H     0.72195   0.76876   0.07924   0.00000  Uiso   1.00
O472   O     0.89765   0.88647   0.29176   0.00000  Uiso   1.00
C473   C     0.94886   0.87377   0.30578   0.00000  Uiso   1.00
H474   H     0.95270   0.83971   0.30326   0.00000  Uiso   1.00
H475   H     0.96369   0.88426   0.00860   0.00000  Uiso   1.00
H476   H     0.97405   0.88837   0.28206   0.00000  Uiso   1.00
O477   O     0.78768   0.76883   0.27985   0.00000  Uiso   1.00
C478   C     0.73365   0.76936   0.26656   0.00000  Uiso   1.00
H479   H     0.72500   0.76820   0.22779   0.00000  Uiso   1.00
H480   H     0.71428   0.79634   0.27961   0.00000  Uiso   1.00
H481   H     0.71629   0.74056   0.27904   0.00000  Uiso   1.00
O482   O     0.89175   0.89068   0.05707   0.00000  Uiso   1.00
C483   C     0.87914   0.93146   0.04310   0.00000  Uiso   1.00
H484   H     0.88981   0.95200   0.07379   0.00000  Uiso   1.00
H485   H     0.83713   0.93503   0.03072   0.00000  Uiso   1.00
H486   H     0.90226   0.94249   0.01583   0.00000  Uiso   1.00
C487   C     0.16621   0.08744   0.50004   0.00000  Uiso   1.00
C488   C     0.16632   0.24588   0.49996   0.00000  Uiso   1.00
C489   C     0.06798   0.16693   0.48790   0.00000  Uiso   1.00
C490   C     0.26534   0.16732   0.51204   0.00000  Uiso   1.00
C491   C     0.01257   0.16674   0.48125   0.00000  Uiso   1.00
C492   C     0.32070   0.16890   0.51843   0.00000  Uiso   1.00
C493   C     0.14654   0.02110   0.45918   0.00000  Uiso   1.00
C494   C     0.18351   0.31215   0.54149   0.00000  Uiso   1.00
C495   C     0.14606   0.31173   0.45929   0.00000  Uiso   1.00
C496   C     0.18330   0.02153   0.54159   0.00000  Uiso   1.00
C497   C     0.16543   0.29051   0.50015   0.00000  Uiso   1.00
C498   C     0.16540   0.04278   0.50025   0.00000  Uiso   1.00
C499   C     0.13872   0.13727   0.35469   0.00000  Uiso   1.00
C500   C     0.19727   0.19421   0.64546   0.00000  Uiso   1.00
C501   C     0.13906   0.13708   0.63838   0.00000  Uiso   1.00
C502   C     0.19508   0.19575   0.36182   0.00000  Uiso   1.00
Cu503  Cu    0.16667   0.16667   0.54689   0.00000  Uiso   1.00
Cu504  Cu    0.16667   0.16666   0.45311   0.00000  Uiso   1.00
H505   H     0.32578   0.16427   0.44560   0.00000  Uiso   1.00
H506   H     0.00745   0.17208   0.55391   0.00000  Uiso   1.00
H507   H     0.13161   0.03703   0.42722   0.00000  Uiso   1.00
H508   H     0.19837   0.29613   0.57350   0.00000  Uiso   1.00
H509   H     0.13021   0.29535   0.42763   0.00000  Uiso   1.00
H510   H     0.19793   0.03789   0.57365   0.00000  Uiso   1.00
N511   N     0.16668   0.16668   0.61736   0.00000  Uiso   1.00
N512   N     0.16665   0.16666   0.38264   0.00000  Uiso   1.00
O513   O     0.16666   0.10655   0.53958   0.00000  Uiso   1.00
O514   O     0.16667   0.22678   0.46042   0.00000  Uiso   1.00
O515   O     0.16666   0.10654   0.46039   0.00000  Uiso   1.00
O516   O     0.16667   0.22679   0.53961   0.00000  Uiso   1.00
O517   O     0.09161   0.16667   0.53046   0.00000  Uiso   1.00
O518   O     0.24172   0.16666   0.46954   0.00000  Uiso   1.00
O519   O     0.09161   0.16666   0.45127   0.00000  Uiso   1.00
O520   O     0.24172   0.16667   0.54873   0.00000  Uiso   1.00
O521   O     0.11692   0.10380   0.37534   0.00000  Uiso   1.00
C522   C     0.06371   0.10944   0.37671   0.00000  Uiso   1.00
H523   H     0.04058   0.08657   0.35374   0.00000  Uiso   1.00
H524   H     0.04981   0.14105   0.36711   0.00000  Uiso   1.00
H525   H     0.05528   0.10209   0.41257   0.00000  Uiso   1.00
O526   O     0.23098   0.21980   0.62509   0.00000  Uiso   1.00
C527   C     0.28220   0.20710   0.63912   0.00000  Uiso   1.00
H528   H     0.28603   0.17304   0.63659   0.00000  Uiso   1.00
H529   H     0.29702   0.21759   0.34193   0.00000  Uiso   1.00
H530   H     0.30738   0.22170   0.61540   0.00000  Uiso   1.00
O531   O     0.12101   0.10217   0.61318   0.00000  Uiso   1.00
C532   C     0.06698   0.10270   0.59989   0.00000  Uiso   1.00
H533   H     0.05833   0.10153   0.56112   0.00000  Uiso   1.00
H534   H     0.04761   0.12967   0.61294   0.00000  Uiso   1.00
H535   H     0.04962   0.07389   0.61237   0.00000  Uiso   1.00
O536   O     0.22509   0.22401   0.39040   0.00000  Uiso   1.00
C537   C     0.21247   0.26479   0.37643   0.00000  Uiso   1.00
H538   H     0.22315   0.28534   0.40713   0.00000  Uiso   1.00
H539   H     0.17046   0.26836   0.36406   0.00000  Uiso   1.00
H540   H     0.23560   0.27583   0.34916   0.00000  Uiso   1.00
C541   C     0.49954   0.08744   0.50004   0.00000  Uiso   1.00
C542   C     0.49966   0.24588   0.49996   0.00000  Uiso   1.00
C543   C     0.40131   0.16693   0.48790   0.00000  Uiso   1.00
C544   C     0.59868   0.16732   0.51204   0.00000  Uiso   1.00
C545   C     0.34590   0.16674   0.48125   0.00000  Uiso   1.00
C546   C     0.65403   0.16890   0.51843   0.00000  Uiso   1.00
C547   C     0.47988   0.02110   0.45918   0.00000  Uiso   1.00
C548   C     0.51684   0.31215   0.54149   0.00000  Uiso   1.00
C549   C     0.47939   0.31173   0.45929   0.00000  Uiso   1.00
C550   C     0.51663   0.02153   0.54159   0.00000  Uiso   1.00
C551   C     0.49877   0.29051   0.50015   0.00000  Uiso   1.00
C552   C     0.49873   0.04278   0.50025   0.00000  Uiso   1.00
C553   C     0.47205   0.13727   0.35469   0.00000  Uiso   1.00
C554   C     0.53060   0.19421   0.64546   0.00000  Uiso   1.00
C555   C     0.47240   0.13708   0.63838   0.00000  Uiso   1.00
C556   C     0.52841   0.19575   0.36182   0.00000  Uiso   1.00
Cu557  Cu    0.50000   0.16667   0.54689   0.00000  Uiso   1.00
Cu558  Cu    0.50000   0.16666   0.45311   0.00000  Uiso   1.00
H559   H     0.65911   0.16427   0.44560   0.00000  Uiso   1.00
H560   H     0.34078   0.17208   0.55391   0.00000  Uiso   1.00
H561   H     0.46494   0.03703   0.42722   0.00000  Uiso   1.00
H562   H     0.53171   0.29613   0.57350   0.00000  Uiso   1.00
H563   H     0.46354   0.29535   0.42763   0.00000  Uiso   1.00
H564   H     0.53127   0.03789   0.57365   0.00000  Uiso   1.00
N565   N     0.50001   0.16668   0.61736   0.00000  Uiso   1.00
N566   N     0.49999   0.16666   0.38264   0.00000  Uiso   1.00
O567   O     0.50000   0.10655   0.53958   0.00000  Uiso   1.00
O568   O     0.50000   0.22678   0.46042   0.00000  Uiso   1.00
O569   O     0.50000   0.10654   0.46039   0.00000  Uiso   1.00
O570   O     0.50000   0.22679   0.53961   0.00000  Uiso   1.00
O571   O     0.42495   0.16667   0.53046   0.00000  Uiso   1.00
O572   O     0.57505   0.16666   0.46954   0.00000  Uiso   1.00
O573   O     0.42494   0.16666   0.45127   0.00000  Uiso   1.00
O574   O     0.57506   0.16667   0.54873   0.00000  Uiso   1.00
O575   O     0.45025   0.10380   0.37534   0.00000  Uiso   1.00
C576   C     0.39704   0.10944   0.37671   0.00000  Uiso   1.00
H577   H     0.37392   0.08657   0.35374   0.00000  Uiso   1.00
H578   H     0.38315   0.14105   0.36711   0.00000  Uiso   1.00
H579   H     0.38862   0.10209   0.41257   0.00000  Uiso   1.00
O580   O     0.56432   0.21980   0.62509   0.00000  Uiso   1.00
C581   C     0.61553   0.20710   0.63912   0.00000  Uiso   1.00
H582   H     0.61936   0.17304   0.63659   0.00000  Uiso   1.00
H583   H     0.63035   0.21759   0.34193   0.00000  Uiso   1.00
H584   H     0.64072   0.22170   0.61540   0.00000  Uiso   1.00
O585   O     0.45434   0.10217   0.61318   0.00000  Uiso   1.00
C586   C     0.40032   0.10270   0.59989   0.00000  Uiso   1.00
H587   H     0.39167   0.10153   0.56112   0.00000  Uiso   1.00
H588   H     0.38094   0.12967   0.61294   0.00000  Uiso   1.00
H589   H     0.38296   0.07389   0.61237   0.00000  Uiso   1.00
O590   O     0.55842   0.22401   0.39040   0.00000  Uiso   1.00
C591   C     0.54580   0.26479   0.37643   0.00000  Uiso   1.00
H592   H     0.55648   0.28534   0.40713   0.00000  Uiso   1.00
H593   H     0.50379   0.26836   0.36406   0.00000  Uiso   1.00
H594   H     0.56893   0.27583   0.34916   0.00000  Uiso   1.00
C595   C     0.83287   0.08744   0.50004   0.00000  Uiso   1.00
C596   C     0.83299   0.24588   0.49996   0.00000  Uiso   1.00
C597   C     0.73465   0.16693   0.48790   0.00000  Uiso   1.00
C598   C     0.93201   0.16732   0.51204   0.00000  Uiso   1.00
C599   C     0.67923   0.16674   0.48125   0.00000  Uiso   1.00
C600   C     0.98737   0.16890   0.51843   0.00000  Uiso   1.00
C601   C     0.81321   0.02110   0.45918   0.00000  Uiso   1.00
C602   C     0.85018   0.31215   0.54149   0.00000  Uiso   1.00
C603   C     0.81272   0.31173   0.45929   0.00000  Uiso   1.00
C604   C     0.84997   0.02153   0.54159   0.00000  Uiso   1.00
C605   C     0.83210   0.29051   0.50015   0.00000  Uiso   1.00
C606   C     0.83206   0.04278   0.50025   0.00000  Uiso   1.00
C607   C     0.80538   0.13727   0.35469   0.00000  Uiso   1.00
C608   C     0.86394   0.19421   0.64546   0.00000  Uiso   1.00
C609   C     0.80573   0.13708   0.63838   0.00000  Uiso   1.00
C610   C     0.86174   0.19575   0.36182   0.00000  Uiso   1.00
Cu611  Cu    0.83333   0.16667   0.54689   0.00000  Uiso   1.00
Cu612  Cu    0.83333   0.16666   0.45311   0.00000  Uiso   1.00
H613   H     0.99244   0.16427   0.44560   0.00000  Uiso   1.00
H614   H     0.67412   0.17208   0.55391   0.00000  Uiso   1.00
H615   H     0.79828   0.03703   0.42722   0.00000  Uiso   1.00
H616   H     0.86504   0.29613   0.57350   0.00000  Uiso   1.00
H617   H     0.79687   0.29535   0.42763   0.00000  Uiso   1.00
H618   H     0.86460   0.03789   0.57365   0.00000  Uiso   1.00
N619   N     0.83335   0.16668   0.61736   0.00000  Uiso   1.00
N620   N     0.83332   0.16666   0.38264   0.00000  Uiso   1.00
O621   O     0.83333   0.10655   0.53958   0.00000  Uiso   1.00
O622   O     0.83334   0.22678   0.46042   0.00000  Uiso   1.00
O623   O     0.83333   0.10654   0.46039   0.00000  Uiso   1.00
O624   O     0.83334   0.22679   0.53961   0.00000  Uiso   1.00
O625   O     0.75828   0.16667   0.53046   0.00000  Uiso   1.00
O626   O     0.90839   0.16666   0.46954   0.00000  Uiso   1.00
O627   O     0.75828   0.16666   0.45127   0.00000  Uiso   1.00
O628   O     0.90839   0.16667   0.54873   0.00000  Uiso   1.00
O629   O     0.78359   0.10380   0.37534   0.00000  Uiso   1.00
C630   C     0.73037   0.10944   0.37671   0.00000  Uiso   1.00
H631   H     0.70725   0.08657   0.35374   0.00000  Uiso   1.00
H632   H     0.71648   0.14105   0.36711   0.00000  Uiso   1.00
H633   H     0.72195   0.10209   0.41257   0.00000  Uiso   1.00
O634   O     0.89765   0.21980   0.62509   0.00000  Uiso   1.00
C635   C     0.94886   0.20710   0.63912   0.00000  Uiso   1.00
H636   H     0.95270   0.17304   0.63659   0.00000  Uiso   1.00
H637   H     0.96369   0.21759   0.34193   0.00000  Uiso   1.00
H638   H     0.97405   0.22170   0.61540   0.00000  Uiso   1.00
O639   O     0.78768   0.10217   0.61318   0.00000  Uiso   1.00
C640   C     0.73365   0.10270   0.59989   0.00000  Uiso   1.00
H641   H     0.72500   0.10153   0.56112   0.00000  Uiso   1.00
H642   H     0.71428   0.12967   0.61294   0.00000  Uiso   1.00
H643   H     0.71629   0.07389   0.61237   0.00000  Uiso   1.00
O644   O     0.89175   0.22401   0.39040   0.00000  Uiso   1.00
C645   C     0.87914   0.26479   0.37643   0.00000  Uiso   1.00
H646   H     0.88981   0.28534   0.40713   0.00000  Uiso   1.00
H647   H     0.83713   0.26836   0.36406   0.00000  Uiso   1.00
H648   H     0.90226   0.27583   0.34916   0.00000  Uiso   1.00
C649   C     0.16621   0.42077   0.50004   0.00000  Uiso   1.00
C650   C     0.16632   0.57921   0.49996   0.00000  Uiso   1.00
C651   C     0.06798   0.50026   0.48790   0.00000  Uiso   1.00
C652   C     0.26534   0.50065   0.51204   0.00000  Uiso   1.00
C653   C     0.01257   0.50007   0.48125   0.00000  Uiso   1.00
C654   C     0.32070   0.50223   0.51843   0.00000  Uiso   1.00
C655   C     0.14654   0.35443   0.45918   0.00000  Uiso   1.00
C656   C     0.18351   0.64548   0.54149   0.00000  Uiso   1.00
C657   C     0.14606   0.64506   0.45929   0.00000  Uiso   1.00
C658   C     0.18330   0.35486   0.54159   0.00000  Uiso   1.00
C659   C     0.16543   0.62384   0.50015   0.00000  Uiso   1.00
C660   C     0.16540   0.37611   0.50025   0.00000  Uiso   1.00
C661   C     0.13872   0.47061   0.35469   0.00000  Uiso   1.00
C662   C     0.19727   0.52754   0.64546   0.00000  Uiso   1.00
C663   C     0.13906   0.47041   0.63838   0.00000  Uiso   1.00
C664   C     0.19508   0.52908   0.36182   0.00000  Uiso   1.00
Cu665  Cu    0.16667   0.50001   0.54689   0.00000  Uiso   1.00
Cu666  Cu    0.16667   0.49999   0.45311   0.00000  Uiso   1.00
H667   H     0.32578   0.49760   0.44560   0.00000  Uiso   1.00
H668   H     0.00745   0.50541   0.55391   0.00000  Uiso   1.00
H669   H     0.13161   0.37036   0.42722   0.00000  Uiso   1.00
H670   H     0.19837   0.62946   0.57350   0.00000  Uiso   1.00
H671   H     0.13021   0.62868   0.42763   0.00000  Uiso   1.00
H672   H     0.19793   0.37122   0.57365   0.00000  Uiso   1.00
N673   N     0.16668   0.50001   0.61736   0.00000  Uiso   1.00
N674   N     0.16665   0.49999   0.38264   0.00000  Uiso   1.00
O675   O     0.16666   0.43989   0.53958   0.00000  Uiso   1.00
O676   O     0.16667   0.56011   0.46042   0.00000  Uiso   1.00
O677   O     0.16666   0.43988   0.46039   0.00000  Uiso   1.00
O678   O     0.16667   0.56012   0.53961   0.00000  Uiso   1.00
O679   O     0.09161   0.50000   0.53046   0.00000  Uiso   1.00
O680   O     0.24172   0.50000   0.46954   0.00000  Uiso   1.00
O681   O     0.09161   0.49999   0.45127   0.00000  Uiso   1.00
O682   O     0.24172   0.50001   0.54873   0.00000  Uiso   1.00
O683   O     0.11692   0.43713   0.37534   0.00000  Uiso   1.00
C684   C     0.06371   0.44277   0.37671   0.00000  Uiso   1.00
H685   H     0.04058   0.41990   0.35374   0.00000  Uiso   1.00
H686   H     0.04981   0.47439   0.36711   0.00000  Uiso   1.00
H687   H     0.05528   0.43542   0.41257   0.00000  Uiso   1.00
O688   O     0.23098   0.55314   0.62509   0.00000  Uiso   1.00
C689   C     0.28220   0.54043   0.63912   0.00000  Uiso   1.00
H690   H     0.28603   0.50637   0.63659   0.00000  Uiso   1.00
H691   H     0.29702   0.55093   0.34193   0.00000  Uiso   1.00
H692   H     0.30738   0.55503   0.61540   0.00000  Uiso   1.00
O693   O     0.12101   0.43550   0.61318   0.00000  Uiso   1.00
C694   C     0.06698   0.43603   0.59989   0.00000  Uiso   1.00
H695   H     0.05833   0.43487   0.56112   0.00000  Uiso   1.00
H696   H     0.04761   0.46301   0.61294   0.00000  Uiso   1.00
H697   H     0.04962   0.40722   0.61237   0.00000  Uiso   1.00
O698   O     0.22509   0.55734   0.39040   0.00000  Uiso   1.00
C699   C     0.21247   0.59813   0.37643   0.00000  Uiso   1.00
H700   H     0.22315   0.61867   0.40713   0.00000  Uiso   1.00
H701   H     0.17046   0.60170   0.36406   0.00000  Uiso   1.00
H702   H     0.23560   0.60916   0.34916   0.00000  Uiso   1.00
C703   C     0.49954   0.42077   0.50004   0.00000  Uiso   1.00
C704   C     0.49966   0.57921   0.49996   0.00000  Uiso   1.00
C705   C     0.40131   0.50026   0.48790   0.00000  Uiso   1.00
C706   C     0.59868   0.50065   0.51204   0.00000  Uiso   1.00
C707   C     0.34590   0.50007   0.48125   0.00000  Uiso   1.00
C708   C     0.65403   0.50223   0.51843   0.00000  Uiso   1.00
C709   C     0.47988   0.35443   0.45918   0.00000  Uiso   1.00
C710   C     0.51684   0.64548   0.54149   0.00000  Uiso   1.00
C711   C     0.47939   0.64506   0.45929   0.00000  Uiso   1.00
C712   C     0.51663   0.35486   0.54159   0.00000  Uiso   1.00
C713   C     0.49877   0.62384   0.50015   0.00000  Uiso   1.00
C714   C     0.49873   0.37611   0.50025   0.00000  Uiso   1.00
C715   C     0.47205   0.47061   0.35469   0.00000  Uiso   1.00
C716   C     0.53060   0.52754   0.64546   0.00000  Uiso   1.00
C717   C     0.47240   0.47041   0.63838   0.00000  Uiso   1.00
C718   C     0.52841   0.52908   0.36182   0.00000  Uiso   1.00
Cu719  Cu    0.50000   0.50001   0.54689   0.00000  Uiso   1.00
Cu720  Cu    0.50000   0.49999   0.45311   0.00000  Uiso   1.00
H721   H     0.65911   0.49760   0.44560   0.00000  Uiso   1.00
H722   H     0.34078   0.50541   0.55391   0.00000  Uiso   1.00
H723   H     0.46494   0.37036   0.42722   0.00000  Uiso   1.00
H724   H     0.53171   0.62946   0.57350   0.00000  Uiso   1.00
H725   H     0.46354   0.62868   0.42763   0.00000  Uiso   1.00
H726   H     0.53127   0.37122   0.57365   0.00000  Uiso   1.00
N727   N     0.50001   0.50001   0.61736   0.00000  Uiso   1.00
N728   N     0.49999   0.49999   0.38264   0.00000  Uiso   1.00
O729   O     0.50000   0.43989   0.53958   0.00000  Uiso   1.00
O730   O     0.50000   0.56011   0.46042   0.00000  Uiso   1.00
O731   O     0.50000   0.43988   0.46039   0.00000  Uiso   1.00
O732   O     0.50000   0.56012   0.53961   0.00000  Uiso   1.00
O733   O     0.42495   0.50000   0.53046   0.00000  Uiso   1.00
O734   O     0.57505   0.50000   0.46954   0.00000  Uiso   1.00
O735   O     0.42494   0.49999   0.45127   0.00000  Uiso   1.00
O736   O     0.57506   0.50001   0.54873   0.00000  Uiso   1.00
O737   O     0.45025   0.43713   0.37534   0.00000  Uiso   1.00
C738   C     0.39704   0.44277   0.37671   0.00000  Uiso   1.00
H739   H     0.37392   0.41990   0.35374   0.00000  Uiso   1.00
H740   H     0.38315   0.47439   0.36711   0.00000  Uiso   1.00
H741   H     0.38862   0.43542   0.41257   0.00000  Uiso   1.00
O742   O     0.56432   0.55314   0.62509   0.00000  Uiso   1.00
C743   C     0.61553   0.54043   0.63912   0.00000  Uiso   1.00
H744   H     0.61936   0.50637   0.63659   0.00000  Uiso   1.00
H745   H     0.63035   0.55093   0.34193   0.00000  Uiso   1.00
H746   H     0.64072   0.55503   0.61540   0.00000  Uiso   1.00
O747   O     0.45434   0.43550   0.61318   0.00000  Uiso   1.00
C748   C     0.40032   0.43603   0.59989   0.00000  Uiso   1.00
H749   H     0.39167   0.43487   0.56112   0.00000  Uiso   1.00
H750   H     0.38094   0.46301   0.61294   0.00000  Uiso   1.00
H751   H     0.38296   0.40722   0.61237   0.00000  Uiso   1.00
O752   O     0.55842   0.55734   0.39040   0.00000  Uiso   1.00
C753   C     0.54580   0.59813   0.37643   0.00000  Uiso   1.00
H754   H     0.55648   0.61867   0.40713   0.00000  Uiso   1.00
H755   H     0.50379   0.60170   0.36406   0.00000  Uiso   1.00
H756   H     0.56893   0.60916   0.34916   0.00000  Uiso   1.00
C757   C     0.83287   0.42077   0.50004   0.00000  Uiso   1.00
C758   C     0.83299   0.57921   0.49996   0.00000  Uiso   1.00
C759   C     0.73465   0.50026   0.48790   0.00000  Uiso   1.00
C760   C     0.93201   0.50065   0.51204   0.00000  Uiso   1.00
C761   C     0.67923   0.50007   0.48125   0.00000  Uiso   1.00
C762   C     0.98737   0.50223   0.51843   0.00000  Uiso   1.00
C763   C     0.81321   0.35443   0.45918   0.00000  Uiso   1.00
C764   C     0.85018   0.64548   0.54149   0.00000  Uiso   1.00
C765   C     0.81272   0.64506   0.45929   0.00000  Uiso   1.00
C766   C     0.84997   0.35486   0.54159   0.00000  Uiso   1.00
C767   C     0.83210   0.62384   0.50015   0.00000  Uiso   1.00
C768   C     0.83206   0.37611   0.50025   0.00000  Uiso   1.00
C769   C     0.80538   0.47061   0.35469   0.00000  Uiso   1.00
C770   C     0.86394   0.52754   0.64546   0.00000  Uiso   1.00
C771   C     0.80573   0.47041   0.63838   0.00000  Uiso   1.00
C772   C     0.86174   0.52908   0.36182   0.00000  Uiso   1.00
Cu773  Cu    0.83333   0.50001   0.54689   0.00000  Uiso   1.00
Cu774  Cu    0.83333   0.49999   0.45311   0.00000  Uiso   1.00
H775   H     0.99244   0.49760   0.44560   0.00000  Uiso   1.00
H776   H     0.67412   0.50541   0.55391   0.00000  Uiso   1.00
H777   H     0.79828   0.37036   0.42722   0.00000  Uiso   1.00
H778   H     0.86504   0.62946   0.57350   0.00000  Uiso   1.00
H779   H     0.79687   0.62868   0.42763   0.00000  Uiso   1.00
H780   H     0.86460   0.37122   0.57365   0.00000  Uiso   1.00
N781   N     0.83335   0.50001   0.61736   0.00000  Uiso   1.00
N782   N     0.83332   0.49999   0.38264   0.00000  Uiso   1.00
O783   O     0.83333   0.43989   0.53958   0.00000  Uiso   1.00
O784   O     0.83334   0.56011   0.46042   0.00000  Uiso   1.00
O785   O     0.83333   0.43988   0.46039   0.00000  Uiso   1.00
O786   O     0.83334   0.56012   0.53961   0.00000  Uiso   1.00
O787   O     0.75828   0.50000   0.53046   0.00000  Uiso   1.00
O788   O     0.90839   0.50000   0.46954   0.00000  Uiso   1.00
O789   O     0.75828   0.49999   0.45127   0.00000  Uiso   1.00
O790   O     0.90839   0.50001   0.54873   0.00000  Uiso   1.00
O791   O     0.78359   0.43713   0.37534   0.00000  Uiso   1.00
C792   C     0.73037   0.44277   0.37671   0.00000  Uiso   1.00
H793   H     0.70725   0.41990   0.35374   0.00000  Uiso   1.00
H794   H     0.71648   0.47439   0.36711   0.00000  Uiso   1.00
H795   H     0.72195   0.43542   0.41257   0.00000  Uiso   1.00
O796   O     0.89765   0.55314   0.62509   0.00000  Uiso   1.00
C797   C     0.94886   0.54043   0.63912   0.00000  Uiso   1.00
H798   H     0.95270   0.50637   0.63659   0.00000  Uiso   1.00
H799   H     0.96369   0.55093   0.34193   0.00000  Uiso   1.00
H800   H     0.97405   0.55503   0.61540   0.00000  Uiso   1.00
O801   O     0.78768   0.43550   0.61318   0.00000  Uiso   1.00
C802   C     0.73365   0.43603   0.59989   0.00000  Uiso   1.00
H803   H     0.72500   0.43487   0.56112   0.00000  Uiso   1.00
H804   H     0.71428   0.46301   0.61294   0.00000  Uiso   1.00
H805   H     0.71629   0.40722   0.61237   0.00000  Uiso   1.00
O806   O     0.89175   0.55734   0.39040   0.00000  Uiso   1.00
C807   C     0.87914   0.59813   0.37643   0.00000  Uiso   1.00
H808   H     0.88981   0.61867   0.40713   0.00000  Uiso   1.00
H809   H     0.83713   0.60170   0.36406   0.00000  Uiso   1.00
H810   H     0.90226   0.60916   0.34916   0.00000  Uiso   1.00
C811   C     0.16621   0.75411   0.50004   0.00000  Uiso   1.00
C812   C     0.16632   0.91255   0.49996   0.00000  Uiso   1.00
C813   C     0.06798   0.83359   0.48790   0.00000  Uiso   1.00
C814   C     0.26534   0.83399   0.51204   0.00000  Uiso   1.00
C815   C     0.01257   0.83341   0.48125   0.00000  Uiso   1.00
C816   C     0.32070   0.83557   0.51843   0.00000  Uiso   1.00
C817   C     0.14654   0.68776   0.45918   0.00000  Uiso   1.00
C818   C     0.18351   0.97881   0.54149   0.00000  Uiso   1.00
C819   C     0.14606   0.97840   0.45929   0.00000  Uiso   1.00
C820   C     0.18330   0.68819   0.54159   0.00000  Uiso   1.00
C821   C     0.16543   0.95717   0.50015   0.00000  Uiso   1.00
C822   C     0.16540   0.70944   0.50025   0.00000  Uiso   1.00
C823   C     0.13872   0.80394   0.35469   0.00000  Uiso   1.00
C824   C     0.19727   0.86087   0.64546   0.00000  Uiso   1.00
C825   C     0.13906   0.80375   0.63838   0.00000  Uiso   1.00
C826   C     0.19508   0.86242   0.36182   0.00000  Uiso   1.00
Cu827  Cu    0.16667   0.83334   0.54689   0.00000  Uiso   1.00
Cu828  Cu    0.16667   0.83333   0.45311   0.00000  Uiso   1.00
H829   H     0.32578   0.83093   0.44560   0.00000  Uiso   1.00
H830   H     0.00745   0.83875   0.55391   0.00000  Uiso   1.00
H831   H     0.13161   0.70370   0.42722   0.00000  Uiso   1.00
H832   H     0.19837   0.96279   0.57350   0.00000  Uiso   1.00
H833   H     0.13021   0.96201   0.42763   0.00000  Uiso   1.00
H834   H     0.19793   0.70455   0.57365   0.00000  Uiso   1.00
N835   N     0.16668   0.83334   0.61736   0.00000  Uiso   1.00
N836   N     0.16665   0.83332   0.38264   0.00000  Uiso   1.00
O837   O     0.16666   0.77322   0.53958   0.00000  Uiso   1.00
O838   O     0.16667   0.89345   0.46042   0.00000  Uiso   1.00
O839   O     0.16666   0.77321   0.46039   0.00000  Uiso   1.00
O840   O     0.16667   0.89346   0.53961   0.00000  Uiso   1.00
O841   O     0.09161   0.83334   0.53046   0.00000  Uiso   1.00
O842   O     0.24172   0.83333   0.46954   0.00000  Uiso   1.00
O843   O     0.09161   0.83333   0.45127   0.00000  Uiso   1.00
O844   O     0.24172   0.83334   0.54873   0.00000  Uiso   1.00
O845   O     0.11692   0.77047   0.37534   0.00000  Uiso   1.00
C846   C     0.06371   0.77611   0.37671   0.00000  Uiso   1.00
H847   H     0.04058   0.75323   0.35374   0.00000  Uiso   1.00
H848   H     0.04981   0.80772   0.36711   0.00000  Uiso   1.00
H849   H     0.05528   0.76876   0.41257   0.00000  Uiso   1.00
O850   O     0.23098   0.88647   0.62509   0.00000  Uiso   1.00
C851   C     0.28220   0.87377   0.63912   0.00000  Uiso   1.00
H852   H     0.28603   0.83971   0.63659   0.00000  Uiso   1.00
H853   H     0.29702   0.88426   0.34193   0.00000  Uiso   1.00
H854   H     0.30738   0.88837   0.61540   0.00000  Uiso   1.00
O855   O     0.12101   0.76883   0.61318   0.00000  Uiso   1.00
C856   C     0.06698   0.76936   0.59989   0.00000  Uiso   1.00
H857   H     0.05833   0.76820   0.56112   0.00000  Uiso   1.00
H858   H     0.04761   0.79634   0.61294   0.00000  Uiso   1.00
H859   H     0.04962   0.74056   0.61237   0.00000  Uiso   1.00
O860   O     0.22509   0.89068   0.39040   0.00000  Uiso   1.00
C861   C     0.21247   0.93146   0.37643   0.00000  Uiso   1.00
H862   H     0.22315   0.95200   0.40713   0.00000  Uiso   1.00
H863   H     0.17046   0.93503   0.36406   0.00000  Uiso   1.00
H864   H     0.23560   0.94249   0.34916   0.00000  Uiso   1.00
C865   C     0.49954   0.75411   0.50004   0.00000  Uiso   1.00
C866   C     0.49966   0.91255   0.49996   0.00000  Uiso   1.00
C867   C     0.40131   0.83359   0.48790   0.00000  Uiso   1.00
C868   C     0.59868   0.83399   0.51204   0.00000  Uiso   1.00
C869   C     0.34590   0.83341   0.48125   0.00000  Uiso   1.00
C870   C     0.65403   0.83557   0.51843   0.00000  Uiso   1.00
C871   C     0.47988   0.68776   0.45918   0.00000  Uiso   1.00
C872   C     0.51684   0.97881   0.54149   0.00000  Uiso   1.00
C873   C     0.47939   0.97840   0.45929   0.00000  Uiso   1.00
C874   C     0.51663   0.68819   0.54159   0.00000  Uiso   1.00
C875   C     0.49877   0.95717   0.50015   0.00000  Uiso   1.00
C876   C     0.49873   0.70944   0.50025   0.00000  Uiso   1.00
C877   C     0.47205   0.80394   0.35469   0.00000  Uiso   1.00
C878   C     0.53060   0.86087   0.64546   0.00000  Uiso   1.00
C879   C     0.47240   0.80375   0.63838   0.00000  Uiso   1.00
C880   C     0.52841   0.86242   0.36182   0.00000  Uiso   1.00
Cu881  Cu    0.50000   0.83334   0.54689   0.00000  Uiso   1.00
Cu882  Cu    0.50000   0.83333   0.45311   0.00000  Uiso   1.00
H883   H     0.65911   0.83093   0.44560   0.00000  Uiso   1.00
H884   H     0.34078   0.83875   0.55391   0.00000  Uiso   1.00
H885   H     0.46494   0.70370   0.42722   0.00000  Uiso   1.00
H886   H     0.53171   0.96279   0.57350   0.00000  Uiso   1.00
H887   H     0.46354   0.96201   0.42763   0.00000  Uiso   1.00
H888   H     0.53127   0.70455   0.57365   0.00000  Uiso   1.00
N889   N     0.50001   0.83334   0.61736   0.00000  Uiso   1.00
N890   N     0.49999   0.83332   0.38264   0.00000  Uiso   1.00
O891   O     0.50000   0.77322   0.53958   0.00000  Uiso   1.00
O892   O     0.50000   0.89345   0.46042   0.00000  Uiso   1.00
O893   O     0.50000   0.77321   0.46039   0.00000  Uiso   1.00
O894   O     0.50000   0.89346   0.53961   0.00000  Uiso   1.00
O895   O     0.42495   0.83334   0.53046   0.00000  Uiso   1.00
O896   O     0.57505   0.83333   0.46954   0.00000  Uiso   1.00
O897   O     0.42494   0.83333   0.45127   0.00000  Uiso   1.00
O898   O     0.57506   0.83334   0.54873   0.00000  Uiso   1.00
O899   O     0.45025   0.77047   0.37534   0.00000  Uiso   1.00
C900   C     0.39704   0.77611   0.37671   0.00000  Uiso   1.00
H901   H     0.37392   0.75323   0.35374   0.00000  Uiso   1.00
H902   H     0.38315   0.80772   0.36711   0.00000  Uiso   1.00
H903   H     0.38862   0.76876   0.41257   0.00000  Uiso   1.00
O904   O     0.56432   0.88647   0.62509   0.00000  Uiso   1.00
C905   C     0.61553   0.87377   0.63912   0.00000  Uiso   1.00
H906   H     0.61936   0.83971   0.63659   0.00000  Uiso   1.00
H907   H     0.63035   0.88426   0.34193   0.00000  Uiso   1.00
H908   H     0.64072   0.88837   0.61540   0.00000  Uiso   1.00
O909   O     0.45434   0.76883   0.61318   0.00000  Uiso   1.00
C910   C     0.40032   0.76936   0.59989   0.00000  Uiso   1.00
H911   H     0.39167   0.76820   0.56112   0.00000  Uiso   1.00
H912   H     0.38094   0.79634   0.61294   0.00000  Uiso   1.00
H913   H     0.38296   0.74056   0.61237   0.00000  Uiso   1.00
O914   O     0.55842   0.89068   0.39040   0.00000  Uiso   1.00
C915   C     0.54580   0.93146   0.37643   0.00000  Uiso   1.00
H916   H     0.55648   0.95200   0.40713   0.00000  Uiso   1.00
H917   H     0.50379   0.93503   0.36406   0.00000  Uiso   1.00
H918   H     0.56893   0.94249   0.34916   0.00000  Uiso   1.00
C919   C     0.83287   0.75411   0.50004   0.00000  Uiso   1.00
C920   C     0.83299   0.91255   0.49996   0.00000  Uiso   1.00
C921   C     0.73465   0.83359   0.48790   0.00000  Uiso   1.00
C922   C     0.93201   0.83399   0.51204   0.00000  Uiso   1.00
C923   C     0.67923   0.83341   0.48125   0.00000  Uiso   1.00
C924   C     0.98737   0.83557   0.51843   0.00000  Uiso   1.00
C925   C     0.81321   0.68776   0.45918   0.00000  Uiso   1.00
C926   C     0.85018   0.97881   0.54149   0.00000  Uiso   1.00
C927   C     0.81272   0.97840   0.45929   0.00000  Uiso   1.00
C928   C     0.84997   0.68819   0.54159   0.00000  Uiso   1.00
C929   C     0.83210   0.95717   0.50015   0.00000  Uiso   1.00
C930   C     0.83206   0.70944   0.50025   0.00000  Uiso   1.00
C931   C     0.80538   0.80394   0.35469   0.00000  Uiso   1.00
C932   C     0.86394   0.86087   0.64546   0.00000  Uiso   1.00
C933   C     0.80573   0.80375   0.63838   0.00000  Uiso   1.00
C934   C     0.86174   0.86242   0.36182   0.00000  Uiso   1.00
Cu935  Cu    0.83333   0.83334   0.54689   0.00000  Uiso   1.00
Cu936  Cu    0.83333   0.83333   0.45311   0.00000  Uiso   1.00
H937   H     0.99244   0.83093   0.44560   0.00000  Uiso   1.00
H938   H     0.67412   0.83875   0.55391   0.00000  Uiso   1.00
H939   H     0.79828   0.70370   0.42722   0.00000  Uiso   1.00
H940   H     0.86504   0.96279   0.57350   0.00000  Uiso   1.00
H941   H     0.79687   0.96201   0.42763   0.00000  Uiso   1.00
H942   H     0.86460   0.70455   0.57365   0.00000  Uiso   1.00
N943   N     0.83335   0.83334   0.61736   0.00000  Uiso   1.00
N944   N     0.83332   0.83332   0.38264   0.00000  Uiso   1.00
O945   O     0.83333   0.77322   0.53958   0.00000  Uiso   1.00
O946   O     0.83334   0.89345   0.46042   0.00000  Uiso   1.00
O947   O     0.83333   0.77321   0.46039   0.00000  Uiso   1.00
O948   O     0.83334   0.89346   0.53961   0.00000  Uiso   1.00
O949   O     0.75828   0.83334   0.53046   0.00000  Uiso   1.00
O950   O     0.90839   0.83333   0.46954   0.00000  Uiso   1.00
O951   O     0.75828   0.83333   0.45127   0.00000  Uiso   1.00
O952   O     0.90839   0.83334   0.54873   0.00000  Uiso   1.00
O953   O     0.78359   0.77047   0.37534   0.00000  Uiso   1.00
C954   C     0.73037   0.77611   0.37671   0.00000  Uiso   1.00
H955   H     0.70725   0.75323   0.35374   0.00000  Uiso   1.00
H956   H     0.71648   0.80772   0.36711   0.00000  Uiso   1.00
H957   H     0.72195   0.76876   0.41257   0.00000  Uiso   1.00
O958   O     0.89765   0.88647   0.62509   0.00000  Uiso   1.00
C959   C     0.94886   0.87377   0.63912   0.00000  Uiso   1.00
H960   H     0.95270   0.83971   0.63659   0.00000  Uiso   1.00
H961   H     0.96369   0.88426   0.34193   0.00000  Uiso   1.00
H962   H     0.97405   0.88837   0.61540   0.00000  Uiso   1.00
O963   O     0.78768   0.76883   0.61318   0.00000  Uiso   1.00
C964   C     0.73365   0.76936   0.59989   0.00000  Uiso   1.00
H965   H     0.72500   0.76820   0.56112   0.00000  Uiso   1.00
H966   H     0.71428   0.79634   0.61294   0.00000  Uiso   1.00
H967   H     0.71629   0.74056   0.61237   0.00000  Uiso   1.00
O968   O     0.89175   0.89068   0.39040   0.00000  Uiso   1.00
C969   C     0.87914   0.93146   0.37643   0.00000  Uiso   1.00
H970   H     0.88981   0.95200   0.40713   0.00000  Uiso   1.00
H971   H     0.83713   0.93503   0.36406   0.00000  Uiso   1.00
H972   H     0.90226   0.94249   0.34916   0.00000  Uiso   1.00
C973   C     0.16621   0.08744   0.83338   0.00000  Uiso   1.00
C974   C     0.16632   0.24588   0.83329   0.00000  Uiso   1.00
C975   C     0.06798   0.16693   0.82124   0.00000  Uiso   1.00
C976   C     0.26534   0.16732   0.84537   0.00000  Uiso   1.00
C977   C     0.01257   0.16674   0.81458   0.00000  Uiso   1.00
C978   C     0.32070   0.16890   0.85176   0.00000  Uiso   1.00
C979   C     0.14654   0.02110   0.79251   0.00000  Uiso   1.00
C980   C     0.18351   0.31215   0.87483   0.00000  Uiso   1.00
C981   C     0.14606   0.31173   0.79262   0.00000  Uiso   1.00
C982   C     0.18330   0.02153   0.87492   0.00000  Uiso   1.00
C983   C     0.16543   0.29051   0.83349   0.00000  Uiso   1.00
C984   C     0.16540   0.04278   0.83359   0.00000  Uiso   1.00
C985   C     0.13872   0.13727   0.68802   0.00000  Uiso   1.00
C986   C     0.19727   0.19421   0.97879   0.00000  Uiso   1.00
C987   C     0.13906   0.13708   0.97172   0.00000  Uiso   1.00
C988   C     0.19508   0.19575   0.69515   0.00000  Uiso   1.00
Cu989  Cu    0.16667   0.16667   0.88022   0.00000  Uiso   1.00
Cu990  Cu    0.16667   0.16666   0.78645   0.00000  Uiso   1.00
H991   H     0.32578   0.16427   0.77893   0.00000  Uiso   1.00
H992   H     0.00745   0.17208   0.88724   0.00000  Uiso   1.00
H993   H     0.13161   0.03703   0.76055   0.00000  Uiso   1.00
H994   H     0.19837   0.29613   0.90683   0.00000  Uiso   1.00
H995   H     0.13021   0.29535   0.76097   0.00000  Uiso   1.00
H996   H     0.19793   0.03789   0.90698   0.00000  Uiso   1.00
N997   N     0.16668   0.16668   0.95069   0.00000  Uiso   1.00
N998   N     0.16665   0.16666   0.71597   0.00000  Uiso   1.00
O999   O     0.16666   0.10655   0.87291   0.00000  Uiso   1.00
O1000  O     0.16667   0.22678   0.79375   0.00000  Uiso   1.00
O1001  O     0.16666   0.10654   0.79372   0.00000  Uiso   1.00
O1002  O     0.16667   0.22679   0.87294   0.00000  Uiso   1.00
O1003  O     0.09161   0.16667   0.86379   0.00000  Uiso   1.00
O1004  O     0.24172   0.16666   0.80288   0.00000  Uiso   1.00
O1005  O     0.09161   0.16666   0.78460   0.00000  Uiso   1.00
O1006  O     0.24172   0.16667   0.88207   0.00000  Uiso   1.00
O1007  O     0.11692   0.10380   0.70867   0.00000  Uiso   1.00
C1008  C     0.06371   0.10944   0.71005   0.00000  Uiso   1.00
H1009  H     0.04058   0.08657   0.68707   0.00000  Uiso   1.00
H1010  H     0.04981   0.14105   0.70044   0.00000  Uiso   1.00
H1011  H     0.05528   0.10209   0.74591   0.00000  Uiso   1.00
O1012  O     0.23098   0.21980   0.95843   0.00000  Uiso   1.00
C1013  C     0.28220   0.20710   0.97245   0.00000  Uiso   1.00
H1014  H     0.28603   0.17304   0.96993   0.00000  Uiso   1.00
H1015  H     0.29702   0.21759   0.67526   0.00000  Uiso   1.00
H1016  H     0.30738   0.22170   0.94873   0.00000  Uiso   1.00
O1017  O     0.12101   0.10217   0.94651   0.00000  Uiso   1.00
C1018  C     0.06698   0.10270   0.93322   0.00000  Uiso   1.00
H1019  H     0.05833   0.10153   0.89446   0.00000  Uiso   1.00
H1020  H     0.04761   0.12967   0.94628   0.00000  Uiso   1.00
H1021  H     0.04962   0.07389   0.94570   0.00000  Uiso   1.00
O1022  O     0.22509   0.22401   0.72373   0.00000  Uiso   1.00
C1023  C     0.21247   0.26479   0.70976   0.00000  Uiso   1.00
H1024  H     0.22315   0.28534   0.74046   0.00000  Uiso   1.00
H1025  H     0.17046   0.26836   0.69739   0.00000  Uiso   1.00
H1026  H     0.23560   0.27583   0.68249   0.00000  Uiso   1.00
C1027  C     0.49954   0.08744   0.83338   0.00000  Uiso   1.00
C1028  C     0.49966   0.24588   0.83329   0.00000  Uiso   1.00
C1029  C     0.40131   0.16693   0.82124   0.00000  Uiso   1.00
C1030  C     0.59868   0.16732   0.84537   0.00000  Uiso   1.00
C1031  C     0.34590   0.16674   0.81458   0.00000  Uiso   1.00
C1032  C     0.65403   0.16890   0.85176   0.00000  Uiso   1.00
C1033  C     0.47988   0.02110   0.79251   0.00000  Uiso   1.00
C1034  C     0.51684   0.31215   0.87483   0.00000  Uiso   1.00
C1035  C     0.47939   0.31173   0.79262   0.00000  Uiso   1.00
C1036  C     0.51663   0.02153   0.87492   0.00000  Uiso   1.00
C1037  C     0.49877   0.29051   0.83349   0.00000  Uiso   1.00
C1038  C     0.49873   0.04278   0.83359   0.00000  Uiso   1.00
C1039  C     0.47205   0.13727   0.68802   0.00000  Uiso   1.00
C1040  C     0.53060   0.19421   0.97879   0.00000  Uiso   1.00
C1041  C     0.47240   0.13708   0.97172   0.00000  Uiso   1.00
C1042  C     0.52841   0.19575   0.69515   0.00000  Uiso   1.00
Cu1043 Cu    0.50000   0.16667   0.88022   0.00000  Uiso   1.00
Cu1044 Cu    0.50000   0.16666   0.78645   0.00000  Uiso   1.00
H1045  H     0.65911   0.16427   0.77893   0.00000  Uiso   1.00
H1046  H     0.34078   0.17208   0.88724   0.00000  Uiso   1.00
H1047  H     0.46494   0.03703   0.76055   0.00000  Uiso   1.00
H1048  H     0.53171   0.29613   0.90683   0.00000  Uiso   1.00
H1049  H     0.46354   0.29535   0.76097   0.00000  Uiso   1.00
H1050  H     0.53127   0.03789   0.90698   0.00000  Uiso   1.00
N1051  N     0.50001   0.16668   0.95069   0.00000  Uiso   1.00
N1052  N     0.49999   0.16666   0.71597   0.00000  Uiso   1.00
O1053  O     0.50000   0.10655   0.87291   0.00000  Uiso   1.00
O1054  O     0.50000   0.22678   0.79375   0.00000  Uiso   1.00
O1055  O     0.50000   0.10654   0.79372   0.00000  Uiso   1.00
O1056  O     0.50000   0.22679   0.87294   0.00000  Uiso   1.00
O1057  O     0.42495   0.16667   0.86379   0.00000  Uiso   1.00
O1058  O     0.57505   0.16666   0.80288   0.00000  Uiso   1.00
O1059  O     0.42494   0.16666   0.78460   0.00000  Uiso   1.00
O1060  O     0.57506   0.16667   0.88207   0.00000  Uiso   1.00
O1061  O     0.45025   0.10380   0.70867   0.00000  Uiso   1.00
C1062  C     0.39704   0.10944   0.71005   0.00000  Uiso   1.00
H1063  H     0.37392   0.08657   0.68707   0.00000  Uiso   1.00
H1064  H     0.38315   0.14105   0.70044   0.00000  Uiso   1.00
H1065  H     0.38862   0.10209   0.74591   0.00000  Uiso   1.00
O1066  O     0.56432   0.21980   0.95843   0.00000  Uiso   1.00
C1067  C     0.61553   0.20710   0.97245   0.00000  Uiso   1.00
H1068  H     0.61936   0.17304   0.96993   0.00000  Uiso   1.00
H1069  H     0.63035   0.21759   0.67526   0.00000  Uiso   1.00
H1070  H     0.64072   0.22170   0.94873   0.00000  Uiso   1.00
O1071  O     0.45434   0.10217   0.94651   0.00000  Uiso   1.00
C1072  C     0.40032   0.10270   0.93322   0.00000  Uiso   1.00
H1073  H     0.39167   0.10153   0.89446   0.00000  Uiso   1.00
H1074  H     0.38094   0.12967   0.94628   0.00000  Uiso   1.00
H1075  H     0.38296   0.07389   0.94570   0.00000  Uiso   1.00
O1076  O     0.55842   0.22401   0.72373   0.00000  Uiso   1.00
C1077  C     0.54580   0.26479   0.70976   0.00000  Uiso   1.00
H1078  H     0.55648   0.28534   0.74046   0.00000  Uiso   1.00
H1079  H     0.50379   0.26836   0.69739   0.00000  Uiso   1.00
H1080  H     0.56893   0.27583   0.68249   0.00000  Uiso   1.00
C1081  C     0.83287   0.08744   0.83338   0.00000  Uiso   1.00
C1082  C     0.83299   0.24588   0.83329   0.00000  Uiso   1.00
C1083  C     0.73465   0.16693   0.82124   0.00000  Uiso   1.00
C1084  C     0.93201   0.16732   0.84537   0.00000  Uiso   1.00
C1085  C     0.67923   0.16674   0.81458   0.00000  Uiso   1.00
C1086  C     0.98737   0.16890   0.85176   0.00000  Uiso   1.00
C1087  C     0.81321   0.02110   0.79251   0.00000  Uiso   1.00
C1088  C     0.85018   0.31215   0.87483   0.00000  Uiso   1.00
C1089  C     0.81272   0.31173   0.79262   0.00000  Uiso   1.00
C1090  C     0.84997   0.02153   0.87492   0.00000  Uiso   1.00
C1091  C     0.83210   0.29051   0.83349   0.00000  Uiso   1.00
C1092  C     0.83206   0.04278   0.83359   0.00000  Uiso   1.00
C1093  C     0.80538   0.13727   0.68802   0.00000  Uiso   1.00
C1094  C     0.86394   0.19421   0.97879   0.00000  Uiso   1.00
C1095  C     0.80573   0.13708   0.97172   0.00000  Uiso   1.00
C1096  C     0.86174   0.19575   0.69515   0.00000  Uiso   1.00
Cu1097 Cu    0.83333   0.16667   0.88022   0.00000  Uiso   1.00
Cu1098 Cu    0.83333   0.16666   0.78645   0.00000  Uiso   1.00
H1099  H     0.99244   0.16427   0.77893   0.00000  Uiso   1.00
H1100  H     0.67412   0.17208   0.88724   0.00000  Uiso   1.00
H1101  H     0.79828   0.03703   0.76055   0.00000  Uiso   1.00
H1102  H     0.86504   0.29613   0.90683   0.00000  Uiso   1.00
H1103  H     0.79687   0.29535   0.76097   0.00000  Uiso   1.00
H1104  H     0.86460   0.03789   0.90698   0.00000  Uiso   1.00
N1105  N     0.83335   0.16668   0.95069   0.00000  Uiso   1.00
N1106  N     0.83332   0.16666   0.71597   0.00000  Uiso   1.00
O1107  O     0.83333   0.10655   0.87291   0.00000  Uiso   1.00
O1108  O     0.83334   0.22678   0.79375   0.00000  Uiso   1.00
O1109  O     0.83333   0.10654   0.79372   0.00000  Uiso   1.00
O1110  O     0.83334   0.22679   0.87294   0.00000  Uiso   1.00
O1111  O     0.75828   0.16667   0.86379   0.00000  Uiso   1.00
O1112  O     0.90839   0.16666   0.80288   0.00000  Uiso   1.00
O1113  O     0.75828   0.16666   0.78460   0.00000  Uiso   1.00
O1114  O     0.90839   0.16667   0.88207   0.00000  Uiso   1.00
O1115  O     0.78359   0.10380   0.70867   0.00000  Uiso   1.00
C1116  C     0.73037   0.10944   0.71005   0.00000  Uiso   1.00
H1117  H     0.70725   0.08657   0.68707   0.00000  Uiso   1.00
H1118  H     0.71648   0.14105   0.70044   0.00000  Uiso   1.00
H1119  H     0.72195   0.10209   0.74591   0.00000  Uiso   1.00
O1120  O     0.89765   0.21980   0.95843   0.00000  Uiso   1.00
C1121  C     0.94886   0.20710   0.97245   0.00000  Uiso   1.00
H1122  H     0.95270   0.17304   0.96993   0.00000  Uiso   1.00
H1123  H     0.96369   0.21759   0.67526   0.00000  Uiso   1.00
H1124  H     0.97405   0.22170   0.94873   0.00000  Uiso   1.00
O1125  O     0.78768   0.10217   0.94651   0.00000  Uiso   1.00
C1126  C     0.73365   0.10270   0.93322   0.00000  Uiso   1.00
H1127  H     0.72500   0.10153   0.89446   0.00000  Uiso   1.00
H1128  H     0.71428   0.12967   0.94628   0.00000  Uiso   1.00
H1129  H     0.71629   0.07389   0.94570   0.00000  Uiso   1.00
O1130  O     0.89175   0.22401   0.72373   0.00000  Uiso   1.00
C1131  C     0.87914   0.26479   0.70976   0.00000  Uiso   1.00
H1132  H     0.88981   0.28534   0.74046   0.00000  Uiso   1.00
H1133  H     0.83713   0.26836   0.69739   0.00000  Uiso   1.00
H1134  H     0.90226   0.27583   0.68249   0.00000  Uiso   1.00
C1135  C     0.16621   0.42077   0.83338   0.00000  Uiso   1.00
C1136  C     0.16632   0.57921   0.83329   0.00000  Uiso   1.00
C1137  C     0.06798   0.50026   0.82124   0.00000  Uiso   1.00
C1138  C     0.26534   0.50065   0.84537   0.00000  Uiso   1.00
C1139  C     0.01257   0.50007   0.81458   0.00000  Uiso   1.00
C1140  C     0.32070   0.50223   0.85176   0.00000  Uiso   1.00
C1141  C     0.14654   0.35443   0.79251   0.00000  Uiso   1.00
C1142  C     0.18351   0.64548   0.87483   0.00000  Uiso   1.00
C1143  C     0.14606   0.64506   0.79262   0.00000  Uiso   1.00
C1144  C     0.18330   0.35486   0.87492   0.00000  Uiso   1.00
C1145  C     0.16543   0.62384   0.83349   0.00000  Uiso   1.00
C1146  C     0.16540   0.37611   0.83359   0.00000  Uiso   1.00
C1147  C     0.13872   0.47061   0.68802   0.00000  Uiso   1.00
C1148  C     0.19727   0.52754   0.97879   0.00000  Uiso   1.00
C1149  C     0.13906   0.47041   0.97172   0.00000  Uiso   1.00
C1150  C     0.19508   0.52908   0.69515   0.00000  Uiso   1.00
Cu1151 Cu    0.16667   0.50001   0.88022   0.00000  Uiso   1.00
Cu1152 Cu    0.16667   0.49999   0.78645   0.00000  Uiso   1.00
H1153  H     0.32578   0.49760   0.77893   0.00000  Uiso   1.00
H1154  H     0.00745   0.50541   0.88724   0.00000  Uiso   1.00
H1155  H     0.13161   0.37036   0.76055   0.00000  Uiso   1.00
H1156  H     0.19837   0.62946   0.90683   0.00000  Uiso   1.00
H1157  H     0.13021   0.62868   0.76097   0.00000  Uiso   1.00
H1158  H     0.19793   0.37122   0.90698   0.00000  Uiso   1.00
N1159  N     0.16668   0.50001   0.95069   0.00000  Uiso   1.00
N1160  N     0.16665   0.49999   0.71597   0.00000  Uiso   1.00
O1161  O     0.16666   0.43989   0.87291   0.00000  Uiso   1.00
O1162  O     0.16667   0.56011   0.79375   0.00000  Uiso   1.00
O1163  O     0.16666   0.43988   0.79372   0.00000  Uiso   1.00
O1164  O     0.16667   0.56012   0.87294   0.00000  Uiso   1.00
O1165  O     0.09161   0.50000   0.86379   0.00000  Uiso   1.00
O1166  O     0.24172   0.50000   0.80288   0.00000  Uiso   1.00
O1167  O     0.09161   0.49999   0.78460   0.00000  Uiso   1.00
O1168  O     0.24172   0.50001   0.88207   0.00000  Uiso   1.00
O1169  O     0.11692   0.43713   0.70867   0.00000  Uiso   1.00
C1170  C     0.06371   0.44277   0.71005   0.00000  Uiso   1.00
H1171  H     0.04058   0.41990   0.68707   0.00000  Uiso   1.00
H1172  H     0.04981   0.47439   0.70044   0.00000  Uiso   1.00
H1173  H     0.05528   0.43542   0.74591   0.00000  Uiso   1.00
O1174  O     0.23098   0.55314   0.95843   0.00000  Uiso   1.00
C1175  C     0.28220   0.54043   0.97245   0.00000  Uiso   1.00
H1176  H     0.28603   0.50637   0.96993   0.00000  Uiso   1.00
H1177  H     0.29702   0.55093   0.67526   0.00000  Uiso   1.00
H1178  H     0.30738   0.55503   0.94873   0.00000  Uiso   1.00
O1179  O     0.12101   0.43550   0.94651   0.00000  Uiso   1.00
C1180  C     0.06698   0.43603   0.93322   0.00000  Uiso   1.00
H1181  H     0.05833   0.43487   0.89446   0.00000  Uiso   1.00
H1182  H     0.04761   0.46301   0.94628   0.00000  Uiso   1.00
H1183  H     0.04962   0.40722   0.94570   0.00000  Uiso   1.00
O1184  O     0.22509   0.55734   0.72373   0.00000  Uiso   1.00
C1185  C     0.21247   0.59813   0.70976   0.00000  Uiso   1.00
H1186  H     0.22315   0.61867   0.74046   0.00000  Uiso   1.00
H1187  H     0.17046   0.60170   0.69739   0.00000  Uiso   1.00
H1188  H     0.23560   0.60916   0.68249   0.00000  Uiso   1.00
C1189  C     0.49954   0.42077   0.83338   0.00000  Uiso   1.00
C1190  C     0.49966   0.57921   0.83329   0.00000  Uiso   1.00
C1191  C     0.40131   0.50026   0.82124   0.00000  Uiso   1.00
C1192  C     0.59868   0.50065   0.84537   0.00000  Uiso   1.00
C1193  C     0.34590   0.50007   0.81458   0.00000  Uiso   1.00
C1194  C     0.65403   0.50223   0.85176   0.00000  Uiso   1.00
C1195  C     0.47988   0.35443   0.79251   0.00000  Uiso   1.00
C1196  C     0.51684   0.64548   0.87483   0.00000  Uiso   1.00
C1197  C     0.47939   0.64506   0.79262   0.00000  Uiso   1.00
C1198  C     0.51663   0.35486   0.87492   0.00000  Uiso   1.00
C1199  C     0.49877   0.62384   0.83349   0.00000  Uiso   1.00
C1200  C     0.49873   0.37611   0.83359   0.00000  Uiso   1.00
C1201  C     0.47205   0.47061   0.68802   0.00000  Uiso   1.00
C1202  C     0.53060   0.52754   0.97879   0.00000  Uiso   1.00
C1203  C     0.47240   0.47041   0.97172   0.00000  Uiso   1.00
C1204  C     0.52841   0.52908   0.69515   0.00000  Uiso   1.00
Cu1205 Cu    0.50000   0.50001   0.88022   0.00000  Uiso   1.00
Cu1206 Cu    0.50000   0.49999   0.78645   0.00000  Uiso   1.00
H1207  H     0.65911   0.49760   0.77893   0.00000  Uiso   1.00
H1208  H     0.34078   0.50541   0.88724   0.00000  Uiso   1.00
H1209  H     0.46494   0.37036   0.76055   0.00000  Uiso   1.00
H1210  H     0.53171   0.62946   0.90683   0.00000  Uiso   1.00
H1211  H     0.46354   0.62868   0.76097   0.00000  Uiso   1.00
H1212  H     0.53127   0.37122   0.90698   0.00000  Uiso   1.00
N1213  N     0.50001   0.50001   0.95069   0.00000  Uiso   1.00
N1214  N     0.49999   0.49999   0.71597   0.00000  Uiso   1.00
O1215  O     0.50000   0.43989   0.87291   0.00000  Uiso   1.00
O1216  O     0.50000   0.56011   0.79375   0.00000  Uiso   1.00
O1217  O     0.50000   0.43988   0.79372   0.00000  Uiso   1.00
O1218  O     0.50000   0.56012   0.87294   0.00000  Uiso   1.00
O1219  O     0.42495   0.50000   0.86379   0.00000  Uiso   1.00
O1220  O     0.57505   0.50000   0.80288   0.00000  Uiso   1.00
O1221  O     0.42494   0.49999   0.78460   0.00000  Uiso   1.00
O1222  O     0.57506   0.50001   0.88207   0.00000  Uiso   1.00
O1223  O     0.45025   0.43713   0.70867   0.00000  Uiso   1.00
C1224  C     0.39704   0.44277   0.71005   0.00000  Uiso   1.00
H1225  H     0.37392   0.41990   0.68707   0.00000  Uiso   1.00
H1226  H     0.38315   0.47439   0.70044   0.00000  Uiso   1.00
H1227  H     0.38862   0.43542   0.74591   0.00000  Uiso   1.00
O1228  O     0.56432   0.55314   0.95843   0.00000  Uiso   1.00
C1229  C     0.61553   0.54043   0.97245   0.00000  Uiso   1.00
H1230  H     0.61936   0.50637   0.96993   0.00000  Uiso   1.00
H1231  H     0.63035   0.55093   0.67526   0.00000  Uiso   1.00
H1232  H     0.64072   0.55503   0.94873   0.00000  Uiso   1.00
O1233  O     0.45434   0.43550   0.94651   0.00000  Uiso   1.00
C1234  C     0.40032   0.43603   0.93322   0.00000  Uiso   1.00
H1235  H     0.39167   0.43487   0.89446   0.00000  Uiso   1.00
H1236  H     0.38094   0.46301   0.94628   0.00000  Uiso   1.00
H1237  H     0.38296   0.40722   0.94570   0.00000  Uiso   1.00
O1238  O     0.55842   0.55734   0.72373   0.00000  Uiso   1.00
C1239  C     0.54580   0.59813   0.70976   0.00000  Uiso   1.00
H1240  H     0.55648   0.61867   0.74046   0.00000  Uiso   1.00
H1241  H     0.50379   0.60170   0.69739   0.00000  Uiso   1.00
H1242  H     0.56893   0.60916   0.68249   0.00000  Uiso   1.00
C1243  C     0.83287   0.42077   0.83338   0.00000  Uiso   1.00
C1244  C     0.83299   0.57921   0.83329   0.00000  Uiso   1.00
C1245  C     0.73465   0.50026   0.82124   0.00000  Uiso   1.00
C1246  C     0.93201   0.50065   0.84537   0.00000  Uiso   1.00
C1247  C     0.67923   0.50007   0.81458   0.00000  Uiso   1.00
C1248  C     0.98737   0.50223   0.85176   0.00000  Uiso   1.00
C1249  C     0.81321   0.35443   0.79251   0.00000  Uiso   1.00
C1250  C     0.85018   0.64548   0.87483   0.00000  Uiso   1.00
C1251  C     0.81272   0.64506   0.79262   0.00000  Uiso   1.00
C1252  C     0.84997   0.35486   0.87492   0.00000  Uiso   1.00
C1253  C     0.83210   0.62384   0.83349   0.00000  Uiso   1.00
C1254  C     0.83206   0.37611   0.83359   0.00000  Uiso   1.00
C1255  C     0.80538   0.47061   0.68802   0.00000  Uiso   1.00
C1256  C     0.86394   0.52754   0.97879   0.00000  Uiso   1.00
C1257  C     0.80573   0.47041   0.97172   0.00000  Uiso   1.00
C1258  C     0.86174   0.52908   0.69515   0.00000  Uiso   1.00
Cu1259 Cu    0.83333   0.50001   0.88022   0.00000  Uiso   1.00
Cu1260 Cu    0.83333   0.49999   0.78645   0.00000  Uiso   1.00
H1261  H     0.99244   0.49760   0.77893   0.00000  Uiso   1.00
H1262  H     0.67412   0.50541   0.88724   0.00000  Uiso   1.00
H1263  H     0.79828   0.37036   0.76055   0.00000  Uiso   1.00
H1264  H     0.86504   0.62946   0.90683   0.00000  Uiso   1.00
H1265  H     0.79687   0.62868   0.76097   0.00000  Uiso   1.00
H1266  H     0.86460   0.37122   0.90698   0.00000  Uiso   1.00
N1267  N     0.83335   0.50001   0.95069   0.00000  Uiso   1.00
N1268  N     0.83332   0.49999   0.71597   0.00000  Uiso   1.00
O1269  O     0.83333   0.43989   0.87291   0.00000  Uiso   1.00
O1270  O     0.83334   0.56011   0.79375   0.00000  Uiso   1.00
O1271  O     0.83333   0.43988   0.79372   0.00000  Uiso   1.00
O1272  O     0.83334   0.56012   0.87294   0.00000  Uiso   1.00
O1273  O     0.75828   0.50000   0.86379   0.00000  Uiso   1.00
O1274  O     0.90839   0.50000   0.80288   0.00000  Uiso   1.00
O1275  O     0.75828   0.49999   0.78460   0.00000  Uiso   1.00
O1276  O     0.90839   0.50001   0.88207   0.00000  Uiso   1.00
O1277  O     0.78359   0.43713   0.70867   0.00000  Uiso   1.00
C1278  C     0.73037   0.44277   0.71005   0.00000  Uiso   1.00
H1279  H     0.70725   0.41990   0.68707   0.00000  Uiso   1.00
H1280  H     0.71648   0.47439   0.70044   0.00000  Uiso   1.00
H1281  H     0.72195   0.43542   0.74591   0.00000  Uiso   1.00
O1282  O     0.89765   0.55314   0.95843   0.00000  Uiso   1.00
C1283  C     0.94886   0.54043   0.97245   0.00000  Uiso   1.00
H1284  H     0.95270   0.50637   0.96993   0.00000  Uiso   1.00
H1285  H     0.96369   0.55093   0.67526   0.00000  Uiso   1.00
H1286  H     0.97405   0.55503   0.94873   0.00000  Uiso   1.00
O1287  O     0.78768   0.43550   0.94651   0.00000  Uiso   1.00
C1288  C     0.73365   0.43603   0.93322   0.00000  Uiso   1.00
H1289  H     0.72500   0.43487   0.89446   0.00000  Uiso   1.00
H1290  H     0.71428   0.46301   0.94628   0.00000  Uiso   1.00
H1291  H     0.71629   0.40722   0.94570   0.00000  Uiso   1.00
O1292  O     0.89175   0.55734   0.72373   0.00000  Uiso   1.00
C1293  C     0.87914   0.59813   0.70976   0.00000  Uiso   1.00
H1294  H     0.88981   0.61867   0.74046   0.00000  Uiso   1.00
H1295  H     0.83713   0.60170   0.69739   0.00000  Uiso   1.00
H1296  H     0.90226   0.60916   0.68249   0.00000  Uiso   1.00
C1297  C     0.16621   0.75411   0.83338   0.00000  Uiso   1.00
C1298  C     0.16632   0.91255   0.83329   0.00000  Uiso   1.00
C1299  C     0.06798   0.83359   0.82124   0.00000  Uiso   1.00
C1300  C     0.26534   0.83399   0.84537   0.00000  Uiso   1.00
C1301  C     0.01257   0.83341   0.81458   0.00000  Uiso   1.00
C1302  C     0.32070   0.83557   0.85176   0.00000  Uiso   1.00
C1303  C     0.14654   0.68776   0.79251   0.00000  Uiso   1.00
C1304  C     0.18351   0.97881   0.87483   0.00000  Uiso   1.00
C1305  C     0.14606   0.97840   0.79262   0.00000  Uiso   1.00
C1306  C     0.18330   0.68819   0.87492   0.00000  Uiso   1.00
C1307  C     0.16543   0.95717   0.83349   0.00000  Uiso   1.00
C1308  C     0.16540   0.70944   0.83359   0.00000  Uiso   1.00
C1309  C     0.13872   0.80394   0.68802   0.00000  Uiso   1.00
C1310  C     0.19727   0.86087   0.97879   0.00000  Uiso   1.00
C1311  C     0.13906   0.80375   0.97172   0.00000  Uiso   1.00
C1312  C     0.19508   0.86242   0.69515   0.00000  Uiso   1.00
Cu1313 Cu    0.16667   0.83334   0.88022   0.00000  Uiso   1.00
Cu1314 Cu    0.16667   0.83333   0.78645   0.00000  Uiso   1.00
H1315  H     0.32578   0.83093   0.77893   0.00000  Uiso   1.00
H1316  H     0.00745   0.83875   0.88724   0.00000  Uiso   1.00
H1317  H     0.13161   0.70370   0.76055   0.00000  Uiso   1.00
H1318  H     0.19837   0.96279   0.90683   0.00000  Uiso   1.00
H1319  H     0.13021   0.96201   0.76097   0.00000  Uiso   1.00
H1320  H     0.19793   0.70455   0.90698   0.00000  Uiso   1.00
N1321  N     0.16668   0.83334   0.95069   0.00000  Uiso   1.00
N1322  N     0.16665   0.83332   0.71597   0.00000  Uiso   1.00
O1323  O     0.16666   0.77322   0.87291   0.00000  Uiso   1.00
O1324  O     0.16667   0.89345   0.79375   0.00000  Uiso   1.00
O1325  O     0.16666   0.77321   0.79372   0.00000  Uiso   1.00
O1326  O     0.16667   0.89346   0.87294   0.00000  Uiso   1.00
O1327  O     0.09161   0.83334   0.86379   0.00000  Uiso   1.00
O1328  O     0.24172   0.83333   0.80288   0.00000  Uiso   1.00
O1329  O     0.09161   0.83333   0.78460   0.00000  Uiso   1.00
O1330  O     0.24172   0.83334   0.88207   0.00000  Uiso   1.00
O1331  O     0.11692   0.77047   0.70867   0.00000  Uiso   1.00
C1332  C     0.06371   0.77611   0.71005   0.00000  Uiso   1.00
H1333  H     0.04058   0.75323   0.68707   0.00000  Uiso   1.00
H1334  H     0.04981   0.80772   0.70044   0.00000  Uiso   1.00
H1335  H     0.05528   0.76876   0.74591   0.00000  Uiso   1.00
O1336  O     0.23098   0.88647   0.95843   0.00000  Uiso   1.00
C1337  C     0.28220   0.87377   0.97245   0.00000  Uiso   1.00
H1338  H     0.28603   0.83971   0.96993   0.00000  Uiso   1.00
H1339  H     0.29702   0.88426   0.67526   0.00000  Uiso   1.00
H1340  H     0.30738   0.88837   0.94873   0.00000  Uiso   1.00
O1341  O     0.12101   0.76883   0.94651   0.00000  Uiso   1.00
C1342  C     0.06698   0.76936   0.93322   0.00000  Uiso   1.00
H1343  H     0.05833   0.76820   0.89446   0.00000  Uiso   1.00
H1344  H     0.04761   0.79634   0.94628   0.00000  Uiso   1.00
H1345  H     0.04962   0.74056   0.94570   0.00000  Uiso   1.00
O1346  O     0.22509   0.89068   0.72373   0.00000  Uiso   1.00
C1347  C     0.21247   0.93146   0.70976   0.00000  Uiso   1.00
H1348  H     0.22315   0.95200   0.74046   0.00000  Uiso   1.00
H1349  H     0.17046   0.93503   0.69739   0.00000  Uiso   1.00
H1350  H     0.23560   0.94249   0.68249   0.00000  Uiso   1.00
C1351  C     0.49954   0.75411   0.83338   0.00000  Uiso   1.00
C1352  C     0.49966   0.91255   0.83329   0.00000  Uiso   1.00
C1353  C     0.40131   0.83359   0.82124   0.00000  Uiso   1.00
C1354  C     0.59868   0.83399   0.84537   0.00000  Uiso   1.00
C1355  C     0.34590   0.83341   0.81458   0.00000  Uiso   1.00
C1356  C     0.65403   0.83557   0.85176   0.00000  Uiso   1.00
C1357  C     0.47988   0.68776   0.79251   0.00000  Uiso   1.00
C1358  C     0.51684   0.97881   0.87483   0.00000  Uiso   1.00
C1359  C     0.47939   0.97840   0.79262   0.00000  Uiso   1.00
C1360  C     0.51663   0.68819   0.87492   0.00000  Uiso   1.00
C1361  C     0.49877   0.95717   0.83349   0.00000  Uiso   1.00
C1362  C     0.49873   0.70944   0.83359   0.00000  Uiso   1.00
C1363  C     0.47205   0.80394   0.68802   0.00000  Uiso   1.00
C1364  C     0.53060   0.86087   0.97879   0.00000  Uiso   1.00
C1365  C     0.47240   0.80375   0.97172   0.00000  Uiso   1.00
C1366  C     0.52841   0.86242   0.69515   0.00000  Uiso   1.00
Cu1367 Cu    0.50000   0.83334   0.88022   0.00000  Uiso   1.00
Cu1368 Cu    0.50000   0.83333   0.78645   0.00000  Uiso   1.00
H1369  H     0.65911   0.83093   0.77893   0.00000  Uiso   1.00
H1370  H     0.34078   0.83875   0.88724   0.00000  Uiso   1.00
H1371  H     0.46494   0.70370   0.76055   0.00000  Uiso   1.00
H1372  H     0.53171   0.96279   0.90683   0.00000  Uiso   1.00
H1373  H     0.46354   0.96201   0.76097   0.00000  Uiso   1.00
H1374  H     0.53127   0.70455   0.90698   0.00000  Uiso   1.00
N1375  N     0.50001   0.83334   0.95069   0.00000  Uiso   1.00
N1376  N     0.49999   0.83332   0.71597   0.00000  Uiso   1.00
O1377  O     0.50000   0.77322   0.87291   0.00000  Uiso   1.00
O1378  O     0.50000   0.89345   0.79375   0.00000  Uiso   1.00
O1379  O     0.50000   0.77321   0.79372   0.00000  Uiso   1.00
O1380  O     0.50000   0.89346   0.87294   0.00000  Uiso   1.00
O1381  O     0.42495   0.83334   0.86379   0.00000  Uiso   1.00
O1382  O     0.57505   0.83333   0.80288   0.00000  Uiso   1.00
O1383  O     0.42494   0.83333   0.78460   0.00000  Uiso   1.00
O1384  O     0.57506   0.83334   0.88207   0.00000  Uiso   1.00
O1385  O     0.45025   0.77047   0.70867   0.00000  Uiso   1.00
C1386  C     0.39704   0.77611   0.71005   0.00000  Uiso   1.00
H1387  H     0.37392   0.75323   0.68707   0.00000  Uiso   1.00
H1388  H     0.38315   0.80772   0.70044   0.00000  Uiso   1.00
H1389  H     0.38862   0.76876   0.74591   0.00000  Uiso   1.00
O1390  O     0.56432   0.88647   0.95843   0.00000  Uiso   1.00
C1391  C     0.61553   0.87377   0.97245   0.00000  Uiso   1.00
H1392  H     0.61936   0.83971   0.96993   0.00000  Uiso   1.00
H1393  H     0.63035   0.88426   0.67526   0.00000  Uiso   1.00
H1394  H     0.64072   0.88837   0.94873   0.00000  Uiso   1.00
O1395  O     0.45434   0.76883   0.94651   0.00000  Uiso   1.00
C1396  C     0.40032   0.76936   0.93322   0.00000  Uiso   1.00
H1397  H     0.39167   0.76820   0.89446   0.00000  Uiso   1.00
H1398  H     0.38094   0.79634   0.94628   0.00000  Uiso   1.00
H1399  H     0.38296   0.74056   0.94570   0.00000  Uiso   1.00
O1400  O     0.55842   0.89068   0.72373   0.00000  Uiso   1.00
C1401  C     0.54580   0.93146   0.70976   0.00000  Uiso   1.00
H1402  H     0.55648   0.95200   0.74046   0.00000  Uiso   1.00
H1403  H     0.50379   0.93503   0.69739   0.00000  Uiso   1.00
H1404  H     0.56893   0.94249   0.68249   0.00000  Uiso   1.00
C1405  C     0.83287   0.75411   0.83338   0.00000  Uiso   1.00
C1406  C     0.83299   0.91255   0.83329   0.00000  Uiso   1.00
C1407  C     0.73465   0.83359   0.82124   0.00000  Uiso   1.00
C1408  C     0.93201   0.83399   0.84537   0.00000  Uiso   1.00
C1409  C     0.67923   0.83341   0.81458   0.00000  Uiso   1.00
C1410  C     0.98737   0.83557   0.85176   0.00000  Uiso   1.00
C1411  C     0.81321   0.68776   0.79251   0.00000  Uiso   1.00
C1412  C     0.85018   0.97881   0.87483   0.00000  Uiso   1.00
C1413  C     0.81272   0.97840   0.79262   0.00000  Uiso   1.00
C1414  C     0.84997   0.68819   0.87492   0.00000  Uiso   1.00
C1415  C     0.83210   0.95717   0.83349   0.00000  Uiso   1.00
C1416  C     0.83206   0.70944   0.83359   0.00000  Uiso   1.00
C1417  C     0.80538   0.80394   0.68802   0.00000  Uiso   1.00
C1418  C     0.86394   0.86087   0.97879   0.00000  Uiso   1.00
C1419  C     0.80573   0.80375   0.97172   0.00000  Uiso   1.00
C1420  C     0.86174   0.86242   0.69515   0.00000  Uiso   1.00
Cu1421 Cu    0.83333   0.83334   0.88022   0.00000  Uiso   1.00
Cu1422 Cu    0.83333   0.83333   0.78645   0.00000  Uiso   1.00
H1423  H     0.99244   0.83093   0.77893   0.00000  Uiso   1.00
H1424  H     0.67412   0.83875   0.88724   0.00000  Uiso   1.00
H1425  H     0.79828   0.70370   0.76055   0.00000  Uiso   1.00
H1426  H     0.86504   0.96279   0.90683   0.00000  Uiso   1.00
H1427  H     0.79687   0.96201   0.76097   0.00000  Uiso   1.00
H1428  H     0.86460   0.70455   0.90698   0.00000  Uiso   1.00
N1429  N     0.83335   0.83334   0.95069   0.00000  Uiso   1.00
N1430  N     0.83332   0.83332   0.71597   0.00000  Uiso   1.00
O1431  O     0.83333   0.77322   0.87291   0.00000  Uiso   1.00
O1432  O     0.83334   0.89345   0.79375   0.00000  Uiso   1.00
O1433  O     0.83333   0.77321   0.79372   0.00000  Uiso   1.00
O1434  O     0.83334   0.89346   0.87294   0.00000  Uiso   1.00
O1435  O     0.75828   0.83334   0.86379   0.00000  Uiso   1.00
O1436  O     0.90839   0.83333   0.80288   0.00000  Uiso   1.00
O1437  O     0.75828   0.83333   0.78460   0.00000  Uiso   1.00
O1438  O     0.90839   0.83334   0.88207   0.00000  Uiso   1.00
O1439  O     0.78359   0.77047   0.70867   0.00000  Uiso   1.00
C1440  C     0.73037   0.77611   0.71005   0.00000  Uiso   1.00
H1441  H     0.70725   0.75323   0.68707   0.00000  Uiso   1.00
H1442  H     0.71648   0.80772   0.70044   0.00000  Uiso   1.00
H1443  H     0.72195   0.76876   0.74591   0.00000  Uiso   1.00
O1444  O     0.89765   0.88647   0.95843   0.00000  Uiso   1.00
C1445  C     0.94886   0.87377   0.97245   0.00000  Uiso   1.00
H1446  H     0.95270   0.83971   0.96993   0.00000  Uiso   1.00
H1447  H     0.96369   0.88426   0.67526   0.00000  Uiso   1.00
H1448  H     0.97405   0.88837   0.94873   0.00000  Uiso   1.00
O1449  O     0.78768   0.76883   0.94651   0.00000  Uiso   1.00
C1450  C     0.73365   0.76936   0.93322   0.00000  Uiso   1.00
H1451  H     0.72500   0.76820   0.89446   0.00000  Uiso   1.00
H1452  H     0.71428   0.79634   0.94628   0.00000  Uiso   1.00
H1453  H     0.71629   0.74056   0.94570   0.00000  Uiso   1.00
O1454  O     0.89175   0.89068   0.72373   0.00000  Uiso   1.00
C1455  C     0.87914   0.93146   0.70976   0.00000  Uiso   1.00
H1456  H     0.88981   0.95200   0.74046   0.00000  Uiso   1.00
H1457  H     0.83713   0.93503   0.69739   0.00000  Uiso   1.00
H1458  H     0.90226   0.94249   0.68249   0.00000  Uiso   1.00
loop_
_geom_bond_atom_site_label_1
_geom_bond_atom_site_label_2
_geom_bond_distance
_geom_bond_site_symmetry_2
_ccdc_geom_bond_type
C1     O29     1.297   .     A
C1     C12     1.447   .     S
C1     O27     1.297   .     A
C2     O30     1.294   .     A
C2     C11     1.448   .     S
C2     O28     1.299   .     A
C3     C5      1.434   .     S
C3     O31     1.292   .     A
C3     O33     1.295   .     A
C4     O32     1.290   .     A
C4     O34     1.296   .     A
C4     C6      1.433   .     S
C5     C114    1.336   1_455 S
C5     H127    1.087   1_455 S
C6     C59     1.336   .     S
C6     H74     1.084   .     S
C7     C12     1.400   .     A
C7     H21     1.082   .     S
C7     C333    1.384   1_545 S
C8     H22     1.083   .     S
C8     C11     1.401   .     A
C8     C172    1.385   .     S
C9     C11     1.398   .     A
C9     H23     1.082   .     S
C9     C169    1.384   .     S
C10    C12     1.400   .     A
C10    H24     1.083   .     S
C10    C332    1.385   1_545 S
C13    O35     1.383   .     S
C13    N26     1.376   .     A
C13    C987    1.430   1_554 S
C14    N25     1.370   .     A
C14    O40     1.382   .     S
C14    C502    1.440   .     S
C15    N25     1.374   .     A
C15    O45     1.383   .     S
C15    C499    1.430   .     S
C16    O50     1.386   .     S
C16    N26     1.372   .     A
C16    C986    1.440   1_554 S
Cu17   N25     2.028   .     S
Cu17   Cu18    2.698   .     S
Cu17   O30     1.959   .     S
Cu17   O31     1.953   .     S
Cu17   O34     1.956   .     S
Cu17   O27     1.961   .     S
Cu18   N26     2.028   .     S
Cu18   O28     1.961   .     S
Cu18   O29     1.959   .     S
Cu18   O33     1.956   .     S
Cu18   O32     1.953   .     S
H19    C59     1.087   .     S
H20    C114    1.084   1_455 S
O35    C36     1.414   .     S
C36    H38     1.117   .     S
C36    H37     1.105   .     S
C36    H39     1.108   .     S
O40    C41     1.414   .     S
C41    H42     1.115   .     S
C41    H44     1.109   .     S
C41    H529    1.110   .     S
H43    C1013   1.110   1_554 S
O45    C46     1.411   .     S
C46    H49     1.108   .     S
C46    H48     1.115   .     S
C46    H47     1.107   .     S
O50    C51     1.414   .     S
C51    H54     1.108   .     S
C51    H52     1.108   .     S
C51    H53     1.115   .     S
C55    O83     1.297   .     A
C55    C66     1.447   .     S
C55    O81     1.297   .     A
C56    O84     1.294   .     A
C56    C65     1.448   .     S
C56    O82     1.299   .     A
C57    C59     1.434   .     S
C57    O85     1.292   .     A
C57    O87     1.295   .     A
C58    O86     1.290   .     A
C58    O88     1.296   .     A
C58    C60     1.433   .     S
C60    C113    1.336   .     S
C60    H128    1.084   .     S
C61    C66     1.400   .     A
C61    H75     1.082   .     S
C61    C387    1.384   1_545 S
C62    H76     1.083   .     S
C62    C65     1.401   .     A
C62    C226    1.385   .     S
C63    C65     1.398   .     A
C63    H77     1.082   .     S
C63    C223    1.384   .     S
C64    C66     1.400   .     A
C64    H78     1.083   .     S
C64    C386    1.385   1_545 S
C67    O89     1.383   .     S
C67    N80     1.376   .     A
C67    C1041   1.430   1_554 S
C68    N79     1.370   .     A
C68    O94     1.382   .     S
C68    C556    1.440   .     S
C69    N79     1.374   .     A
C69    O99     1.383   .     S
C69    C553    1.430   .     S
C70    O104    1.386   .     S
C70    N80     1.372   .     A
C70    C1040   1.440   1_554 S
Cu71   N79     2.028   .     S
Cu71   Cu72    2.698   .     S
Cu71   O84     1.959   .     S
Cu71   O85     1.953   .     S
Cu71   O88     1.956   .     S
Cu71   O81     1.961   .     S
Cu72   N80     2.028   .     S
Cu72   O82     1.961   .     S
Cu72   O83     1.959   .     S
Cu72   O87     1.956   .     S
Cu72   O86     1.953   .     S
H73    C113    1.087   .     S
O89    C90     1.414   .     S
C90    H92     1.117   .     S
C90    H91     1.105   .     S
C90    H93     1.108   .     S
O94    C95     1.414   .     S
C95    H96     1.115   .     S
C95    H98     1.109   .     S
C95    H583    1.110   .     S
H97    C1067   1.110   1_554 S
O99    C100    1.411   .     S
C100   H103    1.108   .     S
C100   H102    1.115   .     S
C100   H101    1.107   .     S
O104   C105    1.414   .     S
C105   H108    1.108   .     S
C105   H106    1.108   .     S
C105   H107    1.115   .     S
C109   O137    1.297   .     A
C109   C120    1.447   .     S
C109   O135    1.297   .     A
C110   O138    1.294   .     A
C110   C119    1.448   .     S
C110   O136    1.299   .     A
C111   C113    1.434   .     S
C111   O139    1.292   .     A
C111   O141    1.295   .     A
C112   O140    1.290   .     A
C112   O142    1.296   .     A
C112   C114    1.433   .     S
C114   C5      1.336   1_655 S
C114   H20     1.084   1_655 S
C115   C120    1.400   .     A
C115   H129    1.082   .     S
C115   C441    1.384   1_545 S
C116   H130    1.083   .     S
C116   C119    1.401   .     A
C116   C280    1.385   .     S
C117   C119    1.398   .     A
C117   H131    1.082   .     S
C117   C277    1.384   .     S
C118   C120    1.400   .     A
C118   H132    1.083   .     S
C118   C440    1.385   1_545 S
C121   O143    1.383   .     S
C121   N134    1.376   .     A
C121   C1095   1.430   1_554 S
C122   N133    1.370   .     A
C122   O148    1.382   .     S
C122   C610    1.440   .     S
C123   N133    1.374   .     A
C123   O153    1.383   .     S
C123   C607    1.430   .     S
C124   O158    1.386   .     S
C124   N134    1.372   .     A
C124   C1094   1.440   1_554 S
Cu125  N133    2.028   .     S
Cu125  Cu126   2.698   .     S
Cu125  O138    1.959   .     S
Cu125  O139    1.953   .     S
Cu125  O142    1.956   .     S
Cu125  O135    1.961   .     S
Cu126  N134    2.028   .     S
Cu126  O136    1.961   .     S
Cu126  O137    1.959   .     S
Cu126  O141    1.956   .     S
Cu126  O140    1.953   .     S
H127   C5      1.087   1_655 S
O143   C144    1.414   .     S
C144   H146    1.117   .     S
C144   H145    1.105   .     S
C144   H147    1.108   .     S
O148   C149    1.414   .     S
C149   H150    1.115   .     S
C149   H152    1.109   .     S
C149   H637    1.110   .     S
H151   C1121   1.110   1_554 S
O153   C154    1.411   .     S
C154   H157    1.108   .     S
C154   H156    1.115   .     S
C154   H155    1.107   .     S
O158   C159    1.414   .     S
C159   H162    1.108   .     S
C159   H160    1.108   .     S
C159   H161    1.115   .     S
C163   O191    1.297   .     A
C163   C174    1.447   .     S
C163   O189    1.297   .     A
C164   O192    1.294   .     A
C164   C173    1.448   .     S
C164   O190    1.299   .     A
C165   C167    1.434   .     S
C165   O193    1.292   .     A
C165   O195    1.295   .     A
C166   O194    1.290   .     A
C166   O196    1.296   .     A
C166   C168    1.433   .     S
C167   C276    1.336   1_455 S
C167   H289    1.087   1_455 S
C168   C221    1.336   .     S
C168   H236    1.084   .     S
C169   C174    1.400   .     A
C169   H183    1.082   .     S
C170   H184    1.083   .     S
C170   C173    1.401   .     A
C170   C334    1.385   .     S
C171   C173    1.398   .     A
C171   H185    1.082   .     S
C171   C331    1.384   .     S
C172   C174    1.400   .     A
C172   H186    1.083   .     S
C175   O197    1.383   .     S
C175   N188    1.376   .     A
C175   C1149   1.430   1_554 S
C176   N187    1.370   .     A
C176   O202    1.382   .     S
C176   C664    1.440   .     S
C177   N187    1.374   .     A
C177   O207    1.383   .     S
C177   C661    1.430   .     S
C178   O212    1.386   .     S
C178   N188    1.372   .     A
C178   C1148   1.440   1_554 S
Cu179  N187    2.028   .     S
Cu179  Cu180   2.698   .     S
Cu179  O192    1.959   .     S
Cu179  O193    1.953   .     S
Cu179  O196    1.956   .     S
Cu179  O189    1.961   .     S
Cu180  N188    2.028   .     S
Cu180  O190    1.961   .     S
Cu180  O191    1.959   .     S
Cu180  O195    1.956   .     S
Cu180  O194    1.953   .     S
H181   C221    1.087   .     S
H182   C276    1.084   1_455 S
O197   C198    1.414   .     S
C198   H200    1.117   .     S
C198   H199    1.105   .     S
C198   H201    1.108   .     S
O202   C203    1.414   .     S
C203   H204    1.115   .     S
C203   H206    1.109   .     S
C203   H691    1.110   .     S
H205   C1175   1.110   1_554 S
O207   C208    1.411   .     S
C208   H211    1.108   .     S
C208   H210    1.115   .     S
C208   H209    1.107   .     S
O212   C213    1.414   .     S
C213   H216    1.108   .     S
C213   H214    1.108   .     S
C213   H215    1.115   .     S
C217   O245    1.297   .     A
C217   C228    1.447   .     S
C217   O243    1.297   .     A
C218   O246    1.294   .     A
C218   C227    1.448   .     S
C218   O244    1.299   .     A
C219   C221    1.434   .     S
C219   O247    1.292   .     A
C219   O249    1.295   .     A
C220   O248    1.290   .     A
C220   O250    1.296   .     A
C220   C222    1.433   .     S
C222   C275    1.336   .     S
C222   H290    1.084   .     S
C223   C228    1.400   .     A
C223   H237    1.082   .     S
C224   H238    1.083   .     S
C224   C227    1.401   .     A
C224   C388    1.385   .     S
C225   C227    1.398   .     A
C225   H239    1.082   .     S
C225   C385    1.384   .     S
C226   C228    1.400   .     A
C226   H240    1.083   .     S
C229   O251    1.383   .     S
C229   N242    1.376   .     A
C229   C1203   1.430   1_554 S
C230   N241    1.370   .     A
C230   O256    1.382   .     S
C230   C718    1.440   .     S
C231   N241    1.374   .     A
C231   O261    1.383   .     S
C231   C715    1.430   .     S
C232   O266    1.386   .     S
C232   N242    1.372   .     A
C232   C1202   1.440   1_554 S
Cu233  N241    2.028   .     S
Cu233  Cu234   2.698   .     S
Cu233  O246    1.959   .     S
Cu233  O247    1.953   .     S
Cu233  O250    1.956   .     S
Cu233  O243    1.961   .     S
Cu234  N242    2.028   .     S
Cu234  O244    1.961   .     S
Cu234  O245    1.959   .     S
Cu234  O249    1.956   .     S
Cu234  O248    1.953   .     S
H235   C275    1.087   .     S
O251   C252    1.414   .     S
C252   H254    1.117   .     S
C252   H253    1.105   .     S
C252   H255    1.108   .     S
O256   C257    1.414   .     S
C257   H258    1.115   .     S
C257   H260    1.109   .     S
C257   H745    1.110   .     S
H259   C1229   1.110   1_554 S
O261   C262    1.411   .     S
C262   H265    1.108   .     S
C262   H264    1.115   .     S
C262   H263    1.107   .     S
O266   C267    1.414   .     S
C267   H270    1.108   .     S
C267   H268    1.108   .     S
C267   H269    1.115   .     S
C271   O299    1.297   .     A
C271   C282    1.447   .     S
C271   O297    1.297   .     A
C272   O300    1.294   .     A
C272   C281    1.448   .     S
C272   O298    1.299   .     A
C273   C275    1.434   .     S
C273   O301    1.292   .     A
C273   O303    1.295   .     A
C274   O302    1.290   .     A
C274   O304    1.296   .     A
C274   C276    1.433   .     S
C276   C167    1.336   1_655 S
C276   H182    1.084   1_655 S
C277   C282    1.400   .     A
C277   H291    1.082   .     S
C278   H292    1.083   .     S
C278   C281    1.401   .     A
C278   C442    1.385   .     S
C279   C281    1.398   .     A
C279   H293    1.082   .     S
C279   C439    1.384   .     S
C280   C282    1.400   .     A
C280   H294    1.083   .     S
C283   O305    1.383   .     S
C283   N296    1.376   .     A
C283   C1257   1.430   1_554 S
C284   N295    1.370   .     A
C284   O310    1.382   .     S
C284   C772    1.440   .     S
C285   N295    1.374   .     A
C285   O315    1.383   .     S
C285   C769    1.430   .     S
C286   O320    1.386   .     S
C286   N296    1.372   .     A
C286   C1256   1.440   1_554 S
Cu287  N295    2.028   .     S
Cu287  Cu288   2.698   .     S
Cu287  O300    1.959   .     S
Cu287  O301    1.953   .     S
Cu287  O304    1.956   .     S
Cu287  O297    1.961   .     S
Cu288  N296    2.028   .     S
Cu288  O298    1.961   .     S
Cu288  O299    1.959   .     S
Cu288  O303    1.956   .     S
Cu288  O302    1.953   .     S
H289   C167    1.087   1_655 S
O305   C306    1.414   .     S
C306   H308    1.117   .     S
C306   H307    1.105   .     S
C306   H309    1.108   .     S
O310   C311    1.414   .     S
C311   H312    1.115   .     S
C311   H314    1.109   .     S
C311   H799    1.110   .     S
H313   C1283   1.110   1_554 S
O315   C316    1.411   .     S
C316   H319    1.108   .     S
C316   H318    1.115   .     S
C316   H317    1.107   .     S
O320   C321    1.414   .     S
C321   H324    1.108   .     S
C321   H322    1.108   .     S
C321   H323    1.115   .     S
C325   O353    1.297   .     A
C325   C336    1.447   .     S
C325   O351    1.297   .     A
C326   O354    1.294   .     A
C326   C335    1.448   .     S
C326   O352    1.299   .     A
C327   C329    1.434   .     S
C327   O355    1.292   .     A
C327   O357    1.295   .     A
C328   O356    1.290   .     A
C328   O358    1.296   .     A
C328   C330    1.433   .     S
C329   C438    1.336   1_455 S
C329   H451    1.087   1_455 S
C330   C383    1.336   .     S
C330   H398    1.084   .     S
C331   C336    1.400   .     A
C331   H345    1.082   .     S
C332   H346    1.083   .     S
C332   C335    1.401   .     A
C332   C10     1.385   1_565 S
C333   C335    1.398   .     A
C333   H347    1.082   .     S
C333   C7      1.384   1_565 S
C334   C336    1.400   .     A
C334   H348    1.083   .     S
C337   O359    1.383   .     S
C337   N350    1.376   .     A
C337   C1311   1.430   1_554 S
C338   N349    1.370   .     A
C338   O364    1.382   .     S
C338   C826    1.440   .     S
C339   N349    1.374   .     A
C339   O369    1.383   .     S
C339   C823    1.430   .     S
C340   O374    1.386   .     S
C340   N350    1.372   .     A
C340   C1310   1.440   1_554 S
Cu341  N349    2.028   .     S
Cu341  Cu342   2.698   .     S
Cu341  O354    1.959   .     S
Cu341  O355    1.953   .     S
Cu341  O358    1.956   .     S
Cu341  O351    1.961   .     S
Cu342  N350    2.028   .     S
Cu342  O352    1.961   .     S
Cu342  O353    1.959   .     S
Cu342  O357    1.956   .     S
Cu342  O356    1.953   .     S
H343   C383    1.087   .     S
H344   C438    1.084   1_455 S
O359   C360    1.414   .     S
C360   H362    1.117   .     S
C360   H361    1.105   .     S
C360   H363    1.108   .     S
O364   C365    1.414   .     S
C365   H366    1.115   .     S
C365   H368    1.109   .     S
C365   H853    1.110   .     S
H367   C1337   1.110   1_554 S
O369   C370    1.411   .     S
C370   H373    1.108   .     S
C370   H372    1.115   .     S
C370   H371    1.107   .     S
O374   C375    1.414   .     S
C375   H378    1.108   .     S
C375   H376    1.108   .     S
C375   H377    1.115   .     S
C379   O407    1.297   .     A
C379   C390    1.447   .     S
C379   O405    1.297   .     A
C380   O408    1.294   .     A
C380   C389    1.448   .     S
C380   O406    1.299   .     A
C381   C383    1.434   .     S
C381   O409    1.292   .     A
C381   O411    1.295   .     A
C382   O410    1.290   .     A
C382   O412    1.296   .     A
C382   C384    1.433   .     S
C384   C437    1.336   .     S
C384   H452    1.084   .     S
C385   C390    1.400   .     A
C385   H399    1.082   .     S
C386   H400    1.083   .     S
C386   C389    1.401   .     A
C386   C64     1.385   1_565 S
C387   C389    1.398   .     A
C387   H401    1.082   .     S
C387   C61     1.384   1_565 S
C388   C390    1.400   .     A
C388   H402    1.083   .     S
C391   O413    1.383   .     S
C391   N404    1.376   .     A
C391   C1365   1.430   1_554 S
C392   N403    1.370   .     A
C392   O418    1.382   .     S
C392   C880    1.440   .     S
C393   N403    1.374   .     A
C393   O423    1.383   .     S
C393   C877    1.430   .     S
C394   O428    1.386   .     S
C394   N404    1.372   .     A
C394   C1364   1.440   1_554 S
Cu395  N403    2.028   .     S
Cu395  Cu396   2.698   .     S
Cu395  O408    1.959   .     S
Cu395  O409    1.953   .     S
Cu395  O412    1.956   .     S
Cu395  O405    1.961   .     S
Cu396  N404    2.028   .     S
Cu396  O406    1.961   .     S
Cu396  O407    1.959   .     S
Cu396  O411    1.956   .     S
Cu396  O410    1.953   .     S
H397   C437    1.087   .     S
O413   C414    1.414   .     S
C414   H416    1.117   .     S
C414   H415    1.105   .     S
C414   H417    1.108   .     S
O418   C419    1.414   .     S
C419   H420    1.115   .     S
C419   H422    1.109   .     S
C419   H907    1.110   .     S
H421   C1391   1.110   1_554 S
O423   C424    1.411   .     S
C424   H427    1.108   .     S
C424   H426    1.115   .     S
C424   H425    1.107   .     S
O428   C429    1.414   .     S
C429   H432    1.108   .     S
C429   H430    1.108   .     S
C429   H431    1.115   .     S
C433   O461    1.297   .     A
C433   C444    1.447   .     S
C433   O459    1.297   .     A
C434   O462    1.294   .     A
C434   C443    1.448   .     S
C434   O460    1.299   .     A
C435   C437    1.434   .     S
C435   O463    1.292   .     A
C435   O465    1.295   .     A
C436   O464    1.290   .     A
C436   O466    1.296   .     A
C436   C438    1.433   .     S
C438   C329    1.336   1_655 S
C438   H344    1.084   1_655 S
C439   C444    1.400   .     A
C439   H453    1.082   .     S
C440   H454    1.083   .     S
C440   C443    1.401   .     A
C440   C118    1.385   1_565 S
C441   C443    1.398   .     A
C441   H455    1.082   .     S
C441   C115    1.384   1_565 S
C442   C444    1.400   .     A
C442   H456    1.083   .     S
C445   O467    1.383   .     S
C445   N458    1.376   .     A
C445   C1419   1.430   1_554 S
C446   N457    1.370   .     A
C446   O472    1.382   .     S
C446   C934    1.440   .     S
C447   N457    1.374   .     A
C447   O477    1.383   .     S
C447   C931    1.430   .     S
C448   O482    1.386   .     S
C448   N458    1.372   .     A
C448   C1418   1.440   1_554 S
Cu449  N457    2.028   .     S
Cu449  Cu450   2.698   .     S
Cu449  O462    1.959   .     S
Cu449  O463    1.953   .     S
Cu449  O466    1.956   .     S
Cu449  O459    1.961   .     S
Cu450  N458    2.028   .     S
Cu450  O460    1.961   .     S
Cu450  O461    1.959   .     S
Cu450  O465    1.956   .     S
Cu450  O464    1.953   .     S
H451   C329    1.087   1_655 S
O467   C468    1.414   .     S
C468   H470    1.117   .     S
C468   H469    1.105   .     S
C468   H471    1.108   .     S
O472   C473    1.414   .     S
C473   H474    1.115   .     S
C473   H476    1.109   .     S
C473   H961    1.110   .     S
H475   C1445   1.110   1_554 S
O477   C478    1.411   .     S
C478   H481    1.108   .     S
C478   H480    1.115   .     S
C478   H479    1.107   .     S
O482   C483    1.414   .     S
C483   H486    1.108   .     S
C483   H484    1.108   .     S
C483   H485    1.115   .     S
C487   O515    1.297   .     A
C487   C498    1.447   .     S
C487   O513    1.297   .     A
C488   O516    1.294   .     A
C488   C497    1.448   .     S
C488   O514    1.299   .     A
C489   C491    1.434   .     S
C489   O517    1.292   .     A
C489   O519    1.295   .     A
C490   O518    1.290   .     A
C490   O520    1.296   .     A
C490   C492    1.433   .     S
C491   C600    1.336   1_455 S
C491   H613    1.087   1_455 S
C492   C545    1.336   .     S
C492   H560    1.084   .     S
C493   C498    1.400   .     A
C493   H507    1.082   .     S
C493   C819    1.384   1_545 S
C494   H508    1.083   .     S
C494   C497    1.401   .     A
C494   C658    1.385   .     S
C495   C497    1.398   .     A
C495   H509    1.082   .     S
C495   C655    1.384   .     S
C496   C498    1.400   .     A
C496   H510    1.083   .     S
C496   C818    1.385   1_545 S
C499   O521    1.383   .     S
C499   N512    1.376   .     A
C500   N511    1.370   .     A
C500   O526    1.382   .     S
C500   C988    1.440   .     S
C501   N511    1.374   .     A
C501   O531    1.383   .     S
C501   C985    1.430   .     S
C502   O536    1.386   .     S
C502   N512    1.372   .     A
Cu503  N511    2.028   .     S
Cu503  Cu504   2.698   .     S
Cu503  O516    1.959   .     S
Cu503  O517    1.953   .     S
Cu503  O520    1.956   .     S
Cu503  O513    1.961   .     S
Cu504  N512    2.028   .     S
Cu504  O514    1.961   .     S
Cu504  O515    1.959   .     S
Cu504  O519    1.956   .     S
Cu504  O518    1.953   .     S
H505   C545    1.087   .     S
H506   C600    1.084   1_455 S
O521   C522    1.414   .     S
C522   H524    1.117   .     S
C522   H523    1.105   .     S
C522   H525    1.108   .     S
O526   C527    1.414   .     S
C527   H528    1.115   .     S
C527   H530    1.109   .     S
C527   H1015   1.110   .     S
O531   C532    1.411   .     S
C532   H535    1.108   .     S
C532   H534    1.115   .     S
C532   H533    1.107   .     S
O536   C537    1.414   .     S
C537   H540    1.108   .     S
C537   H538    1.108   .     S
C537   H539    1.115   .     S
C541   O569    1.297   .     A
C541   C552    1.447   .     S
C541   O567    1.297   .     A
C542   O570    1.294   .     A
C542   C551    1.448   .     S
C542   O568    1.299   .     A
C543   C545    1.434   .     S
C543   O571    1.292   .     A
C543   O573    1.295   .     A
C544   O572    1.290   .     A
C544   O574    1.296   .     A
C544   C546    1.433   .     S
C546   C599    1.336   .     S
C546   H614    1.084   .     S
C547   C552    1.400   .     A
C547   H561    1.082   .     S
C547   C873    1.384   1_545 S
C548   H562    1.083   .     S
C548   C551    1.401   .     A
C548   C712    1.385   .     S
C549   C551    1.398   .     A
C549   H563    1.082   .     S
C549   C709    1.384   .     S
C550   C552    1.400   .     A
C550   H564    1.083   .     S
C550   C872    1.385   1_545 S
C553   O575    1.383   .     S
C553   N566    1.376   .     A
C554   N565    1.370   .     A
C554   O580    1.382   .     S
C554   C1042   1.440   .     S
C555   N565    1.374   .     A
C555   O585    1.383   .     S
C555   C1039   1.430   .     S
C556   O590    1.386   .     S
C556   N566    1.372   .     A
Cu557  N565    2.028   .     S
Cu557  Cu558   2.698   .     S
Cu557  O570    1.959   .     S
Cu557  O571    1.953   .     S
Cu557  O574    1.956   .     S
Cu557  O567    1.961   .     S
Cu558  N566    2.028   .     S
Cu558  O568    1.961   .     S
Cu558  O569    1.959   .     S
Cu558  O573    1.956   .     S
Cu558  O572    1.953   .     S
H559   C599    1.087   .     S
O575   C576    1.414   .     S
C576   H578    1.117   .     S
C576   H577    1.105   .     S
C576   H579    1.108   .     S
O580   C581    1.414   .     S
C581   H582    1.115   .     S
C581   H584    1.109   .     S
C581   H1069   1.110   .     S
O585   C586    1.411   .     S
C586   H589    1.108   .     S
C586   H588    1.115   .     S
C586   H587    1.107   .     S
O590   C591    1.414   .     S
C591   H594    1.108   .     S
C591   H592    1.108   .     S
C591   H593    1.115   .     S
C595   O623    1.297   .     A
C595   C606    1.447   .     S
C595   O621    1.297   .     A
C596   O624    1.294   .     A
C596   C605    1.448   .     S
C596   O622    1.299   .     A
C597   C599    1.434   .     S
C597   O625    1.292   .     A
C597   O627    1.295   .     A
C598   O626    1.290   .     A
C598   O628    1.296   .     A
C598   C600    1.433   .     S
C600   C491    1.336   1_655 S
C600   H506    1.084   1_655 S
C601   C606    1.400   .     A
C601   H615    1.082   .     S
C601   C927    1.384   1_545 S
C602   H616    1.083   .     S
C602   C605    1.401   .     A
C602   C766    1.385   .     S
C603   C605    1.398   .     A
C603   H617    1.082   .     S
C603   C763    1.384   .     S
C604   C606    1.400   .     A
C604   H618    1.083   .     S
C604   C926    1.385   1_545 S
C607   O629    1.383   .     S
C607   N620    1.376   .     A
C608   N619    1.370   .     A
C608   O634    1.382   .     S
C608   C1096   1.440   .     S
C609   N619    1.374   .     A
C609   O639    1.383   .     S
C609   C1093   1.430   .     S
C610   O644    1.386   .     S
C610   N620    1.372   .     A
Cu611  N619    2.028   .     S
Cu611  Cu612   2.698   .     S
Cu611  O624    1.959   .     S
Cu611  O625    1.953   .     S
Cu611  O628    1.956   .     S
Cu611  O621    1.961   .     S
Cu612  N620    2.028   .     S
Cu612  O622    1.961   .     S
Cu612  O623    1.959   .     S
Cu612  O627    1.956   .     S
Cu612  O626    1.953   .     S
H613   C491    1.087   1_655 S
O629   C630    1.414   .     S
C630   H632    1.117   .     S
C630   H631    1.105   .     S
C630   H633    1.108   .     S
O634   C635    1.414   .     S
C635   H636    1.115   .     S
C635   H638    1.109   .     S
C635   H1123   1.110   .     S
O639   C640    1.411   .     S
C640   H643    1.108   .     S
C640   H642    1.115   .     S
C640   H641    1.107   .     S
O644   C645    1.414   .     S
C645   H648    1.108   .     S
C645   H646    1.108   .     S
C645   H647    1.115   .     S
C649   O677    1.297   .     A
C649   C660    1.447   .     S
C649   O675    1.297   .     A
C650   O678    1.294   .     A
C650   C659    1.448   .     S
C650   O676    1.299   .     A
C651   C653    1.434   .     S
C651   O679    1.292   .     A
C651   O681    1.295   .     A
C652   O680    1.290   .     A
C652   O682    1.296   .     A
C652   C654    1.433   .     S
C653   C762    1.336   1_455 S
C653   H775    1.087   1_455 S
C654   C707    1.336   .     S
C654   H722    1.084   .     S
C655   C660    1.400   .     A
C655   H669    1.082   .     S
C656   H670    1.083   .     S
C656   C659    1.401   .     A
C656   C820    1.385   .     S
C657   C659    1.398   .     A
C657   H671    1.082   .     S
C657   C817    1.384   .     S
C658   C660    1.400   .     A
C658   H672    1.083   .     S
C661   O683    1.383   .     S
C661   N674    1.376   .     A
C662   N673    1.370   .     A
C662   O688    1.382   .     S
C662   C1150   1.440   .     S
C663   N673    1.374   .     A
C663   O693    1.383   .     S
C663   C1147   1.430   .     S
C664   O698    1.386   .     S
C664   N674    1.372   .     A
Cu665  N673    2.028   .     S
Cu665  Cu666   2.698   .     S
Cu665  O678    1.959   .     S
Cu665  O679    1.953   .     S
Cu665  O682    1.956   .     S
Cu665  O675    1.961   .     S
Cu666  N674    2.028   .     S
Cu666  O676    1.961   .     S
Cu666  O677    1.959   .     S
Cu666  O681    1.956   .     S
Cu666  O680    1.953   .     S
H667   C707    1.087   .     S
H668   C762    1.084   1_455 S
O683   C684    1.414   .     S
C684   H686    1.117   .     S
C684   H685    1.105   .     S
C684   H687    1.108   .     S
O688   C689    1.414   .     S
C689   H690    1.115   .     S
C689   H692    1.109   .     S
C689   H1177   1.110   .     S
O693   C694    1.411   .     S
C694   H697    1.108   .     S
C694   H696    1.115   .     S
C694   H695    1.107   .     S
O698   C699    1.414   .     S
C699   H702    1.108   .     S
C699   H700    1.108   .     S
C699   H701    1.115   .     S
C703   O731    1.297   .     A
C703   C714    1.447   .     S
C703   O729    1.297   .     A
C704   O732    1.294   .     A
C704   C713    1.448   .     S
C704   O730    1.299   .     A
C705   C707    1.434   .     S
C705   O733    1.292   .     A
C705   O735    1.295   .     A
C706   O734    1.290   .     A
C706   O736    1.296   .     A
C706   C708    1.433   .     S
C708   C761    1.336   .     S
C708   H776    1.084   .     S
C709   C714    1.400   .     A
C709   H723    1.082   .     S
C710   H724    1.083   .     S
C710   C713    1.401   .     A
C710   C874    1.385   .     S
C711   C713    1.398   .     A
C711   H725    1.082   .     S
C711   C871    1.384   .     S
C712   C714    1.400   .     A
C712   H726    1.083   .     S
C715   O737    1.383   .     S
C715   N728    1.376   .     A
C716   N727    1.370   .     A
C716   O742    1.382   .     S
C716   C1204   1.440   .     S
C717   N727    1.374   .     A
C717   O747    1.383   .     S
C717   C1201   1.430   .     S
C718   O752    1.386   .     S
C718   N728    1.372   .     A
Cu719  N727    2.028   .     S
Cu719  Cu720   2.698   .     S
Cu719  O732    1.959   .     S
Cu719  O733    1.953   .     S
Cu719  O736    1.956   .     S
Cu719  O729    1.961   .     S
Cu720  N728    2.028   .     S
Cu720  O730    1.961   .     S
Cu720  O731    1.959   .     S
Cu720  O735    1.956   .     S
Cu720  O734    1.953   .     S
H721   C761    1.087   .     S
O737   C738    1.414   .     S
C738   H740    1.117   .     S
C738   H739    1.105   .     S
C738   H741    1.108   .     S
O742   C743    1.414   .     S
C743   H744    1.115   .     S
C743   H746    1.109   .     S
C743   H1231   1.110   .     S
O747   C748    1.411   .     S
C748   H751    1.108   .     S
C748   H750    1.115   .     S
C748   H749    1.107   .     S
O752   C753    1.414   .     S
C753   H756    1.108   .     S
C753   H754    1.108   .     S
C753   H755    1.115   .     S
C757   O785    1.297   .     A
C757   C768    1.447   .     S
C757   O783    1.297   .     A
C758   O786    1.294   .     A
C758   C767    1.448   .     S
C758   O784    1.299   .     A
C759   C761    1.434   .     S
C759   O787    1.292   .     A
C759   O789    1.295   .     A
C760   O788    1.290   .     A
C760   O790    1.296   .     A
C760   C762    1.433   .     S
C762   C653    1.336   1_655 S
C762   H668    1.084   1_655 S
C763   C768    1.400   .     A
C763   H777    1.082   .     S
C764   H778    1.083   .     S
C764   C767    1.401   .     A
C764   C928    1.385   .     S
C765   C767    1.398   .     A
C765   H779    1.082   .     S
C765   C925    1.384   .     S
C766   C768    1.400   .     A
C766   H780    1.083   .     S
C769   O791    1.383   .     S
C769   N782    1.376   .     A
C770   N781    1.370   .     A
C770   O796    1.382   .     S
C770   C1258   1.440   .     S
C771   N781    1.374   .     A
C771   O801    1.383   .     S
C771   C1255   1.430   .     S
C772   O806    1.386   .     S
C772   N782    1.372   .     A
Cu773  N781    2.028   .     S
Cu773  Cu774   2.698   .     S
Cu773  O786    1.959   .     S
Cu773  O787    1.953   .     S
Cu773  O790    1.956   .     S
Cu773  O783    1.961   .     S
Cu774  N782    2.028   .     S
Cu774  O784    1.961   .     S
Cu774  O785    1.959   .     S
Cu774  O789    1.956   .     S
Cu774  O788    1.953   .     S
H775   C653    1.087   1_655 S
O791   C792    1.414   .     S
C792   H794    1.117   .     S
C792   H793    1.105   .     S
C792   H795    1.108   .     S
O796   C797    1.414   .     S
C797   H798    1.115   .     S
C797   H800    1.109   .     S
C797   H1285   1.110   .     S
O801   C802    1.411   .     S
C802   H805    1.108   .     S
C802   H804    1.115   .     S
C802   H803    1.107   .     S
O806   C807    1.414   .     S
C807   H810    1.108   .     S
C807   H808    1.108   .     S
C807   H809    1.115   .     S
C811   O839    1.297   .     A
C811   C822    1.447   .     S
C811   O837    1.297   .     A
C812   O840    1.294   .     A
C812   C821    1.448   .     S
C812   O838    1.299   .     A
C813   C815    1.434   .     S
C813   O841    1.292   .     A
C813   O843    1.295   .     A
C814   O842    1.290   .     A
C814   O844    1.296   .     A
C814   C816    1.433   .     S
C815   C924    1.336   1_455 S
C815   H937    1.087   1_455 S
C816   C869    1.336   .     S
C816   H884    1.084   .     S
C817   C822    1.400   .     A
C817   H831    1.082   .     S
C818   H832    1.083   .     S
C818   C821    1.401   .     A
C818   C496    1.385   1_565 S
C819   C821    1.398   .     A
C819   H833    1.082   .     S
C819   C493    1.384   1_565 S
C820   C822    1.400   .     A
C820   H834    1.083   .     S
C823   O845    1.383   .     S
C823   N836    1.376   .     A
C824   N835    1.370   .     A
C824   O850    1.382   .     S
C824   C1312   1.440   .     S
C825   N835    1.374   .     A
C825   O855    1.383   .     S
C825   C1309   1.430   .     S
C826   O860    1.386   .     S
C826   N836    1.372   .     A
Cu827  N835    2.028   .     S
Cu827  Cu828   2.698   .     S
Cu827  O840    1.959   .     S
Cu827  O841    1.953   .     S
Cu827  O844    1.956   .     S
Cu827  O837    1.961   .     S
Cu828  N836    2.028   .     S
Cu828  O838    1.961   .     S
Cu828  O839    1.959   .     S
Cu828  O843    1.956   .     S
Cu828  O842    1.953   .     S
H829   C869    1.087   .     S
H830   C924    1.084   1_455 S
O845   C846    1.414   .     S
C846   H848    1.117   .     S
C846   H847    1.105   .     S
C846   H849    1.108   .     S
O850   C851    1.414   .     S
C851   H852    1.115   .     S
C851   H854    1.109   .     S
C851   H1339   1.110   .     S
O855   C856    1.411   .     S
C856   H859    1.108   .     S
C856   H858    1.115   .     S
C856   H857    1.107   .     S
O860   C861    1.414   .     S
C861   H864    1.108   .     S
C861   H862    1.108   .     S
C861   H863    1.115   .     S
C865   O893    1.297   .     A
C865   C876    1.447   .     S
C865   O891    1.297   .     A
C866   O894    1.294   .     A
C866   C875    1.448   .     S
C866   O892    1.299   .     A
C867   C869    1.434   .     S
C867   O895    1.292   .     A
C867   O897    1.295   .     A
C868   O896    1.290   .     A
C868   O898    1.296   .     A
C868   C870    1.433   .     S
C870   C923    1.336   .     S
C870   H938    1.084   .     S
C871   C876    1.400   .     A
C871   H885    1.082   .     S
C872   H886    1.083   .     S
C872   C875    1.401   .     A
C872   C550    1.385   1_565 S
C873   C875    1.398   .     A
C873   H887    1.082   .     S
C873   C547    1.384   1_565 S
C874   C876    1.400   .     A
C874   H888    1.083   .     S
C877   O899    1.383   .     S
C877   N890    1.376   .     A
C878   N889    1.370   .     A
C878   O904    1.382   .     S
C878   C1366   1.440   .     S
C879   N889    1.374   .     A
C879   O909    1.383   .     S
C879   C1363   1.430   .     S
C880   O914    1.386   .     S
C880   N890    1.372   .     A
Cu881  N889    2.028   .     S
Cu881  Cu882   2.698   .     S
Cu881  O894    1.959   .     S
Cu881  O895    1.953   .     S
Cu881  O898    1.956   .     S
Cu881  O891    1.961   .     S
Cu882  N890    2.028   .     S
Cu882  O892    1.961   .     S
Cu882  O893    1.959   .     S
Cu882  O897    1.956   .     S
Cu882  O896    1.953   .     S
H883   C923    1.087   .     S
O899   C900    1.414   .     S
C900   H902    1.117   .     S
C900   H901    1.105   .     S
C900   H903    1.108   .     S
O904   C905    1.414   .     S
C905   H906    1.115   .     S
C905   H908    1.109   .     S
C905   H1393   1.110   .     S
O909   C910    1.411   .     S
C910   H913    1.108   .     S
C910   H912    1.115   .     S
C910   H911    1.107   .     S
O914   C915    1.414   .     S
C915   H918    1.108   .     S
C915   H916    1.108   .     S
C915   H917    1.115   .     S
C919   O947    1.297   .     A
C919   C930    1.447   .     S
C919   O945    1.297   .     A
C920   O948    1.294   .     A
C920   C929    1.448   .     S
C920   O946    1.299   .     A
C921   C923    1.434   .     S
C921   O949    1.292   .     A
C921   O951    1.295   .     A
C922   O950    1.290   .     A
C922   O952    1.296   .     A
C922   C924    1.433   .     S
C924   C815    1.336   1_655 S
C924   H830    1.084   1_655 S
C925   C930    1.400   .     A
C925   H939    1.082   .     S
C926   H940    1.083   .     S
C926   C929    1.401   .     A
C926   C604    1.385   1_565 S
C927   C929    1.398   .     A
C927   H941    1.082   .     S
C927   C601    1.384   1_565 S
C928   C930    1.400   .     A
C928   H942    1.083   .     S
C931   O953    1.383   .     S
C931   N944    1.376   .     A
C932   N943    1.370   .     A
C932   O958    1.382   .     S
C932   C1420   1.440   .     S
C933   N943    1.374   .     A
C933   O963    1.383   .     S
C933   C1417   1.430   .     S
C934   O968    1.386   .     S
C934   N944    1.372   .     A
Cu935  N943    2.028   .     S
Cu935  Cu936   2.698   .     S
Cu935  O948    1.959   .     S
Cu935  O949    1.953   .     S
Cu935  O952    1.956   .     S
Cu935  O945    1.961   .     S
Cu936  N944    2.028   .     S
Cu936  O946    1.961   .     S
Cu936  O947    1.959   .     S
Cu936  O951    1.956   .     S
Cu936  O950    1.953   .     S
H937   C815    1.087   1_655 S
O953   C954    1.414   .     S
C954   H956    1.117   .     S
C954   H955    1.105   .     S
C954   H957    1.108   .     S
O958   C959    1.414   .     S
C959   H960    1.115   .     S
C959   H962    1.109   .     S
C959   H1447   1.110   .     S
O963   C964    1.411   .     S
C964   H967    1.108   .     S
C964   H966    1.115   .     S
C964   H965    1.107   .     S
O968   C969    1.414   .     S
C969   H972    1.108   .     S
C969   H970    1.108   .     S
C969   H971    1.115   .     S
C973   O1001   1.297   .     A
C973   C984    1.447   .     S
C973   O999    1.297   .     A
C974   O1002   1.294   .     A
C974   C983    1.448   .     S
C974   O1000   1.299   .     A
C975   C977    1.434   .     S
C975   O1003   1.292   .     A
C975   O1005   1.295   .     A
C976   O1004   1.290   .     A
C976   O1006   1.296   .     A
C976   C978    1.433   .     S
C977   C1086   1.336   1_455 S
C977   H1099   1.087   1_455 S
C978   C1031   1.336   .     S
C978   H1046   1.084   .     S
C979   C984    1.400   .     A
C979   H993    1.082   .     S
C979   C1305   1.384   1_545 S
C980   H994    1.083   .     S
C980   C983    1.401   .     A
C980   C1144   1.385   .     S
C981   C983    1.398   .     A
C981   H995    1.082   .     S
C981   C1141   1.384   .     S
C982   C984    1.400   .     A
C982   H996    1.083   .     S
C982   C1304   1.385   1_545 S
C985   O1007   1.383   .     S
C985   N998    1.376   .     A
C986   N997    1.370   .     A
C986   O1012   1.382   .     S
C986   C16     1.440   1_556 S
C987   N997    1.374   .     A
C987   O1017   1.383   .     S
C987   C13     1.430   1_556 S
C988   O1022   1.386   .     S
C988   N998    1.372   .     A
Cu989  N997    2.028   .     S
Cu989  Cu990   2.698   .     S
Cu989  O1002   1.959   .     S
Cu989  O1003   1.953   .     S
Cu989  O1006   1.956   .     S
Cu989  O999    1.961   .     S
Cu990  N998    2.028   .     S
Cu990  O1000   1.961   .     S
Cu990  O1001   1.959   .     S
Cu990  O1005   1.956   .     S
Cu990  O1004   1.953   .     S
H991   C1031   1.087   .     S
H992   C1086   1.084   1_455 S
O1007  C1008   1.414   .     S
C1008  H1010   1.117   .     S
C1008  H1009   1.105   .     S
C1008  H1011   1.108   .     S
O1012  C1013   1.414   .     S
C1013  H1014   1.115   .     S
C1013  H1016   1.109   .     S
C1013  H43     1.110   1_556 S
O1017  C1018   1.411   .     S
C1018  H1021   1.108   .     S
C1018  H1020   1.115   .     S
C1018  H1019   1.107   .     S
O1022  C1023   1.414   .     S
C1023  H1026   1.108   .     S
C1023  H1024   1.108   .     S
C1023  H1025   1.115   .     S
C1027  O1055   1.297   .     A
C1027  C1038   1.447   .     S
C1027  O1053   1.297   .     A
C1028  O1056   1.294   .     A
C1028  C1037   1.448   .     S
C1028  O1054   1.299   .     A
C1029  C1031   1.434   .     S
C1029  O1057   1.292   .     A
C1029  O1059   1.295   .     A
C1030  O1058   1.290   .     A
C1030  O1060   1.296   .     A
C1030  C1032   1.433   .     S
C1032  C1085   1.336   .     S
C1032  H1100   1.084   .     S
C1033  C1038   1.400   .     A
C1033  H1047   1.082   .     S
C1033  C1359   1.384   1_545 S
C1034  H1048   1.083   .     S
C1034  C1037   1.401   .     A
C1034  C1198   1.385   .     S
C1035  C1037   1.398   .     A
C1035  H1049   1.082   .     S
C1035  C1195   1.384   .     S
C1036  C1038   1.400   .     A
C1036  H1050   1.083   .     S
C1036  C1358   1.385   1_545 S
C1039  O1061   1.383   .     S
C1039  N1052   1.376   .     A
C1040  N1051   1.370   .     A
C1040  O1066   1.382   .     S
C1040  C70     1.440   1_556 S
C1041  N1051   1.374   .     A
C1041  O1071   1.383   .     S
C1041  C67     1.430   1_556 S
C1042  O1076   1.386   .     S
C1042  N1052   1.372   .     A
Cu1043 N1051   2.028   .     S
Cu1043 Cu1044  2.698   .     S
Cu1043 O1056   1.959   .     S
Cu1043 O1057   1.953   .     S
Cu1043 O1060   1.956   .     S
Cu1043 O1053   1.961   .     S
Cu1044 N1052   2.028   .     S
Cu1044 O1054   1.961   .     S
Cu1044 O1055   1.959   .     S
Cu1044 O1059   1.956   .     S
Cu1044 O1058   1.953   .     S
H1045  C1085   1.087   .     S
O1061  C1062   1.414   .     S
C1062  H1064   1.117   .     S
C1062  H1063   1.105   .     S
C1062  H1065   1.108   .     S
O1066  C1067   1.414   .     S
C1067  H1068   1.115   .     S
C1067  H1070   1.109   .     S
C1067  H97     1.110   1_556 S
O1071  C1072   1.411   .     S
C1072  H1075   1.108   .     S
C1072  H1074   1.115   .     S
C1072  H1073   1.107   .     S
O1076  C1077   1.414   .     S
C1077  H1080   1.108   .     S
C1077  H1078   1.108   .     S
C1077  H1079   1.115   .     S
C1081  O1109   1.297   .     A
C1081  C1092   1.447   .     S
C1081  O1107   1.297   .     A
C1082  O1110   1.294   .     A
C1082  C1091   1.448   .     S
C1082  O1108   1.299   .     A
C1083  C1085   1.434   .     S
C1083  O1111   1.292   .     A
C1083  O1113   1.295   .     A
C1084  O1112   1.290   .     A
C1084  O1114   1.296   .     A
C1084  C1086   1.433   .     S
C1086  C977    1.336   1_655 S
C1086  H992    1.084   1_655 S
C1087  C1092   1.400   .     A
C1087  H1101   1.082   .     S
C1087  C1413   1.384   1_545 S
C1088  H1102   1.083   .     S
C1088  C1091   1.401   .     A
C1088  C1252   1.385   .     S
C1089  C1091   1.398   .     A
C1089  H1103   1.082   .     S
C1089  C1249   1.384   .     S
C1090  C1092   1.400   .     A
C1090  H1104   1.083   .     S
C1090  C1412   1.385   1_545 S
C1093  O1115   1.383   .     S
C1093  N1106   1.376   .     A
C1094  N1105   1.370   .     A
C1094  O1120   1.382   .     S
C1094  C124    1.440   1_556 S
C1095  N1105   1.374   .     A
C1095  O1125   1.383   .     S
C1095  C121    1.430   1_556 S
C1096  O1130   1.386   .     S
C1096  N1106   1.372   .     A
Cu1097 N1105   2.028   .     S
Cu1097 Cu1098  2.698   .     S
Cu1097 O1110   1.959   .     S
Cu1097 O1111   1.953   .     S
Cu1097 O1114   1.956   .     S
Cu1097 O1107   1.961   .     S
Cu1098 N1106   2.028   .     S
Cu1098 O1108   1.961   .     S
Cu1098 O1109   1.959   .     S
Cu1098 O1113   1.956   .     S
Cu1098 O1112   1.953   .     S
H1099  C977    1.087   1_655 S
O1115  C1116   1.414   .     S
C1116  H1118   1.117   .     S
C1116  H1117   1.105   .     S
C1116  H1119   1.108   .     S
O1120  C1121   1.414   .     S
C1121  H1122   1.115   .     S
C1121  H1124   1.109   .     S
C1121  H151    1.110   1_556 S
O1125  C1126   1.411   .     S
C1126  H1129   1.108   .     S
C1126  H1128   1.115   .     S
C1126  H1127   1.107   .     S
O1130  C1131   1.414   .     S
C1131  H1134   1.108   .     S
C1131  H1132   1.108   .     S
C1131  H1133   1.115   .     S
C1135  O1163   1.297   .     A
C1135  C1146   1.447   .     S
C1135  O1161   1.297   .     A
C1136  O1164   1.294   .     A
C1136  C1145   1.448   .     S
C1136  O1162   1.299   .     A
C1137  C1139   1.434   .     S
C1137  O1165   1.292   .     A
C1137  O1167   1.295   .     A
C1138  O1166   1.290   .     A
C1138  O1168   1.296   .     A
C1138  C1140   1.433   .     S
C1139  C1248   1.336   1_455 S
C1139  H1261   1.087   1_455 S
C1140  C1193   1.336   .     S
C1140  H1208   1.084   .     S
C1141  C1146   1.400   .     A
C1141  H1155   1.082   .     S
C1142  H1156   1.083   .     S
C1142  C1145   1.401   .     A
C1142  C1306   1.385   .     S
C1143  C1145   1.398   .     A
C1143  H1157   1.082   .     S
C1143  C1303   1.384   .     S
C1144  C1146   1.400   .     A
C1144  H1158   1.083   .     S
C1147  O1169   1.383   .     S
C1147  N1160   1.376   .     A
C1148  N1159   1.370   .     A
C1148  O1174   1.382   .     S
C1148  C178    1.440   1_556 S
C1149  N1159   1.374   .     A
C1149  O1179   1.383   .     S
C1149  C175    1.430   1_556 S
C1150  O1184   1.386   .     S
C1150  N1160   1.372   .     A
Cu1151 N1159   2.028   .     S
Cu1151 Cu1152  2.698   .     S
Cu1151 O1164   1.959   .     S
Cu1151 O1165   1.953   .     S
Cu1151 O1168   1.956   .     S
Cu1151 O1161   1.961   .     S
Cu1152 N1160   2.028   .     S
Cu1152 O1162   1.961   .     S
Cu1152 O1163   1.959   .     S
Cu1152 O1167   1.956   .     S
Cu1152 O1166   1.953   .     S
H1153  C1193   1.087   .     S
H1154  C1248   1.084   1_455 S
O1169  C1170   1.414   .     S
C1170  H1172   1.117   .     S
C1170  H1171   1.105   .     S
C1170  H1173   1.108   .     S
O1174  C1175   1.414   .     S
C1175  H1176   1.115   .     S
C1175  H1178   1.109   .     S
C1175  H205    1.110   1_556 S
O1179  C1180   1.411   .     S
C1180  H1183   1.108   .     S
C1180  H1182   1.115   .     S
C1180  H1181   1.107   .     S
O1184  C1185   1.414   .     S
C1185  H1188   1.108   .     S
C1185  H1186   1.108   .     S
C1185  H1187   1.115   .     S
C1189  O1217   1.297   .     A
C1189  C1200   1.447   .     S
C1189  O1215   1.297   .     A
C1190  O1218   1.294   .     A
C1190  C1199   1.448   .     S
C1190  O1216   1.299   .     A
C1191  C1193   1.434   .     S
C1191  O1219   1.292   .     A
C1191  O1221   1.295   .     A
C1192  O1220   1.290   .     A
C1192  O1222   1.296   .     A
C1192  C1194   1.433   .     S
C1194  C1247   1.336   .     S
C1194  H1262   1.084   .     S
C1195  C1200   1.400   .     A
C1195  H1209   1.082   .     S
C1196  H1210   1.083   .     S
C1196  C1199   1.401   .     A
C1196  C1360   1.385   .     S
C1197  C1199   1.398   .     A
C1197  H1211   1.082   .     S
C1197  C1357   1.384   .     S
C1198  C1200   1.400   .     A
C1198  H1212   1.083   .     S
C1201  O1223   1.383   .     S
C1201  N1214   1.376   .     A
C1202  N1213   1.370   .     A
C1202  O1228   1.382   .     S
C1202  C232    1.440   1_556 S
C1203  N1213   1.374   .     A
C1203  O1233   1.383   .     S
C1203  C229    1.430   1_556 S
C1204  O1238   1.386   .     S
C1204  N1214   1.372   .     A
Cu1205 N1213   2.028   .     S
Cu1205 Cu1206  2.698   .     S
Cu1205 O1218   1.959   .     S
Cu1205 O1219   1.953   .     S
Cu1205 O1222   1.956   .     S
Cu1205 O1215   1.961   .     S
Cu1206 N1214   2.028   .     S
Cu1206 O1216   1.961   .     S
Cu1206 O1217   1.959   .     S
Cu1206 O1221   1.956   .     S
Cu1206 O1220   1.953   .     S
H1207  C1247   1.087   .     S
O1223  C1224   1.414   .     S
C1224  H1226   1.117   .     S
C1224  H1225   1.105   .     S
C1224  H1227   1.108   .     S
O1228  C1229   1.414   .     S
C1229  H1230   1.115   .     S
C1229  H1232   1.109   .     S
C1229  H259    1.110   1_556 S
O1233  C1234   1.411   .     S
C1234  H1237   1.108   .     S
C1234  H1236   1.115   .     S
C1234  H1235   1.107   .     S
O1238  C1239   1.414   .     S
C1239  H1242   1.108   .     S
C1239  H1240   1.108   .     S
C1239  H1241   1.115   .     S
C1243  O1271   1.297   .     A
C1243  C1254   1.447   .     S
C1243  O1269   1.297   .     A
C1244  O1272   1.294   .     A
C1244  C1253   1.448   .     S
C1244  O1270   1.299   .     A
C1245  C1247   1.434   .     S
C1245  O1273   1.292   .     A
C1245  O1275   1.295   .     A
C1246  O1274   1.290   .     A
C1246  O1276   1.296   .     A
C1246  C1248   1.433   .     S
C1248  C1139   1.336   1_655 S
C1248  H1154   1.084   1_655 S
C1249  C1254   1.400   .     A
C1249  H1263   1.082   .     S
C1250  H1264   1.083   .     S
C1250  C1253   1.401   .     A
C1250  C1414   1.385   .     S
C1251  C1253   1.398   .     A
C1251  H1265   1.082   .     S
C1251  C1411   1.384   .     S
C1252  C1254   1.400   .     A
C1252  H1266   1.083   .     S
C1255  O1277   1.383   .     S
C1255  N1268   1.376   .     A
C1256  N1267   1.370   .     A
C1256  O1282   1.382   .     S
C1256  C286    1.440   1_556 S
C1257  N1267   1.374   .     A
C1257  O1287   1.383   .     S
C1257  C283    1.430   1_556 S
C1258  O1292   1.386   .     S
C1258  N1268   1.372   .     A
Cu1259 N1267   2.028   .     S
Cu1259 Cu1260  2.698   .     S
Cu1259 O1272   1.959   .     S
Cu1259 O1273   1.953   .     S
Cu1259 O1276   1.956   .     S
Cu1259 O1269   1.961   .     S
Cu1260 N1268   2.028   .     S
Cu1260 O1270   1.961   .     S
Cu1260 O1271   1.959   .     S
Cu1260 O1275   1.956   .     S
Cu1260 O1274   1.953   .     S
H1261  C1139   1.087   1_655 S
O1277  C1278   1.414   .     S
C1278  H1280   1.117   .     S
C1278  H1279   1.105   .     S
C1278  H1281   1.108   .     S
O1282  C1283   1.414   .     S
C1283  H1284   1.115   .     S
C1283  H1286   1.109   .     S
C1283  H313    1.110   1_556 S
O1287  C1288   1.411   .     S
C1288  H1291   1.108   .     S
C1288  H1290   1.115   .     S
C1288  H1289   1.107   .     S
O1292  C1293   1.414   .     S
C1293  H1296   1.108   .     S
C1293  H1294   1.108   .     S
C1293  H1295   1.115   .     S
C1297  O1325   1.297   .     A
C1297  C1308   1.447   .     S
C1297  O1323   1.297   .     A
C1298  O1326   1.294   .     A
C1298  C1307   1.448   .     S
C1298  O1324   1.299   .     A
C1299  C1301   1.434   .     S
C1299  O1327   1.292   .     A
C1299  O1329   1.295   .     A
C1300  O1328   1.290   .     A
C1300  O1330   1.296   .     A
C1300  C1302   1.433   .     S
C1301  C1410   1.336   1_455 S
C1301  H1423   1.087   1_455 S
C1302  C1355   1.336   .     S
C1302  H1370   1.084   .     S
C1303  C1308   1.400   .     A
C1303  H1317   1.082   .     S
C1304  H1318   1.083   .     S
C1304  C1307   1.401   .     A
C1304  C982    1.385   1_565 S
C1305  C1307   1.398   .     A
C1305  H1319   1.082   .     S
C1305  C979    1.384   1_565 S
C1306  C1308   1.400   .     A
C1306  H1320   1.083   .     S
C1309  O1331   1.383   .     S
C1309  N1322   1.376   .     A
C1310  N1321   1.370   .     A
C1310  O1336   1.382   .     S
C1310  C340    1.440   1_556 S
C1311  N1321   1.374   .     A
C1311  O1341   1.383   .     S
C1311  C337    1.430   1_556 S
C1312  O1346   1.386   .     S
C1312  N1322   1.372   .     A
Cu1313 N1321   2.028   .     S
Cu1313 Cu1314  2.698   .     S
Cu1313 O1326   1.959   .     S
Cu1313 O1327   1.953   .     S
Cu1313 O1330   1.956   .     S
Cu1313 O1323   1.961   .     S
Cu1314 N1322   2.028   .     S
Cu1314 O1324   1.961   .     S
Cu1314 O1325   1.959   .     S
Cu1314 O1329   1.956   .     S
Cu1314 O1328   1.953   .     S
H1315  C1355   1.087   .     S
H1316  C1410   1.084   1_455 S
O1331  C1332   1.414   .     S
C1332  H1334   1.117   .     S
C1332  H1333   1.105   .     S
C1332  H1335   1.108   .     S
O1336  C1337   1.414   .     S
C1337  H1338   1.115   .     S
C1337  H1340   1.109   .     S
C1337  H367    1.110   1_556 S
O1341  C1342   1.411   .     S
C1342  H1345   1.108   .     S
C1342  H1344   1.115   .     S
C1342  H1343   1.107   .     S
O1346  C1347   1.414   .     S
C1347  H1350   1.108   .     S
C1347  H1348   1.108   .     S
C1347  H1349   1.115   .     S
C1351  O1379   1.297   .     A
C1351  C1362   1.447   .     S
C1351  O1377   1.297   .     A
C1352  O1380   1.294   .     A
C1352  C1361   1.448   .     S
C1352  O1378   1.299   .     A
C1353  C1355   1.434   .     S
C1353  O1381   1.292   .     A
C1353  O1383   1.295   .     A
C1354  O1382   1.290   .     A
C1354  O1384   1.296   .     A
C1354  C1356   1.433   .     S
C1356  C1409   1.336   .     S
C1356  H1424   1.084   .     S
C1357  C1362   1.400   .     A
C1357  H1371   1.082   .     S
C1358  H1372   1.083   .     S
C1358  C1361   1.401   .     A
C1358  C1036   1.385   1_565 S
C1359  C1361   1.398   .     A
C1359  H1373   1.082   .     S
C1359  C1033   1.384   1_565 S
C1360  C1362   1.400   .     A
C1360  H1374   1.083   .     S
C1363  O1385   1.383   .     S
C1363  N1376   1.376   .     A
C1364  N1375   1.370   .     A
C1364  O1390   1.382   .     S
C1364  C394    1.440   1_556 S
C1365  N1375   1.374   .     A
C1365  O1395   1.383   .     S
C1365  C391    1.430   1_556 S
C1366  O1400   1.386   .     S
C1366  N1376   1.372   .     A
Cu1367 N1375   2.028   .     S
Cu1367 Cu1368  2.698   .     S
Cu1367 O1380   1.959   .     S
Cu1367 O1381   1.953   .     S
Cu1367 O1384   1.956   .     S
Cu1367 O1377   1.961   .     S
Cu1368 N1376   2.028   .     S
Cu1368 O1378   1.961   .     S
Cu1368 O1379   1.959   .     S
Cu1368 O1383   1.956   .     S
Cu1368 O1382   1.953   .     S
H1369  C1409   1.087   .     S
O1385  C1386   1.414   .     S
C1386  H1388   1.117   .     S
C1386  H1387   1.105   .     S
C1386  H1389   1.108   .     S
O1390  C1391   1.414   .     S
C1391  H1392   1.115   .     S
C1391  H1394   1.109   .     S
C1391  H421    1.110   1_556 S
O1395  C1396   1.411   .     S
C1396  H1399   1.108   .     S
C1396  H1398   1.115   .     S
C1396  H1397   1.107   .     S
O1400  C1401   1.414   .     S
C1401  H1404   1.108   .     S
C1401  H1402   1.108   .     S
C1401  H1403   1.115   .     S
C1405  O1433   1.297   .     A
C1405  C1416   1.447   .     S
C1405  O1431   1.297   .     A
C1406  O1434   1.294   .     A
C1406  C1415   1.448   .     S
C1406  O1432   1.299   .     A
C1407  C1409   1.434   .     S
C1407  O1435   1.292   .     A
C1407  O1437   1.295   .     A
C1408  O1436   1.290   .     A
C1408  O1438   1.296   .     A
C1408  C1410   1.433   .     S
C1410  C1301   1.336   1_655 S
C1410  H1316   1.084   1_655 S
C1411  C1416   1.400   .     A
C1411  H1425   1.082   .     S
C1412  H1426   1.083   .     S
C1412  C1415   1.401   .     A
C1412  C1090   1.385   1_565 S
C1413  C1415   1.398   .     A
C1413  H1427   1.082   .     S
C1413  C1087   1.384   1_565 S
C1414  C1416   1.400   .     A
C1414  H1428   1.083   .     S
C1417  O1439   1.383   .     S
C1417  N1430   1.376   .     A
C1418  N1429   1.370   .     A
C1418  O1444   1.382   .     S
C1418  C448    1.440   1_556 S
C1419  N1429   1.374   .     A
C1419  O1449   1.383   .     S
C1419  C445    1.430   1_556 S
C1420  O1454   1.386   .     S
C1420  N1430   1.372   .     A
Cu1421 N1429   2.028   .     S
Cu1421 Cu1422  2.698   .     S
Cu1421 O1434   1.959   .     S
Cu1421 O1435   1.953   .     S
Cu1421 O1438   1.956   .     S
Cu1421 O1431   1.961   .     S
Cu1422 N1430   2.028   .     S
Cu1422 O1432   1.961   .     S
Cu1422 O1433   1.959   .     S
Cu1422 O1437   1.956   .     S
Cu1422 O1436   1.953   .     S
H1423  C1301   1.087   1_655 S
O1439  C1440   1.414   .     S
C1440  H1442   1.117   .     S
C1440  H1441   1.105   .     S
C1440  H1443   1.108   .     S
O1444  C1445   1.414   .     S
C1445  H1446   1.115   .     S
C1445  H1448   1.109   .     S
C1445  H475    1.110   1_556 S
O1449  C1450   1.411   .     S
C1450  H1453   1.108   .     S
C1450  H1452   1.115   .     S
C1450  H1451   1.107   .     S
O1454  C1455   1.414   .     S
C1455  H1458   1.108   .     S
C1455  H1456   1.108   .     S
C1455  H1457   1.115   .     S
