data_str_m2_o1_o5_pcu_sym.80
_audit_creation_date              2020-01-03
_audit_creation_method            'Materials Studio'
_symmetry_space_group_name_H-M    'P1'
_symmetry_Int_Tables_number       1
_symmetry_cell_setting            triclinic
loop_
_symmetry_equiv_pos_as_xyz
  x,y,z
_cell_length_a                    32.7170
_cell_length_b                    28.6026
_cell_length_c                    27.2432
_cell_angle_alpha                 89.9732
_cell_angle_beta                  90.4574
_cell_angle_gamma                 89.7214
loop_
_atom_site_label
_atom_site_type_symbol
_atom_site_fract_x
_atom_site_fract_y
_atom_site_fract_z
_atom_site_U_iso_or_equiv
_atom_site_adp_type
_atom_site_occupancy
C1     C     0.08751   0.16689   0.16609   0.00000  Uiso   1.00
C2     C     0.02139   0.20754   0.17990   0.00000  Uiso   1.00
C3     C     0.29097   0.16682   0.16544   0.00000  Uiso   1.00
C4     C     0.04308   0.16758   0.16451   0.00000  Uiso   1.00
C5     C     0.14595   0.02491   0.13130   0.00000  Uiso   1.00
C6     C     0.18721   0.30843   0.20217   0.00000  Uiso   1.00
C7     C     0.18678   0.02462   0.20250   0.00000  Uiso   1.00
C8     C     0.14580   0.30869   0.13141   0.00000  Uiso   1.00
C9     C     0.05280   0.11010   0.07439   0.00000  Uiso   1.00
C10    C     0.05182   0.07074   0.03660   0.00000  Uiso   1.00
C11    C     0.07434   0.08443   0.32321   0.00000  Uiso   1.00
C12    C     0.24608   0.16661   0.16637   0.00000  Uiso   1.00
C13    C     0.28423   0.26838   0.12730   0.00000  Uiso   1.00
C14    C     0.32182   0.28775   0.10119   0.00000  Uiso   1.00
C15    C     0.30986   0.30747   0.05121   0.00000  Uiso   1.00
C16    C     0.28854   0.06064   0.19429   0.00000  Uiso   1.00
C17    C     0.32806   0.04385   0.21950   0.00000  Uiso   1.00
C18    C     0.31785   0.01542   0.26508   0.00000  Uiso   1.00
C19    C     0.04973   0.24359   0.24639   0.00000  Uiso   1.00
C20    C     0.08297   0.27873   0.26021   0.00000  Uiso   1.00
C21    C     0.09288   0.27745   0.31503   0.00000  Uiso   1.00
C22    C     0.16675   0.16668   0.07354   0.00000  Uiso   1.00
C23    C     0.16668   0.16667   0.25979   0.00000  Uiso   1.00
C24    C     0.16681   0.16670   0.02184   0.00000  Uiso   1.00
C25    C     0.16679   0.16668   0.31149   0.00000  Uiso   1.00
C26    C     0.02168   0.12847   0.14680   0.00000  Uiso   1.00
C27    C     0.31259   0.20915   0.17305   0.00000  Uiso   1.00
C28    C     0.31331   0.12539   0.15530   0.00000  Uiso   1.00
Cu29   Cu    0.16667   0.21355   0.16667   0.00000  Uiso   1.00
Cu30   Cu    0.16667   0.11978   0.16667   0.00000  Uiso   1.00
H31    H     0.08444   0.12361   0.07712   0.00000  Uiso   1.00
H32    H     0.00275   0.31572   0.12348   0.00000  Uiso   1.00
H33    H     0.01136   0.25949   0.09555   0.00000  Uiso   1.00
H34    H     0.28950   0.00506   0.05542   0.00000  Uiso   1.00
H35    H     0.29425   0.28056   0.02854   0.00000  Uiso   1.00
H36    H     0.00455   0.31816   0.03206   0.00000  Uiso   1.00
H37    H     0.26913   0.02967   0.18738   0.00000  Uiso   1.00
H38    H     0.27169   0.08367   0.22020   0.00000  Uiso   1.00
H39    H     0.01309   0.02212   0.19417   0.00000  Uiso   1.00
H40    H     0.01338   0.07434   0.23101   0.00000  Uiso   1.00
H41    H     0.29911   0.03657   0.29074   0.00000  Uiso   1.00
H42    H     0.03267   0.13889   0.06020   0.00000  Uiso   1.00
H43    H     0.01305   0.00516   0.28421   0.00000  Uiso   1.00
H44    H     0.30083   0.31666   0.25482   0.00000  Uiso   1.00
H45    H     0.06097   0.20800   0.25689   0.00000  Uiso   1.00
H46    H     0.02148   0.25137   0.26739   0.00000  Uiso   1.00
H47    H     0.11110   0.27045   0.23963   0.00000  Uiso   1.00
H48    H     0.07331   0.31452   0.24940   0.00000  Uiso   1.00
H49    H     0.10410   0.24221   0.32586   0.00000  Uiso   1.00
H50    H     0.06536   0.28609   0.00338   0.00000  Uiso   1.00
H51    H     0.11701   0.30344   0.32359   0.00000  Uiso   1.00
H52    H     0.12939   0.04363   0.10293   0.00000  Uiso   1.00
H53    H     0.06617   0.03866   0.05221   0.00000  Uiso   1.00
H54    H     0.20389   0.28975   0.23052   0.00000  Uiso   1.00
H55    H     0.20282   0.04308   0.23135   0.00000  Uiso   1.00
H56    H     0.12895   0.29021   0.10320   0.00000  Uiso   1.00
H57    H     0.01946   0.06323   0.02720   0.00000  Uiso   1.00
H58    H     0.06058   0.11648   0.30684   0.00000  Uiso   1.00
H59    H     0.07235   0.05570   0.29603   0.00000  Uiso   1.00
H60    H     0.10713   0.09068   0.33150   0.00000  Uiso   1.00
H61    H     0.26106   0.29671   0.13037   0.00000  Uiso   1.00
H62    H     0.27021   0.24077   0.10382   0.00000  Uiso   1.00
N63    N     0.16667   0.28402   0.16667   0.00000  Uiso   1.00
N64    N     0.16667   0.04931   0.16667   0.00000  Uiso   1.00
O65    O     0.10655   0.20625   0.16666   0.00000  Uiso   1.00
O66    O     0.29340   0.25237   0.17555   0.00000  Uiso   1.00
O67    O     0.29489   0.08248   0.14820   0.00000  Uiso   1.00
O68    O     0.04137   0.24746   0.19553   0.00000  Uiso   1.00
O69    O     0.22679   0.12709   0.16667   0.00000  Uiso   1.00
O70    O     0.22679   0.20625   0.16667   0.00000  Uiso   1.00
O71    O     0.10655   0.12709   0.16666   0.00000  Uiso   1.00
O72    O     0.16667   0.20625   0.09613   0.00000  Uiso   1.00
O73    O     0.16667   0.12708   0.23720   0.00000  Uiso   1.00
O74    O     0.16667   0.20625   0.23720   0.00000  Uiso   1.00
O75    O     0.16667   0.12708   0.09613   0.00000  Uiso   1.00
O76    O     0.04062   0.09281   0.12091   0.00000  Uiso   1.00
C77    C     0.42084   0.16689   0.16609   0.00000  Uiso   1.00
C78    C     0.35472   0.20754   0.17990   0.00000  Uiso   1.00
C79    C     0.62430   0.16682   0.16544   0.00000  Uiso   1.00
C80    C     0.37642   0.16758   0.16451   0.00000  Uiso   1.00
C81    C     0.47929   0.02491   0.13130   0.00000  Uiso   1.00
C82    C     0.52055   0.30843   0.20217   0.00000  Uiso   1.00
C83    C     0.52011   0.02462   0.20250   0.00000  Uiso   1.00
C84    C     0.47913   0.30869   0.13141   0.00000  Uiso   1.00
C85    C     0.38613   0.11010   0.07439   0.00000  Uiso   1.00
C86    C     0.38516   0.07074   0.03660   0.00000  Uiso   1.00
C87    C     0.40767   0.08443   0.32321   0.00000  Uiso   1.00
C88    C     0.57942   0.16661   0.16637   0.00000  Uiso   1.00
C89    C     0.61757   0.26838   0.12730   0.00000  Uiso   1.00
C90    C     0.65515   0.28775   0.10119   0.00000  Uiso   1.00
C91    C     0.64319   0.30747   0.05121   0.00000  Uiso   1.00
C92    C     0.62187   0.06064   0.19429   0.00000  Uiso   1.00
C93    C     0.66140   0.04385   0.21950   0.00000  Uiso   1.00
C94    C     0.65118   0.01542   0.26508   0.00000  Uiso   1.00
C95    C     0.38306   0.24359   0.24639   0.00000  Uiso   1.00
C96    C     0.41631   0.27873   0.26021   0.00000  Uiso   1.00
C97    C     0.42621   0.27745   0.31503   0.00000  Uiso   1.00
C98    C     0.50009   0.16668   0.07354   0.00000  Uiso   1.00
C99    C     0.50002   0.16667   0.25979   0.00000  Uiso   1.00
C100   C     0.50014   0.16670   0.02184   0.00000  Uiso   1.00
C101   C     0.50013   0.16668   0.31149   0.00000  Uiso   1.00
C102   C     0.35502   0.12847   0.14680   0.00000  Uiso   1.00
C103   C     0.64592   0.20915   0.17305   0.00000  Uiso   1.00
C104   C     0.64664   0.12539   0.15530   0.00000  Uiso   1.00
Cu105  Cu    0.50000   0.21355   0.16667   0.00000  Uiso   1.00
Cu106  Cu    0.50000   0.11978   0.16667   0.00000  Uiso   1.00
H107   H     0.41777   0.12361   0.07712   0.00000  Uiso   1.00
H108   H     0.33608   0.31572   0.12348   0.00000  Uiso   1.00
H109   H     0.34470   0.25949   0.09555   0.00000  Uiso   1.00
H110   H     0.62284   0.00506   0.05542   0.00000  Uiso   1.00
H111   H     0.62758   0.28056   0.02854   0.00000  Uiso   1.00
H112   H     0.33788   0.31816   0.03206   0.00000  Uiso   1.00
H113   H     0.60246   0.02967   0.18738   0.00000  Uiso   1.00
H114   H     0.60503   0.08367   0.22020   0.00000  Uiso   1.00
H115   H     0.34643   0.02212   0.19417   0.00000  Uiso   1.00
H116   H     0.34672   0.07434   0.23101   0.00000  Uiso   1.00
H117   H     0.63244   0.03657   0.29074   0.00000  Uiso   1.00
H118   H     0.36600   0.13889   0.06020   0.00000  Uiso   1.00
H119   H     0.34639   0.00516   0.28421   0.00000  Uiso   1.00
H120   H     0.63417   0.31666   0.25482   0.00000  Uiso   1.00
H121   H     0.39430   0.20800   0.25689   0.00000  Uiso   1.00
H122   H     0.35482   0.25137   0.26739   0.00000  Uiso   1.00
H123   H     0.44444   0.27045   0.23963   0.00000  Uiso   1.00
H124   H     0.40665   0.31452   0.24940   0.00000  Uiso   1.00
H125   H     0.43743   0.24221   0.32586   0.00000  Uiso   1.00
H126   H     0.39869   0.28609   0.00338   0.00000  Uiso   1.00
H127   H     0.45034   0.30344   0.32359   0.00000  Uiso   1.00
H128   H     0.46272   0.04363   0.10293   0.00000  Uiso   1.00
H129   H     0.39950   0.03866   0.05221   0.00000  Uiso   1.00
H130   H     0.53722   0.28975   0.23052   0.00000  Uiso   1.00
H131   H     0.53616   0.04308   0.23135   0.00000  Uiso   1.00
H132   H     0.46228   0.29021   0.10320   0.00000  Uiso   1.00
H133   H     0.35279   0.06323   0.02720   0.00000  Uiso   1.00
H134   H     0.39391   0.11648   0.30684   0.00000  Uiso   1.00
H135   H     0.40568   0.05570   0.29603   0.00000  Uiso   1.00
H136   H     0.44046   0.09068   0.33150   0.00000  Uiso   1.00
H137   H     0.59439   0.29671   0.13037   0.00000  Uiso   1.00
H138   H     0.60354   0.24077   0.10382   0.00000  Uiso   1.00
N139   N     0.50000   0.28402   0.16667   0.00000  Uiso   1.00
N140   N     0.50000   0.04931   0.16667   0.00000  Uiso   1.00
O141   O     0.43988   0.20625   0.16666   0.00000  Uiso   1.00
O142   O     0.62674   0.25237   0.17555   0.00000  Uiso   1.00
O143   O     0.62822   0.08248   0.14820   0.00000  Uiso   1.00
O144   O     0.37470   0.24746   0.19553   0.00000  Uiso   1.00
O145   O     0.56012   0.12709   0.16667   0.00000  Uiso   1.00
O146   O     0.56012   0.20625   0.16667   0.00000  Uiso   1.00
O147   O     0.43988   0.12709   0.16666   0.00000  Uiso   1.00
O148   O     0.50000   0.20625   0.09613   0.00000  Uiso   1.00
O149   O     0.50000   0.12708   0.23720   0.00000  Uiso   1.00
O150   O     0.50000   0.20625   0.23720   0.00000  Uiso   1.00
O151   O     0.50000   0.12708   0.09613   0.00000  Uiso   1.00
O152   O     0.37395   0.09281   0.12091   0.00000  Uiso   1.00
C153   C     0.75417   0.16689   0.16609   0.00000  Uiso   1.00
C154   C     0.68806   0.20754   0.17990   0.00000  Uiso   1.00
C155   C     0.95764   0.16682   0.16544   0.00000  Uiso   1.00
C156   C     0.70975   0.16758   0.16451   0.00000  Uiso   1.00
C157   C     0.81262   0.02491   0.13130   0.00000  Uiso   1.00
C158   C     0.85388   0.30843   0.20217   0.00000  Uiso   1.00
C159   C     0.85344   0.02462   0.20250   0.00000  Uiso   1.00
C160   C     0.81246   0.30869   0.13141   0.00000  Uiso   1.00
C161   C     0.71946   0.11010   0.07439   0.00000  Uiso   1.00
C162   C     0.71849   0.07074   0.03660   0.00000  Uiso   1.00
C163   C     0.74101   0.08443   0.32321   0.00000  Uiso   1.00
C164   C     0.91275   0.16661   0.16637   0.00000  Uiso   1.00
C165   C     0.95090   0.26838   0.12730   0.00000  Uiso   1.00
C166   C     0.98848   0.28775   0.10119   0.00000  Uiso   1.00
C167   C     0.97653   0.30747   0.05121   0.00000  Uiso   1.00
C168   C     0.95521   0.06064   0.19429   0.00000  Uiso   1.00
C169   C     0.99473   0.04385   0.21950   0.00000  Uiso   1.00
C170   C     0.98451   0.01542   0.26508   0.00000  Uiso   1.00
C171   C     0.71639   0.24359   0.24639   0.00000  Uiso   1.00
C172   C     0.74964   0.27873   0.26021   0.00000  Uiso   1.00
C173   C     0.75954   0.27745   0.31503   0.00000  Uiso   1.00
C174   C     0.83342   0.16668   0.07354   0.00000  Uiso   1.00
C175   C     0.83335   0.16667   0.25979   0.00000  Uiso   1.00
C176   C     0.83348   0.16670   0.02184   0.00000  Uiso   1.00
C177   C     0.83346   0.16668   0.31149   0.00000  Uiso   1.00
C178   C     0.68835   0.12847   0.14680   0.00000  Uiso   1.00
C179   C     0.97925   0.20915   0.17305   0.00000  Uiso   1.00
C180   C     0.97997   0.12539   0.15530   0.00000  Uiso   1.00
Cu181  Cu    0.83333   0.21355   0.16667   0.00000  Uiso   1.00
Cu182  Cu    0.83333   0.11978   0.16667   0.00000  Uiso   1.00
H183   H     0.75111   0.12361   0.07712   0.00000  Uiso   1.00
H184   H     0.66942   0.31572   0.12348   0.00000  Uiso   1.00
H185   H     0.67803   0.25949   0.09555   0.00000  Uiso   1.00
H186   H     0.95617   0.00506   0.05542   0.00000  Uiso   1.00
H187   H     0.96091   0.28056   0.02854   0.00000  Uiso   1.00
H188   H     0.67121   0.31816   0.03206   0.00000  Uiso   1.00
H189   H     0.93579   0.02967   0.18738   0.00000  Uiso   1.00
H190   H     0.93836   0.08367   0.22020   0.00000  Uiso   1.00
H191   H     0.67976   0.02212   0.19417   0.00000  Uiso   1.00
H192   H     0.68005   0.07434   0.23101   0.00000  Uiso   1.00
H193   H     0.96577   0.03657   0.29074   0.00000  Uiso   1.00
H194   H     0.69933   0.13889   0.06020   0.00000  Uiso   1.00
H195   H     0.67972   0.00516   0.28421   0.00000  Uiso   1.00
H196   H     0.96750   0.31666   0.25482   0.00000  Uiso   1.00
H197   H     0.72763   0.20800   0.25689   0.00000  Uiso   1.00
H198   H     0.68815   0.25137   0.26739   0.00000  Uiso   1.00
H199   H     0.77777   0.27045   0.23963   0.00000  Uiso   1.00
H200   H     0.73998   0.31452   0.24940   0.00000  Uiso   1.00
H201   H     0.77076   0.24221   0.32586   0.00000  Uiso   1.00
H202   H     0.73203   0.28609   0.00338   0.00000  Uiso   1.00
H203   H     0.78367   0.30344   0.32359   0.00000  Uiso   1.00
H204   H     0.79605   0.04363   0.10293   0.00000  Uiso   1.00
H205   H     0.73284   0.03866   0.05221   0.00000  Uiso   1.00
H206   H     0.87056   0.28975   0.23052   0.00000  Uiso   1.00
H207   H     0.86949   0.04308   0.23135   0.00000  Uiso   1.00
H208   H     0.79561   0.29021   0.10320   0.00000  Uiso   1.00
H209   H     0.68613   0.06323   0.02720   0.00000  Uiso   1.00
H210   H     0.72724   0.11648   0.30684   0.00000  Uiso   1.00
H211   H     0.73902   0.05570   0.29603   0.00000  Uiso   1.00
H212   H     0.77379   0.09068   0.33150   0.00000  Uiso   1.00
H213   H     0.92773   0.29671   0.13037   0.00000  Uiso   1.00
H214   H     0.93688   0.24077   0.10382   0.00000  Uiso   1.00
N215   N     0.83333   0.28402   0.16667   0.00000  Uiso   1.00
N216   N     0.83333   0.04931   0.16667   0.00000  Uiso   1.00
O217   O     0.77321   0.20625   0.16666   0.00000  Uiso   1.00
O218   O     0.96007   0.25237   0.17555   0.00000  Uiso   1.00
O219   O     0.96156   0.08248   0.14820   0.00000  Uiso   1.00
O220   O     0.70803   0.24746   0.19553   0.00000  Uiso   1.00
O221   O     0.89345   0.12709   0.16667   0.00000  Uiso   1.00
O222   O     0.89345   0.20625   0.16667   0.00000  Uiso   1.00
O223   O     0.77321   0.12709   0.16666   0.00000  Uiso   1.00
O224   O     0.83333   0.20625   0.09613   0.00000  Uiso   1.00
O225   O     0.83333   0.12708   0.23720   0.00000  Uiso   1.00
O226   O     0.83333   0.20625   0.23720   0.00000  Uiso   1.00
O227   O     0.83333   0.12708   0.09613   0.00000  Uiso   1.00
O228   O     0.70728   0.09281   0.12091   0.00000  Uiso   1.00
C229   C     0.08751   0.50022   0.16609   0.00000  Uiso   1.00
C230   C     0.02139   0.54087   0.17990   0.00000  Uiso   1.00
C231   C     0.29097   0.50016   0.16544   0.00000  Uiso   1.00
C232   C     0.04308   0.50092   0.16451   0.00000  Uiso   1.00
C233   C     0.14595   0.35824   0.13130   0.00000  Uiso   1.00
C234   C     0.18721   0.64176   0.20217   0.00000  Uiso   1.00
C235   C     0.18678   0.35796   0.20250   0.00000  Uiso   1.00
C236   C     0.14580   0.64202   0.13141   0.00000  Uiso   1.00
C237   C     0.05280   0.44344   0.07439   0.00000  Uiso   1.00
C238   C     0.05182   0.40407   0.03660   0.00000  Uiso   1.00
C239   C     0.07434   0.41776   0.32321   0.00000  Uiso   1.00
C240   C     0.24608   0.49994   0.16637   0.00000  Uiso   1.00
C241   C     0.28423   0.60171   0.12730   0.00000  Uiso   1.00
C242   C     0.32182   0.62109   0.10119   0.00000  Uiso   1.00
C243   C     0.30986   0.64081   0.05121   0.00000  Uiso   1.00
C244   C     0.28854   0.39398   0.19429   0.00000  Uiso   1.00
C245   C     0.32806   0.37719   0.21950   0.00000  Uiso   1.00
C246   C     0.31785   0.34876   0.26508   0.00000  Uiso   1.00
C247   C     0.04973   0.57692   0.24639   0.00000  Uiso   1.00
C248   C     0.08297   0.61206   0.26021   0.00000  Uiso   1.00
C249   C     0.09288   0.61078   0.31503   0.00000  Uiso   1.00
C250   C     0.16675   0.50001   0.07354   0.00000  Uiso   1.00
C251   C     0.16668   0.50000   0.25979   0.00000  Uiso   1.00
C252   C     0.16681   0.50004   0.02184   0.00000  Uiso   1.00
C253   C     0.16679   0.50002   0.31149   0.00000  Uiso   1.00
C254   C     0.02168   0.46181   0.14680   0.00000  Uiso   1.00
C255   C     0.31259   0.54248   0.17305   0.00000  Uiso   1.00
C256   C     0.31331   0.45873   0.15530   0.00000  Uiso   1.00
Cu257  Cu    0.16667   0.54689   0.16667   0.00000  Uiso   1.00
Cu258  Cu    0.16667   0.45311   0.16667   0.00000  Uiso   1.00
H259   H     0.08444   0.45694   0.07712   0.00000  Uiso   1.00
H260   H     0.00275   0.64905   0.12348   0.00000  Uiso   1.00
H261   H     0.01136   0.59282   0.09555   0.00000  Uiso   1.00
H262   H     0.28950   0.33839   0.05542   0.00000  Uiso   1.00
H263   H     0.29425   0.61389   0.02854   0.00000  Uiso   1.00
H264   H     0.00455   0.65150   0.03206   0.00000  Uiso   1.00
H265   H     0.26913   0.36300   0.18738   0.00000  Uiso   1.00
H266   H     0.27169   0.41700   0.22020   0.00000  Uiso   1.00
H267   H     0.01309   0.35545   0.19417   0.00000  Uiso   1.00
H268   H     0.01338   0.40767   0.23101   0.00000  Uiso   1.00
H269   H     0.29911   0.36990   0.29074   0.00000  Uiso   1.00
H270   H     0.03267   0.47223   0.06020   0.00000  Uiso   1.00
H271   H     0.01305   0.33850   0.28421   0.00000  Uiso   1.00
H272   H     0.30083   0.64999   0.25482   0.00000  Uiso   1.00
H273   H     0.06097   0.54133   0.25689   0.00000  Uiso   1.00
H274   H     0.02148   0.58470   0.26739   0.00000  Uiso   1.00
H275   H     0.11110   0.60378   0.23963   0.00000  Uiso   1.00
H276   H     0.07331   0.64785   0.24940   0.00000  Uiso   1.00
H277   H     0.10410   0.57554   0.32586   0.00000  Uiso   1.00
H278   H     0.06536   0.61942   0.00338   0.00000  Uiso   1.00
H279   H     0.11701   0.63677   0.32359   0.00000  Uiso   1.00
H280   H     0.12939   0.37697   0.10293   0.00000  Uiso   1.00
H281   H     0.06617   0.37200   0.05221   0.00000  Uiso   1.00
H282   H     0.20389   0.62308   0.23052   0.00000  Uiso   1.00
H283   H     0.20282   0.37641   0.23135   0.00000  Uiso   1.00
H284   H     0.12895   0.62354   0.10320   0.00000  Uiso   1.00
H285   H     0.01946   0.39656   0.02720   0.00000  Uiso   1.00
H286   H     0.06058   0.44982   0.30684   0.00000  Uiso   1.00
H287   H     0.07235   0.38903   0.29603   0.00000  Uiso   1.00
H288   H     0.10713   0.42401   0.33150   0.00000  Uiso   1.00
H289   H     0.26106   0.63004   0.13037   0.00000  Uiso   1.00
H290   H     0.27021   0.57410   0.10382   0.00000  Uiso   1.00
N291   N     0.16667   0.61736   0.16667   0.00000  Uiso   1.00
N292   N     0.16667   0.38264   0.16667   0.00000  Uiso   1.00
O293   O     0.10655   0.53958   0.16666   0.00000  Uiso   1.00
O294   O     0.29340   0.58570   0.17555   0.00000  Uiso   1.00
O295   O     0.29489   0.41581   0.14820   0.00000  Uiso   1.00
O296   O     0.04137   0.58079   0.19553   0.00000  Uiso   1.00
O297   O     0.22679   0.46042   0.16667   0.00000  Uiso   1.00
O298   O     0.22679   0.53958   0.16667   0.00000  Uiso   1.00
O299   O     0.10655   0.46042   0.16666   0.00000  Uiso   1.00
O300   O     0.16667   0.53959   0.09613   0.00000  Uiso   1.00
O301   O     0.16667   0.46041   0.23720   0.00000  Uiso   1.00
O302   O     0.16667   0.53959   0.23720   0.00000  Uiso   1.00
O303   O     0.16667   0.46041   0.09613   0.00000  Uiso   1.00
O304   O     0.04062   0.42614   0.12091   0.00000  Uiso   1.00
C305   C     0.42084   0.50022   0.16609   0.00000  Uiso   1.00
C306   C     0.35472   0.54087   0.17990   0.00000  Uiso   1.00
C307   C     0.62430   0.50016   0.16544   0.00000  Uiso   1.00
C308   C     0.37642   0.50092   0.16451   0.00000  Uiso   1.00
C309   C     0.47929   0.35824   0.13130   0.00000  Uiso   1.00
C310   C     0.52055   0.64176   0.20217   0.00000  Uiso   1.00
C311   C     0.52011   0.35796   0.20250   0.00000  Uiso   1.00
C312   C     0.47913   0.64202   0.13141   0.00000  Uiso   1.00
C313   C     0.38613   0.44344   0.07439   0.00000  Uiso   1.00
C314   C     0.38516   0.40407   0.03660   0.00000  Uiso   1.00
C315   C     0.40767   0.41776   0.32321   0.00000  Uiso   1.00
C316   C     0.57942   0.49994   0.16637   0.00000  Uiso   1.00
C317   C     0.61757   0.60171   0.12730   0.00000  Uiso   1.00
C318   C     0.65515   0.62109   0.10119   0.00000  Uiso   1.00
C319   C     0.64319   0.64081   0.05121   0.00000  Uiso   1.00
C320   C     0.62187   0.39398   0.19429   0.00000  Uiso   1.00
C321   C     0.66140   0.37719   0.21950   0.00000  Uiso   1.00
C322   C     0.65118   0.34876   0.26508   0.00000  Uiso   1.00
C323   C     0.38306   0.57692   0.24639   0.00000  Uiso   1.00
C324   C     0.41631   0.61206   0.26021   0.00000  Uiso   1.00
C325   C     0.42621   0.61078   0.31503   0.00000  Uiso   1.00
C326   C     0.50009   0.50001   0.07354   0.00000  Uiso   1.00
C327   C     0.50002   0.50000   0.25979   0.00000  Uiso   1.00
C328   C     0.50014   0.50004   0.02184   0.00000  Uiso   1.00
C329   C     0.50013   0.50002   0.31149   0.00000  Uiso   1.00
C330   C     0.35502   0.46181   0.14680   0.00000  Uiso   1.00
C331   C     0.64592   0.54248   0.17305   0.00000  Uiso   1.00
C332   C     0.64664   0.45873   0.15530   0.00000  Uiso   1.00
Cu333  Cu    0.50000   0.54689   0.16667   0.00000  Uiso   1.00
Cu334  Cu    0.50000   0.45311   0.16667   0.00000  Uiso   1.00
H335   H     0.41777   0.45694   0.07712   0.00000  Uiso   1.00
H336   H     0.33608   0.64905   0.12348   0.00000  Uiso   1.00
H337   H     0.34470   0.59282   0.09555   0.00000  Uiso   1.00
H338   H     0.62284   0.33839   0.05542   0.00000  Uiso   1.00
H339   H     0.62758   0.61389   0.02854   0.00000  Uiso   1.00
H340   H     0.33788   0.65150   0.03206   0.00000  Uiso   1.00
H341   H     0.60246   0.36300   0.18738   0.00000  Uiso   1.00
H342   H     0.60503   0.41700   0.22020   0.00000  Uiso   1.00
H343   H     0.34643   0.35545   0.19417   0.00000  Uiso   1.00
H344   H     0.34672   0.40767   0.23101   0.00000  Uiso   1.00
H345   H     0.63244   0.36990   0.29074   0.00000  Uiso   1.00
H346   H     0.36600   0.47223   0.06020   0.00000  Uiso   1.00
H347   H     0.34639   0.33850   0.28421   0.00000  Uiso   1.00
H348   H     0.63417   0.64999   0.25482   0.00000  Uiso   1.00
H349   H     0.39430   0.54133   0.25689   0.00000  Uiso   1.00
H350   H     0.35482   0.58470   0.26739   0.00000  Uiso   1.00
H351   H     0.44444   0.60378   0.23963   0.00000  Uiso   1.00
H352   H     0.40665   0.64785   0.24940   0.00000  Uiso   1.00
H353   H     0.43743   0.57554   0.32586   0.00000  Uiso   1.00
H354   H     0.39869   0.61942   0.00338   0.00000  Uiso   1.00
H355   H     0.45034   0.63677   0.32359   0.00000  Uiso   1.00
H356   H     0.46272   0.37697   0.10293   0.00000  Uiso   1.00
H357   H     0.39950   0.37200   0.05221   0.00000  Uiso   1.00
H358   H     0.53722   0.62308   0.23052   0.00000  Uiso   1.00
H359   H     0.53616   0.37641   0.23135   0.00000  Uiso   1.00
H360   H     0.46228   0.62354   0.10320   0.00000  Uiso   1.00
H361   H     0.35279   0.39656   0.02720   0.00000  Uiso   1.00
H362   H     0.39391   0.44982   0.30684   0.00000  Uiso   1.00
H363   H     0.40568   0.38903   0.29603   0.00000  Uiso   1.00
H364   H     0.44046   0.42401   0.33150   0.00000  Uiso   1.00
H365   H     0.59439   0.63004   0.13037   0.00000  Uiso   1.00
H366   H     0.60354   0.57410   0.10382   0.00000  Uiso   1.00
N367   N     0.50000   0.61736   0.16667   0.00000  Uiso   1.00
N368   N     0.50000   0.38264   0.16667   0.00000  Uiso   1.00
O369   O     0.43988   0.53958   0.16666   0.00000  Uiso   1.00
O370   O     0.62674   0.58570   0.17555   0.00000  Uiso   1.00
O371   O     0.62822   0.41581   0.14820   0.00000  Uiso   1.00
O372   O     0.37470   0.58079   0.19553   0.00000  Uiso   1.00
O373   O     0.56012   0.46042   0.16667   0.00000  Uiso   1.00
O374   O     0.56012   0.53958   0.16667   0.00000  Uiso   1.00
O375   O     0.43988   0.46042   0.16666   0.00000  Uiso   1.00
O376   O     0.50000   0.53959   0.09613   0.00000  Uiso   1.00
O377   O     0.50000   0.46041   0.23720   0.00000  Uiso   1.00
O378   O     0.50000   0.53959   0.23720   0.00000  Uiso   1.00
O379   O     0.50000   0.46041   0.09613   0.00000  Uiso   1.00
O380   O     0.37395   0.42614   0.12091   0.00000  Uiso   1.00
C381   C     0.75417   0.50022   0.16609   0.00000  Uiso   1.00
C382   C     0.68806   0.54087   0.17990   0.00000  Uiso   1.00
C383   C     0.95764   0.50016   0.16544   0.00000  Uiso   1.00
C384   C     0.70975   0.50092   0.16451   0.00000  Uiso   1.00
C385   C     0.81262   0.35824   0.13130   0.00000  Uiso   1.00
C386   C     0.85388   0.64176   0.20217   0.00000  Uiso   1.00
C387   C     0.85344   0.35796   0.20250   0.00000  Uiso   1.00
C388   C     0.81246   0.64202   0.13141   0.00000  Uiso   1.00
C389   C     0.71946   0.44344   0.07439   0.00000  Uiso   1.00
C390   C     0.71849   0.40407   0.03660   0.00000  Uiso   1.00
C391   C     0.74101   0.41776   0.32321   0.00000  Uiso   1.00
C392   C     0.91275   0.49994   0.16637   0.00000  Uiso   1.00
C393   C     0.95090   0.60171   0.12730   0.00000  Uiso   1.00
C394   C     0.98848   0.62109   0.10119   0.00000  Uiso   1.00
C395   C     0.97653   0.64081   0.05121   0.00000  Uiso   1.00
C396   C     0.95521   0.39398   0.19429   0.00000  Uiso   1.00
C397   C     0.99473   0.37719   0.21950   0.00000  Uiso   1.00
C398   C     0.98451   0.34876   0.26508   0.00000  Uiso   1.00
C399   C     0.71639   0.57692   0.24639   0.00000  Uiso   1.00
C400   C     0.74964   0.61206   0.26021   0.00000  Uiso   1.00
C401   C     0.75954   0.61078   0.31503   0.00000  Uiso   1.00
C402   C     0.83342   0.50001   0.07354   0.00000  Uiso   1.00
C403   C     0.83335   0.50000   0.25979   0.00000  Uiso   1.00
C404   C     0.83348   0.50004   0.02184   0.00000  Uiso   1.00
C405   C     0.83346   0.50002   0.31149   0.00000  Uiso   1.00
C406   C     0.68835   0.46181   0.14680   0.00000  Uiso   1.00
C407   C     0.97925   0.54248   0.17305   0.00000  Uiso   1.00
C408   C     0.97997   0.45873   0.15530   0.00000  Uiso   1.00
Cu409  Cu    0.83333   0.54689   0.16667   0.00000  Uiso   1.00
Cu410  Cu    0.83333   0.45311   0.16667   0.00000  Uiso   1.00
H411   H     0.75111   0.45694   0.07712   0.00000  Uiso   1.00
H412   H     0.66942   0.64905   0.12348   0.00000  Uiso   1.00
H413   H     0.67803   0.59282   0.09555   0.00000  Uiso   1.00
H414   H     0.95617   0.33839   0.05542   0.00000  Uiso   1.00
H415   H     0.96091   0.61389   0.02854   0.00000  Uiso   1.00
H416   H     0.67121   0.65150   0.03206   0.00000  Uiso   1.00
H417   H     0.93579   0.36300   0.18738   0.00000  Uiso   1.00
H418   H     0.93836   0.41700   0.22020   0.00000  Uiso   1.00
H419   H     0.67976   0.35545   0.19417   0.00000  Uiso   1.00
H420   H     0.68005   0.40767   0.23101   0.00000  Uiso   1.00
H421   H     0.96577   0.36990   0.29074   0.00000  Uiso   1.00
H422   H     0.69933   0.47223   0.06020   0.00000  Uiso   1.00
H423   H     0.67972   0.33850   0.28421   0.00000  Uiso   1.00
H424   H     0.96750   0.64999   0.25482   0.00000  Uiso   1.00
H425   H     0.72763   0.54133   0.25689   0.00000  Uiso   1.00
H426   H     0.68815   0.58470   0.26739   0.00000  Uiso   1.00
H427   H     0.77777   0.60378   0.23963   0.00000  Uiso   1.00
H428   H     0.73998   0.64785   0.24940   0.00000  Uiso   1.00
H429   H     0.77076   0.57554   0.32586   0.00000  Uiso   1.00
H430   H     0.73203   0.61942   0.00338   0.00000  Uiso   1.00
H431   H     0.78367   0.63677   0.32359   0.00000  Uiso   1.00
H432   H     0.79605   0.37697   0.10293   0.00000  Uiso   1.00
H433   H     0.73284   0.37200   0.05221   0.00000  Uiso   1.00
H434   H     0.87056   0.62308   0.23052   0.00000  Uiso   1.00
H435   H     0.86949   0.37641   0.23135   0.00000  Uiso   1.00
H436   H     0.79561   0.62354   0.10320   0.00000  Uiso   1.00
H437   H     0.68613   0.39656   0.02720   0.00000  Uiso   1.00
H438   H     0.72724   0.44982   0.30684   0.00000  Uiso   1.00
H439   H     0.73902   0.38903   0.29603   0.00000  Uiso   1.00
H440   H     0.77379   0.42401   0.33150   0.00000  Uiso   1.00
H441   H     0.92773   0.63004   0.13037   0.00000  Uiso   1.00
H442   H     0.93688   0.57410   0.10382   0.00000  Uiso   1.00
N443   N     0.83333   0.61736   0.16667   0.00000  Uiso   1.00
N444   N     0.83333   0.38264   0.16667   0.00000  Uiso   1.00
O445   O     0.77321   0.53958   0.16666   0.00000  Uiso   1.00
O446   O     0.96007   0.58570   0.17555   0.00000  Uiso   1.00
O447   O     0.96156   0.41581   0.14820   0.00000  Uiso   1.00
O448   O     0.70803   0.58079   0.19553   0.00000  Uiso   1.00
O449   O     0.89345   0.46042   0.16667   0.00000  Uiso   1.00
O450   O     0.89345   0.53958   0.16667   0.00000  Uiso   1.00
O451   O     0.77321   0.46042   0.16666   0.00000  Uiso   1.00
O452   O     0.83333   0.53959   0.09613   0.00000  Uiso   1.00
O453   O     0.83333   0.46041   0.23720   0.00000  Uiso   1.00
O454   O     0.83333   0.53959   0.23720   0.00000  Uiso   1.00
O455   O     0.83333   0.46041   0.09613   0.00000  Uiso   1.00
O456   O     0.70728   0.42614   0.12091   0.00000  Uiso   1.00
C457   C     0.08751   0.83356   0.16609   0.00000  Uiso   1.00
C458   C     0.02139   0.87421   0.17990   0.00000  Uiso   1.00
C459   C     0.29097   0.83349   0.16544   0.00000  Uiso   1.00
C460   C     0.04308   0.83425   0.16451   0.00000  Uiso   1.00
C461   C     0.14595   0.69158   0.13130   0.00000  Uiso   1.00
C462   C     0.18721   0.97509   0.20217   0.00000  Uiso   1.00
C463   C     0.18678   0.69129   0.20250   0.00000  Uiso   1.00
C464   C     0.14580   0.97535   0.13141   0.00000  Uiso   1.00
C465   C     0.05280   0.77677   0.07439   0.00000  Uiso   1.00
C466   C     0.05182   0.73740   0.03660   0.00000  Uiso   1.00
C467   C     0.07434   0.75109   0.32321   0.00000  Uiso   1.00
C468   C     0.24608   0.83327   0.16637   0.00000  Uiso   1.00
C469   C     0.28423   0.93505   0.12730   0.00000  Uiso   1.00
C470   C     0.32182   0.95442   0.10119   0.00000  Uiso   1.00
C471   C     0.30986   0.97414   0.05121   0.00000  Uiso   1.00
C472   C     0.28854   0.72731   0.19429   0.00000  Uiso   1.00
C473   C     0.32806   0.71052   0.21950   0.00000  Uiso   1.00
C474   C     0.31785   0.68209   0.26508   0.00000  Uiso   1.00
C475   C     0.04973   0.91026   0.24639   0.00000  Uiso   1.00
C476   C     0.08297   0.94539   0.26021   0.00000  Uiso   1.00
C477   C     0.09288   0.94411   0.31503   0.00000  Uiso   1.00
C478   C     0.16675   0.83335   0.07354   0.00000  Uiso   1.00
C479   C     0.16668   0.83333   0.25979   0.00000  Uiso   1.00
C480   C     0.16681   0.83337   0.02184   0.00000  Uiso   1.00
C481   C     0.16679   0.83335   0.31149   0.00000  Uiso   1.00
C482   C     0.02168   0.79514   0.14680   0.00000  Uiso   1.00
C483   C     0.31259   0.87582   0.17305   0.00000  Uiso   1.00
C484   C     0.31331   0.79206   0.15530   0.00000  Uiso   1.00
Cu485  Cu    0.16667   0.88022   0.16667   0.00000  Uiso   1.00
Cu486  Cu    0.16667   0.78645   0.16667   0.00000  Uiso   1.00
H487   H     0.08444   0.79027   0.07712   0.00000  Uiso   1.00
H488   H     0.00275   0.98238   0.12348   0.00000  Uiso   1.00
H489   H     0.01136   0.92616   0.09555   0.00000  Uiso   1.00
H490   H     0.28950   0.67172   0.05542   0.00000  Uiso   1.00
H491   H     0.29425   0.94722   0.02854   0.00000  Uiso   1.00
H492   H     0.00455   0.98483   0.03206   0.00000  Uiso   1.00
H493   H     0.26913   0.69633   0.18738   0.00000  Uiso   1.00
H494   H     0.27169   0.75033   0.22020   0.00000  Uiso   1.00
H495   H     0.01309   0.68879   0.19417   0.00000  Uiso   1.00
H496   H     0.01338   0.74101   0.23101   0.00000  Uiso   1.00
H497   H     0.29911   0.70324   0.29074   0.00000  Uiso   1.00
H498   H     0.03267   0.80556   0.06020   0.00000  Uiso   1.00
H499   H     0.01305   0.67183   0.28421   0.00000  Uiso   1.00
H500   H     0.30083   0.98333   0.25482   0.00000  Uiso   1.00
H501   H     0.06097   0.87466   0.25689   0.00000  Uiso   1.00
H502   H     0.02148   0.91803   0.26739   0.00000  Uiso   1.00
H503   H     0.11110   0.93712   0.23963   0.00000  Uiso   1.00
H504   H     0.07331   0.98119   0.24940   0.00000  Uiso   1.00
H505   H     0.10410   0.90887   0.32586   0.00000  Uiso   1.00
H506   H     0.06536   0.95276   0.00338   0.00000  Uiso   1.00
H507   H     0.11701   0.97010   0.32359   0.00000  Uiso   1.00
H508   H     0.12939   0.71030   0.10293   0.00000  Uiso   1.00
H509   H     0.06617   0.70533   0.05221   0.00000  Uiso   1.00
H510   H     0.20389   0.95642   0.23052   0.00000  Uiso   1.00
H511   H     0.20282   0.70974   0.23135   0.00000  Uiso   1.00
H512   H     0.12895   0.95688   0.10320   0.00000  Uiso   1.00
H513   H     0.01946   0.72990   0.02720   0.00000  Uiso   1.00
H514   H     0.06058   0.78315   0.30684   0.00000  Uiso   1.00
H515   H     0.07235   0.72237   0.29603   0.00000  Uiso   1.00
H516   H     0.10713   0.75735   0.33150   0.00000  Uiso   1.00
H517   H     0.26106   0.96338   0.13037   0.00000  Uiso   1.00
H518   H     0.27021   0.90744   0.10382   0.00000  Uiso   1.00
N519   N     0.16667   0.95069   0.16667   0.00000  Uiso   1.00
N520   N     0.16667   0.71598   0.16667   0.00000  Uiso   1.00
O521   O     0.10655   0.87291   0.16666   0.00000  Uiso   1.00
O522   O     0.29340   0.91904   0.17555   0.00000  Uiso   1.00
O523   O     0.29489   0.74915   0.14820   0.00000  Uiso   1.00
O524   O     0.04137   0.91413   0.19553   0.00000  Uiso   1.00
O525   O     0.22679   0.79375   0.16667   0.00000  Uiso   1.00
O526   O     0.22679   0.87291   0.16667   0.00000  Uiso   1.00
O527   O     0.10655   0.79375   0.16666   0.00000  Uiso   1.00
O528   O     0.16667   0.87292   0.09613   0.00000  Uiso   1.00
O529   O     0.16667   0.79375   0.23720   0.00000  Uiso   1.00
O530   O     0.16667   0.87292   0.23720   0.00000  Uiso   1.00
O531   O     0.16667   0.79375   0.09613   0.00000  Uiso   1.00
O532   O     0.04062   0.75947   0.12091   0.00000  Uiso   1.00
C533   C     0.42084   0.83356   0.16609   0.00000  Uiso   1.00
C534   C     0.35472   0.87421   0.17990   0.00000  Uiso   1.00
C535   C     0.62430   0.83349   0.16544   0.00000  Uiso   1.00
C536   C     0.37642   0.83425   0.16451   0.00000  Uiso   1.00
C537   C     0.47929   0.69158   0.13130   0.00000  Uiso   1.00
C538   C     0.52055   0.97509   0.20217   0.00000  Uiso   1.00
C539   C     0.52011   0.69129   0.20250   0.00000  Uiso   1.00
C540   C     0.47913   0.97535   0.13141   0.00000  Uiso   1.00
C541   C     0.38613   0.77677   0.07439   0.00000  Uiso   1.00
C542   C     0.38516   0.73740   0.03660   0.00000  Uiso   1.00
C543   C     0.40767   0.75109   0.32321   0.00000  Uiso   1.00
C544   C     0.57942   0.83327   0.16637   0.00000  Uiso   1.00
C545   C     0.61757   0.93505   0.12730   0.00000  Uiso   1.00
C546   C     0.65515   0.95442   0.10119   0.00000  Uiso   1.00
C547   C     0.64319   0.97414   0.05121   0.00000  Uiso   1.00
C548   C     0.62187   0.72731   0.19429   0.00000  Uiso   1.00
C549   C     0.66140   0.71052   0.21950   0.00000  Uiso   1.00
C550   C     0.65118   0.68209   0.26508   0.00000  Uiso   1.00
C551   C     0.38306   0.91026   0.24639   0.00000  Uiso   1.00
C552   C     0.41631   0.94539   0.26021   0.00000  Uiso   1.00
C553   C     0.42621   0.94411   0.31503   0.00000  Uiso   1.00
C554   C     0.50009   0.83335   0.07354   0.00000  Uiso   1.00
C555   C     0.50002   0.83333   0.25979   0.00000  Uiso   1.00
C556   C     0.50014   0.83337   0.02184   0.00000  Uiso   1.00
C557   C     0.50013   0.83335   0.31149   0.00000  Uiso   1.00
C558   C     0.35502   0.79514   0.14680   0.00000  Uiso   1.00
C559   C     0.64592   0.87582   0.17305   0.00000  Uiso   1.00
C560   C     0.64664   0.79206   0.15530   0.00000  Uiso   1.00
Cu561  Cu    0.50000   0.88022   0.16667   0.00000  Uiso   1.00
Cu562  Cu    0.50000   0.78645   0.16667   0.00000  Uiso   1.00
H563   H     0.41777   0.79027   0.07712   0.00000  Uiso   1.00
H564   H     0.33608   0.98238   0.12348   0.00000  Uiso   1.00
H565   H     0.34470   0.92616   0.09555   0.00000  Uiso   1.00
H566   H     0.62284   0.67172   0.05542   0.00000  Uiso   1.00
H567   H     0.62758   0.94722   0.02854   0.00000  Uiso   1.00
H568   H     0.33788   0.98483   0.03206   0.00000  Uiso   1.00
H569   H     0.60246   0.69633   0.18738   0.00000  Uiso   1.00
H570   H     0.60503   0.75033   0.22020   0.00000  Uiso   1.00
H571   H     0.34643   0.68879   0.19417   0.00000  Uiso   1.00
H572   H     0.34672   0.74101   0.23101   0.00000  Uiso   1.00
H573   H     0.63244   0.70324   0.29074   0.00000  Uiso   1.00
H574   H     0.36600   0.80556   0.06020   0.00000  Uiso   1.00
H575   H     0.34639   0.67183   0.28421   0.00000  Uiso   1.00
H576   H     0.63417   0.98333   0.25482   0.00000  Uiso   1.00
H577   H     0.39430   0.87466   0.25689   0.00000  Uiso   1.00
H578   H     0.35482   0.91803   0.26739   0.00000  Uiso   1.00
H579   H     0.44444   0.93712   0.23963   0.00000  Uiso   1.00
H580   H     0.40665   0.98119   0.24940   0.00000  Uiso   1.00
H581   H     0.43743   0.90887   0.32586   0.00000  Uiso   1.00
H582   H     0.39869   0.95276   0.00338   0.00000  Uiso   1.00
H583   H     0.45034   0.97010   0.32359   0.00000  Uiso   1.00
H584   H     0.46272   0.71030   0.10293   0.00000  Uiso   1.00
H585   H     0.39950   0.70533   0.05221   0.00000  Uiso   1.00
H586   H     0.53722   0.95642   0.23052   0.00000  Uiso   1.00
H587   H     0.53616   0.70974   0.23135   0.00000  Uiso   1.00
H588   H     0.46228   0.95688   0.10320   0.00000  Uiso   1.00
H589   H     0.35279   0.72990   0.02720   0.00000  Uiso   1.00
H590   H     0.39391   0.78315   0.30684   0.00000  Uiso   1.00
H591   H     0.40568   0.72237   0.29603   0.00000  Uiso   1.00
H592   H     0.44046   0.75735   0.33150   0.00000  Uiso   1.00
H593   H     0.59439   0.96338   0.13037   0.00000  Uiso   1.00
H594   H     0.60354   0.90744   0.10382   0.00000  Uiso   1.00
N595   N     0.50000   0.95069   0.16667   0.00000  Uiso   1.00
N596   N     0.50000   0.71598   0.16667   0.00000  Uiso   1.00
O597   O     0.43988   0.87291   0.16666   0.00000  Uiso   1.00
O598   O     0.62674   0.91904   0.17555   0.00000  Uiso   1.00
O599   O     0.62822   0.74915   0.14820   0.00000  Uiso   1.00
O600   O     0.37470   0.91413   0.19553   0.00000  Uiso   1.00
O601   O     0.56012   0.79375   0.16667   0.00000  Uiso   1.00
O602   O     0.56012   0.87291   0.16667   0.00000  Uiso   1.00
O603   O     0.43988   0.79375   0.16666   0.00000  Uiso   1.00
O604   O     0.50000   0.87292   0.09613   0.00000  Uiso   1.00
O605   O     0.50000   0.79375   0.23720   0.00000  Uiso   1.00
O606   O     0.50000   0.87292   0.23720   0.00000  Uiso   1.00
O607   O     0.50000   0.79375   0.09613   0.00000  Uiso   1.00
O608   O     0.37395   0.75947   0.12091   0.00000  Uiso   1.00
C609   C     0.75417   0.83356   0.16609   0.00000  Uiso   1.00
C610   C     0.68806   0.87421   0.17990   0.00000  Uiso   1.00
C611   C     0.95764   0.83349   0.16544   0.00000  Uiso   1.00
C612   C     0.70975   0.83425   0.16451   0.00000  Uiso   1.00
C613   C     0.81262   0.69158   0.13130   0.00000  Uiso   1.00
C614   C     0.85388   0.97509   0.20217   0.00000  Uiso   1.00
C615   C     0.85344   0.69129   0.20250   0.00000  Uiso   1.00
C616   C     0.81246   0.97535   0.13141   0.00000  Uiso   1.00
C617   C     0.71946   0.77677   0.07439   0.00000  Uiso   1.00
C618   C     0.71849   0.73740   0.03660   0.00000  Uiso   1.00
C619   C     0.74101   0.75109   0.32321   0.00000  Uiso   1.00
C620   C     0.91275   0.83327   0.16637   0.00000  Uiso   1.00
C621   C     0.95090   0.93505   0.12730   0.00000  Uiso   1.00
C622   C     0.98848   0.95442   0.10119   0.00000  Uiso   1.00
C623   C     0.97653   0.97414   0.05121   0.00000  Uiso   1.00
C624   C     0.95521   0.72731   0.19429   0.00000  Uiso   1.00
C625   C     0.99473   0.71052   0.21950   0.00000  Uiso   1.00
C626   C     0.98451   0.68209   0.26508   0.00000  Uiso   1.00
C627   C     0.71639   0.91026   0.24639   0.00000  Uiso   1.00
C628   C     0.74964   0.94539   0.26021   0.00000  Uiso   1.00
C629   C     0.75954   0.94411   0.31503   0.00000  Uiso   1.00
C630   C     0.83342   0.83335   0.07354   0.00000  Uiso   1.00
C631   C     0.83335   0.83333   0.25979   0.00000  Uiso   1.00
C632   C     0.83348   0.83337   0.02184   0.00000  Uiso   1.00
C633   C     0.83346   0.83335   0.31149   0.00000  Uiso   1.00
C634   C     0.68835   0.79514   0.14680   0.00000  Uiso   1.00
C635   C     0.97925   0.87582   0.17305   0.00000  Uiso   1.00
C636   C     0.97997   0.79206   0.15530   0.00000  Uiso   1.00
Cu637  Cu    0.83333   0.88022   0.16667   0.00000  Uiso   1.00
Cu638  Cu    0.83333   0.78645   0.16667   0.00000  Uiso   1.00
H639   H     0.75111   0.79027   0.07712   0.00000  Uiso   1.00
H640   H     0.66942   0.98238   0.12348   0.00000  Uiso   1.00
H641   H     0.67803   0.92616   0.09555   0.00000  Uiso   1.00
H642   H     0.95617   0.67172   0.05542   0.00000  Uiso   1.00
H643   H     0.96091   0.94722   0.02854   0.00000  Uiso   1.00
H644   H     0.67121   0.98483   0.03206   0.00000  Uiso   1.00
H645   H     0.93579   0.69633   0.18738   0.00000  Uiso   1.00
H646   H     0.93836   0.75033   0.22020   0.00000  Uiso   1.00
H647   H     0.67976   0.68879   0.19417   0.00000  Uiso   1.00
H648   H     0.68005   0.74101   0.23101   0.00000  Uiso   1.00
H649   H     0.96577   0.70324   0.29074   0.00000  Uiso   1.00
H650   H     0.69933   0.80556   0.06020   0.00000  Uiso   1.00
H651   H     0.67972   0.67183   0.28421   0.00000  Uiso   1.00
H652   H     0.96750   0.98333   0.25482   0.00000  Uiso   1.00
H653   H     0.72763   0.87466   0.25689   0.00000  Uiso   1.00
H654   H     0.68815   0.91803   0.26739   0.00000  Uiso   1.00
H655   H     0.77777   0.93712   0.23963   0.00000  Uiso   1.00
H656   H     0.73998   0.98119   0.24940   0.00000  Uiso   1.00
H657   H     0.77076   0.90887   0.32586   0.00000  Uiso   1.00
H658   H     0.73203   0.95276   0.00338   0.00000  Uiso   1.00
H659   H     0.78367   0.97010   0.32359   0.00000  Uiso   1.00
H660   H     0.79605   0.71030   0.10293   0.00000  Uiso   1.00
H661   H     0.73284   0.70533   0.05221   0.00000  Uiso   1.00
H662   H     0.87056   0.95642   0.23052   0.00000  Uiso   1.00
H663   H     0.86949   0.70974   0.23135   0.00000  Uiso   1.00
H664   H     0.79561   0.95688   0.10320   0.00000  Uiso   1.00
H665   H     0.68613   0.72990   0.02720   0.00000  Uiso   1.00
H666   H     0.72724   0.78315   0.30684   0.00000  Uiso   1.00
H667   H     0.73902   0.72237   0.29603   0.00000  Uiso   1.00
H668   H     0.77379   0.75735   0.33150   0.00000  Uiso   1.00
H669   H     0.92773   0.96338   0.13037   0.00000  Uiso   1.00
H670   H     0.93688   0.90744   0.10382   0.00000  Uiso   1.00
N671   N     0.83333   0.95069   0.16667   0.00000  Uiso   1.00
N672   N     0.83333   0.71598   0.16667   0.00000  Uiso   1.00
O673   O     0.77321   0.87291   0.16666   0.00000  Uiso   1.00
O674   O     0.96007   0.91904   0.17555   0.00000  Uiso   1.00
O675   O     0.96156   0.74915   0.14820   0.00000  Uiso   1.00
O676   O     0.70803   0.91413   0.19553   0.00000  Uiso   1.00
O677   O     0.89345   0.79375   0.16667   0.00000  Uiso   1.00
O678   O     0.89345   0.87291   0.16667   0.00000  Uiso   1.00
O679   O     0.77321   0.79375   0.16666   0.00000  Uiso   1.00
O680   O     0.83333   0.87292   0.09613   0.00000  Uiso   1.00
O681   O     0.83333   0.79375   0.23720   0.00000  Uiso   1.00
O682   O     0.83333   0.87292   0.23720   0.00000  Uiso   1.00
O683   O     0.83333   0.79375   0.09613   0.00000  Uiso   1.00
O684   O     0.70728   0.75947   0.12091   0.00000  Uiso   1.00
C685   C     0.08751   0.16689   0.49943   0.00000  Uiso   1.00
C686   C     0.02139   0.20754   0.51324   0.00000  Uiso   1.00
C687   C     0.29097   0.16682   0.49877   0.00000  Uiso   1.00
C688   C     0.04308   0.16758   0.49785   0.00000  Uiso   1.00
C689   C     0.14595   0.02491   0.46463   0.00000  Uiso   1.00
C690   C     0.18721   0.30843   0.53550   0.00000  Uiso   1.00
C691   C     0.18678   0.02462   0.53583   0.00000  Uiso   1.00
C692   C     0.14580   0.30869   0.46474   0.00000  Uiso   1.00
C693   C     0.05280   0.11010   0.40772   0.00000  Uiso   1.00
C694   C     0.05182   0.07074   0.36993   0.00000  Uiso   1.00
C695   C     0.07434   0.08443   0.65655   0.00000  Uiso   1.00
C696   C     0.24608   0.16661   0.49970   0.00000  Uiso   1.00
C697   C     0.28423   0.26838   0.46063   0.00000  Uiso   1.00
C698   C     0.32182   0.28775   0.43452   0.00000  Uiso   1.00
C699   C     0.30986   0.30747   0.38454   0.00000  Uiso   1.00
C700   C     0.28854   0.06064   0.52763   0.00000  Uiso   1.00
C701   C     0.32806   0.04385   0.55283   0.00000  Uiso   1.00
C702   C     0.31785   0.01542   0.59841   0.00000  Uiso   1.00
C703   C     0.04973   0.24359   0.57972   0.00000  Uiso   1.00
C704   C     0.08297   0.27873   0.59354   0.00000  Uiso   1.00
C705   C     0.09288   0.27745   0.64836   0.00000  Uiso   1.00
C706   C     0.16675   0.16668   0.40687   0.00000  Uiso   1.00
C707   C     0.16668   0.16667   0.59313   0.00000  Uiso   1.00
C708   C     0.16681   0.16670   0.35518   0.00000  Uiso   1.00
C709   C     0.16679   0.16668   0.64482   0.00000  Uiso   1.00
C710   C     0.02168   0.12847   0.48013   0.00000  Uiso   1.00
C711   C     0.31259   0.20915   0.50638   0.00000  Uiso   1.00
C712   C     0.31331   0.12539   0.48863   0.00000  Uiso   1.00
Cu713  Cu    0.16667   0.21355   0.50000   0.00000  Uiso   1.00
Cu714  Cu    0.16667   0.11978   0.50000   0.00000  Uiso   1.00
H715   H     0.08444   0.12361   0.41045   0.00000  Uiso   1.00
H716   H     0.00275   0.31572   0.45681   0.00000  Uiso   1.00
H717   H     0.01136   0.25949   0.42888   0.00000  Uiso   1.00
H718   H     0.28950   0.00506   0.38875   0.00000  Uiso   1.00
H719   H     0.29425   0.28056   0.36187   0.00000  Uiso   1.00
H720   H     0.00455   0.31816   0.36540   0.00000  Uiso   1.00
H721   H     0.26913   0.02967   0.52071   0.00000  Uiso   1.00
H722   H     0.27169   0.08367   0.55353   0.00000  Uiso   1.00
H723   H     0.01309   0.02212   0.52750   0.00000  Uiso   1.00
H724   H     0.01338   0.07434   0.56435   0.00000  Uiso   1.00
H725   H     0.29911   0.03657   0.62407   0.00000  Uiso   1.00
H726   H     0.03267   0.13889   0.39354   0.00000  Uiso   1.00
H727   H     0.01305   0.00516   0.61754   0.00000  Uiso   1.00
H728   H     0.30083   0.31666   0.58816   0.00000  Uiso   1.00
H729   H     0.06097   0.20800   0.59022   0.00000  Uiso   1.00
H730   H     0.02148   0.25137   0.60072   0.00000  Uiso   1.00
H731   H     0.11110   0.27045   0.57296   0.00000  Uiso   1.00
H732   H     0.07331   0.31452   0.58273   0.00000  Uiso   1.00
H733   H     0.10410   0.24221   0.65920   0.00000  Uiso   1.00
H734   H     0.06536   0.28609   0.33671   0.00000  Uiso   1.00
H735   H     0.11701   0.30344   0.65693   0.00000  Uiso   1.00
H736   H     0.12939   0.04363   0.43627   0.00000  Uiso   1.00
H737   H     0.06617   0.03866   0.38554   0.00000  Uiso   1.00
H738   H     0.20389   0.28975   0.56385   0.00000  Uiso   1.00
H739   H     0.20282   0.04308   0.56469   0.00000  Uiso   1.00
H740   H     0.12895   0.29021   0.43653   0.00000  Uiso   1.00
H741   H     0.01946   0.06323   0.36053   0.00000  Uiso   1.00
H742   H     0.06058   0.11648   0.64017   0.00000  Uiso   1.00
H743   H     0.07235   0.05570   0.62936   0.00000  Uiso   1.00
H744   H     0.10713   0.09068   0.66483   0.00000  Uiso   1.00
H745   H     0.26106   0.29671   0.46370   0.00000  Uiso   1.00
H746   H     0.27021   0.24077   0.43716   0.00000  Uiso   1.00
N747   N     0.16667   0.28402   0.50000   0.00000  Uiso   1.00
N748   N     0.16667   0.04931   0.50000   0.00000  Uiso   1.00
O749   O     0.10655   0.20625   0.50000   0.00000  Uiso   1.00
O750   O     0.29340   0.25237   0.50889   0.00000  Uiso   1.00
O751   O     0.29489   0.08248   0.48154   0.00000  Uiso   1.00
O752   O     0.04137   0.24746   0.52886   0.00000  Uiso   1.00
O753   O     0.22679   0.12709   0.50000   0.00000  Uiso   1.00
O754   O     0.22679   0.20625   0.50000   0.00000  Uiso   1.00
O755   O     0.10655   0.12709   0.50000   0.00000  Uiso   1.00
O756   O     0.16667   0.20625   0.42946   0.00000  Uiso   1.00
O757   O     0.16667   0.12708   0.57054   0.00000  Uiso   1.00
O758   O     0.16667   0.20625   0.57054   0.00000  Uiso   1.00
O759   O     0.16667   0.12708   0.42946   0.00000  Uiso   1.00
O760   O     0.04062   0.09281   0.45424   0.00000  Uiso   1.00
C761   C     0.42084   0.16689   0.49943   0.00000  Uiso   1.00
C762   C     0.35472   0.20754   0.51324   0.00000  Uiso   1.00
C763   C     0.62430   0.16682   0.49877   0.00000  Uiso   1.00
C764   C     0.37642   0.16758   0.49785   0.00000  Uiso   1.00
C765   C     0.47929   0.02491   0.46463   0.00000  Uiso   1.00
C766   C     0.52055   0.30843   0.53550   0.00000  Uiso   1.00
C767   C     0.52011   0.02462   0.53583   0.00000  Uiso   1.00
C768   C     0.47913   0.30869   0.46474   0.00000  Uiso   1.00
C769   C     0.38613   0.11010   0.40772   0.00000  Uiso   1.00
C770   C     0.38516   0.07074   0.36993   0.00000  Uiso   1.00
C771   C     0.40767   0.08443   0.65655   0.00000  Uiso   1.00
C772   C     0.57942   0.16661   0.49970   0.00000  Uiso   1.00
C773   C     0.61757   0.26838   0.46063   0.00000  Uiso   1.00
C774   C     0.65515   0.28775   0.43452   0.00000  Uiso   1.00
C775   C     0.64319   0.30747   0.38454   0.00000  Uiso   1.00
C776   C     0.62187   0.06064   0.52763   0.00000  Uiso   1.00
C777   C     0.66140   0.04385   0.55283   0.00000  Uiso   1.00
C778   C     0.65118   0.01542   0.59841   0.00000  Uiso   1.00
C779   C     0.38306   0.24359   0.57972   0.00000  Uiso   1.00
C780   C     0.41631   0.27873   0.59354   0.00000  Uiso   1.00
C781   C     0.42621   0.27745   0.64836   0.00000  Uiso   1.00
C782   C     0.50009   0.16668   0.40687   0.00000  Uiso   1.00
C783   C     0.50002   0.16667   0.59313   0.00000  Uiso   1.00
C784   C     0.50014   0.16670   0.35518   0.00000  Uiso   1.00
C785   C     0.50013   0.16668   0.64482   0.00000  Uiso   1.00
C786   C     0.35502   0.12847   0.48013   0.00000  Uiso   1.00
C787   C     0.64592   0.20915   0.50638   0.00000  Uiso   1.00
C788   C     0.64664   0.12539   0.48863   0.00000  Uiso   1.00
Cu789  Cu    0.50000   0.21355   0.50000   0.00000  Uiso   1.00
Cu790  Cu    0.50000   0.11978   0.50000   0.00000  Uiso   1.00
H791   H     0.41777   0.12361   0.41045   0.00000  Uiso   1.00
H792   H     0.33608   0.31572   0.45681   0.00000  Uiso   1.00
H793   H     0.34470   0.25949   0.42888   0.00000  Uiso   1.00
H794   H     0.62284   0.00506   0.38875   0.00000  Uiso   1.00
H795   H     0.62758   0.28056   0.36187   0.00000  Uiso   1.00
H796   H     0.33788   0.31816   0.36540   0.00000  Uiso   1.00
H797   H     0.60246   0.02967   0.52071   0.00000  Uiso   1.00
H798   H     0.60503   0.08367   0.55353   0.00000  Uiso   1.00
H799   H     0.34643   0.02212   0.52750   0.00000  Uiso   1.00
H800   H     0.34672   0.07434   0.56435   0.00000  Uiso   1.00
H801   H     0.63244   0.03657   0.62407   0.00000  Uiso   1.00
H802   H     0.36600   0.13889   0.39354   0.00000  Uiso   1.00
H803   H     0.34639   0.00516   0.61754   0.00000  Uiso   1.00
H804   H     0.63417   0.31666   0.58816   0.00000  Uiso   1.00
H805   H     0.39430   0.20800   0.59022   0.00000  Uiso   1.00
H806   H     0.35482   0.25137   0.60072   0.00000  Uiso   1.00
H807   H     0.44444   0.27045   0.57296   0.00000  Uiso   1.00
H808   H     0.40665   0.31452   0.58273   0.00000  Uiso   1.00
H809   H     0.43743   0.24221   0.65920   0.00000  Uiso   1.00
H810   H     0.39869   0.28609   0.33671   0.00000  Uiso   1.00
H811   H     0.45034   0.30344   0.65693   0.00000  Uiso   1.00
H812   H     0.46272   0.04363   0.43627   0.00000  Uiso   1.00
H813   H     0.39950   0.03866   0.38554   0.00000  Uiso   1.00
H814   H     0.53722   0.28975   0.56385   0.00000  Uiso   1.00
H815   H     0.53616   0.04308   0.56469   0.00000  Uiso   1.00
H816   H     0.46228   0.29021   0.43653   0.00000  Uiso   1.00
H817   H     0.35279   0.06323   0.36053   0.00000  Uiso   1.00
H818   H     0.39391   0.11648   0.64017   0.00000  Uiso   1.00
H819   H     0.40568   0.05570   0.62936   0.00000  Uiso   1.00
H820   H     0.44046   0.09068   0.66483   0.00000  Uiso   1.00
H821   H     0.59439   0.29671   0.46370   0.00000  Uiso   1.00
H822   H     0.60354   0.24077   0.43716   0.00000  Uiso   1.00
N823   N     0.50000   0.28402   0.50000   0.00000  Uiso   1.00
N824   N     0.50000   0.04931   0.50000   0.00000  Uiso   1.00
O825   O     0.43988   0.20625   0.50000   0.00000  Uiso   1.00
O826   O     0.62674   0.25237   0.50889   0.00000  Uiso   1.00
O827   O     0.62822   0.08248   0.48154   0.00000  Uiso   1.00
O828   O     0.37470   0.24746   0.52886   0.00000  Uiso   1.00
O829   O     0.56012   0.12709   0.50000   0.00000  Uiso   1.00
O830   O     0.56012   0.20625   0.50000   0.00000  Uiso   1.00
O831   O     0.43988   0.12709   0.50000   0.00000  Uiso   1.00
O832   O     0.50000   0.20625   0.42946   0.00000  Uiso   1.00
O833   O     0.50000   0.12708   0.57054   0.00000  Uiso   1.00
O834   O     0.50000   0.20625   0.57054   0.00000  Uiso   1.00
O835   O     0.50000   0.12708   0.42946   0.00000  Uiso   1.00
O836   O     0.37395   0.09281   0.45424   0.00000  Uiso   1.00
C837   C     0.75417   0.16689   0.49943   0.00000  Uiso   1.00
C838   C     0.68806   0.20754   0.51324   0.00000  Uiso   1.00
C839   C     0.95764   0.16682   0.49877   0.00000  Uiso   1.00
C840   C     0.70975   0.16758   0.49785   0.00000  Uiso   1.00
C841   C     0.81262   0.02491   0.46463   0.00000  Uiso   1.00
C842   C     0.85388   0.30843   0.53550   0.00000  Uiso   1.00
C843   C     0.85344   0.02462   0.53583   0.00000  Uiso   1.00
C844   C     0.81246   0.30869   0.46474   0.00000  Uiso   1.00
C845   C     0.71946   0.11010   0.40772   0.00000  Uiso   1.00
C846   C     0.71849   0.07074   0.36993   0.00000  Uiso   1.00
C847   C     0.74101   0.08443   0.65655   0.00000  Uiso   1.00
C848   C     0.91275   0.16661   0.49970   0.00000  Uiso   1.00
C849   C     0.95090   0.26838   0.46063   0.00000  Uiso   1.00
C850   C     0.98848   0.28775   0.43452   0.00000  Uiso   1.00
C851   C     0.97653   0.30747   0.38454   0.00000  Uiso   1.00
C852   C     0.95521   0.06064   0.52763   0.00000  Uiso   1.00
C853   C     0.99473   0.04385   0.55283   0.00000  Uiso   1.00
C854   C     0.98451   0.01542   0.59841   0.00000  Uiso   1.00
C855   C     0.71639   0.24359   0.57972   0.00000  Uiso   1.00
C856   C     0.74964   0.27873   0.59354   0.00000  Uiso   1.00
C857   C     0.75954   0.27745   0.64836   0.00000  Uiso   1.00
C858   C     0.83342   0.16668   0.40687   0.00000  Uiso   1.00
C859   C     0.83335   0.16667   0.59313   0.00000  Uiso   1.00
C860   C     0.83348   0.16670   0.35518   0.00000  Uiso   1.00
C861   C     0.83346   0.16668   0.64482   0.00000  Uiso   1.00
C862   C     0.68835   0.12847   0.48013   0.00000  Uiso   1.00
C863   C     0.97925   0.20915   0.50638   0.00000  Uiso   1.00
C864   C     0.97997   0.12539   0.48863   0.00000  Uiso   1.00
Cu865  Cu    0.83333   0.21355   0.50000   0.00000  Uiso   1.00
Cu866  Cu    0.83333   0.11978   0.50000   0.00000  Uiso   1.00
H867   H     0.75111   0.12361   0.41045   0.00000  Uiso   1.00
H868   H     0.66942   0.31572   0.45681   0.00000  Uiso   1.00
H869   H     0.67803   0.25949   0.42888   0.00000  Uiso   1.00
H870   H     0.95617   0.00506   0.38875   0.00000  Uiso   1.00
H871   H     0.96091   0.28056   0.36187   0.00000  Uiso   1.00
H872   H     0.67121   0.31816   0.36540   0.00000  Uiso   1.00
H873   H     0.93579   0.02967   0.52071   0.00000  Uiso   1.00
H874   H     0.93836   0.08367   0.55353   0.00000  Uiso   1.00
H875   H     0.67976   0.02212   0.52750   0.00000  Uiso   1.00
H876   H     0.68005   0.07434   0.56435   0.00000  Uiso   1.00
H877   H     0.96577   0.03657   0.62407   0.00000  Uiso   1.00
H878   H     0.69933   0.13889   0.39354   0.00000  Uiso   1.00
H879   H     0.67972   0.00516   0.61754   0.00000  Uiso   1.00
H880   H     0.96750   0.31666   0.58816   0.00000  Uiso   1.00
H881   H     0.72763   0.20800   0.59022   0.00000  Uiso   1.00
H882   H     0.68815   0.25137   0.60072   0.00000  Uiso   1.00
H883   H     0.77777   0.27045   0.57296   0.00000  Uiso   1.00
H884   H     0.73998   0.31452   0.58273   0.00000  Uiso   1.00
H885   H     0.77076   0.24221   0.65920   0.00000  Uiso   1.00
H886   H     0.73203   0.28609   0.33671   0.00000  Uiso   1.00
H887   H     0.78367   0.30344   0.65693   0.00000  Uiso   1.00
H888   H     0.79605   0.04363   0.43627   0.00000  Uiso   1.00
H889   H     0.73284   0.03866   0.38554   0.00000  Uiso   1.00
H890   H     0.87056   0.28975   0.56385   0.00000  Uiso   1.00
H891   H     0.86949   0.04308   0.56469   0.00000  Uiso   1.00
H892   H     0.79561   0.29021   0.43653   0.00000  Uiso   1.00
H893   H     0.68613   0.06323   0.36053   0.00000  Uiso   1.00
H894   H     0.72724   0.11648   0.64017   0.00000  Uiso   1.00
H895   H     0.73902   0.05570   0.62936   0.00000  Uiso   1.00
H896   H     0.77379   0.09068   0.66483   0.00000  Uiso   1.00
H897   H     0.92773   0.29671   0.46370   0.00000  Uiso   1.00
H898   H     0.93688   0.24077   0.43716   0.00000  Uiso   1.00
N899   N     0.83333   0.28402   0.50000   0.00000  Uiso   1.00
N900   N     0.83333   0.04931   0.50000   0.00000  Uiso   1.00
O901   O     0.77321   0.20625   0.50000   0.00000  Uiso   1.00
O902   O     0.96007   0.25237   0.50889   0.00000  Uiso   1.00
O903   O     0.96156   0.08248   0.48154   0.00000  Uiso   1.00
O904   O     0.70803   0.24746   0.52886   0.00000  Uiso   1.00
O905   O     0.89345   0.12709   0.50000   0.00000  Uiso   1.00
O906   O     0.89345   0.20625   0.50000   0.00000  Uiso   1.00
O907   O     0.77321   0.12709   0.50000   0.00000  Uiso   1.00
O908   O     0.83333   0.20625   0.42946   0.00000  Uiso   1.00
O909   O     0.83333   0.12708   0.57054   0.00000  Uiso   1.00
O910   O     0.83333   0.20625   0.57054   0.00000  Uiso   1.00
O911   O     0.83333   0.12708   0.42946   0.00000  Uiso   1.00
O912   O     0.70728   0.09281   0.45424   0.00000  Uiso   1.00
C913   C     0.08751   0.50022   0.49943   0.00000  Uiso   1.00
C914   C     0.02139   0.54087   0.51324   0.00000  Uiso   1.00
C915   C     0.29097   0.50016   0.49877   0.00000  Uiso   1.00
C916   C     0.04308   0.50092   0.49785   0.00000  Uiso   1.00
C917   C     0.14595   0.35824   0.46463   0.00000  Uiso   1.00
C918   C     0.18721   0.64176   0.53550   0.00000  Uiso   1.00
C919   C     0.18678   0.35796   0.53583   0.00000  Uiso   1.00
C920   C     0.14580   0.64202   0.46474   0.00000  Uiso   1.00
C921   C     0.05280   0.44344   0.40772   0.00000  Uiso   1.00
C922   C     0.05182   0.40407   0.36993   0.00000  Uiso   1.00
C923   C     0.07434   0.41776   0.65655   0.00000  Uiso   1.00
C924   C     0.24608   0.49994   0.49970   0.00000  Uiso   1.00
C925   C     0.28423   0.60171   0.46063   0.00000  Uiso   1.00
C926   C     0.32182   0.62109   0.43452   0.00000  Uiso   1.00
C927   C     0.30986   0.64081   0.38454   0.00000  Uiso   1.00
C928   C     0.28854   0.39398   0.52763   0.00000  Uiso   1.00
C929   C     0.32806   0.37719   0.55283   0.00000  Uiso   1.00
C930   C     0.31785   0.34876   0.59841   0.00000  Uiso   1.00
C931   C     0.04973   0.57692   0.57972   0.00000  Uiso   1.00
C932   C     0.08297   0.61206   0.59354   0.00000  Uiso   1.00
C933   C     0.09288   0.61078   0.64836   0.00000  Uiso   1.00
C934   C     0.16675   0.50001   0.40687   0.00000  Uiso   1.00
C935   C     0.16668   0.50000   0.59313   0.00000  Uiso   1.00
C936   C     0.16681   0.50004   0.35518   0.00000  Uiso   1.00
C937   C     0.16679   0.50002   0.64482   0.00000  Uiso   1.00
C938   C     0.02168   0.46181   0.48013   0.00000  Uiso   1.00
C939   C     0.31259   0.54248   0.50638   0.00000  Uiso   1.00
C940   C     0.31331   0.45873   0.48863   0.00000  Uiso   1.00
Cu941  Cu    0.16667   0.54689   0.50000   0.00000  Uiso   1.00
Cu942  Cu    0.16667   0.45311   0.50000   0.00000  Uiso   1.00
H943   H     0.08444   0.45694   0.41045   0.00000  Uiso   1.00
H944   H     0.00275   0.64905   0.45681   0.00000  Uiso   1.00
H945   H     0.01136   0.59282   0.42888   0.00000  Uiso   1.00
H946   H     0.28950   0.33839   0.38875   0.00000  Uiso   1.00
H947   H     0.29425   0.61389   0.36187   0.00000  Uiso   1.00
H948   H     0.00455   0.65150   0.36540   0.00000  Uiso   1.00
H949   H     0.26913   0.36300   0.52071   0.00000  Uiso   1.00
H950   H     0.27169   0.41700   0.55353   0.00000  Uiso   1.00
H951   H     0.01309   0.35545   0.52750   0.00000  Uiso   1.00
H952   H     0.01338   0.40767   0.56435   0.00000  Uiso   1.00
H953   H     0.29911   0.36990   0.62407   0.00000  Uiso   1.00
H954   H     0.03267   0.47223   0.39354   0.00000  Uiso   1.00
H955   H     0.01305   0.33850   0.61754   0.00000  Uiso   1.00
H956   H     0.30083   0.64999   0.58816   0.00000  Uiso   1.00
H957   H     0.06097   0.54133   0.59022   0.00000  Uiso   1.00
H958   H     0.02148   0.58470   0.60072   0.00000  Uiso   1.00
H959   H     0.11110   0.60378   0.57296   0.00000  Uiso   1.00
H960   H     0.07331   0.64785   0.58273   0.00000  Uiso   1.00
H961   H     0.10410   0.57554   0.65920   0.00000  Uiso   1.00
H962   H     0.06536   0.61942   0.33671   0.00000  Uiso   1.00
H963   H     0.11701   0.63677   0.65693   0.00000  Uiso   1.00
H964   H     0.12939   0.37697   0.43627   0.00000  Uiso   1.00
H965   H     0.06617   0.37200   0.38554   0.00000  Uiso   1.00
H966   H     0.20389   0.62308   0.56385   0.00000  Uiso   1.00
H967   H     0.20282   0.37641   0.56469   0.00000  Uiso   1.00
H968   H     0.12895   0.62354   0.43653   0.00000  Uiso   1.00
H969   H     0.01946   0.39656   0.36053   0.00000  Uiso   1.00
H970   H     0.06058   0.44982   0.64017   0.00000  Uiso   1.00
H971   H     0.07235   0.38903   0.62936   0.00000  Uiso   1.00
H972   H     0.10713   0.42401   0.66483   0.00000  Uiso   1.00
H973   H     0.26106   0.63004   0.46370   0.00000  Uiso   1.00
H974   H     0.27021   0.57410   0.43716   0.00000  Uiso   1.00
N975   N     0.16667   0.61736   0.50000   0.00000  Uiso   1.00
N976   N     0.16667   0.38264   0.50000   0.00000  Uiso   1.00
O977   O     0.10655   0.53958   0.50000   0.00000  Uiso   1.00
O978   O     0.29340   0.58570   0.50889   0.00000  Uiso   1.00
O979   O     0.29489   0.41581   0.48154   0.00000  Uiso   1.00
O980   O     0.04137   0.58079   0.52886   0.00000  Uiso   1.00
O981   O     0.22679   0.46042   0.50000   0.00000  Uiso   1.00
O982   O     0.22679   0.53958   0.50000   0.00000  Uiso   1.00
O983   O     0.10655   0.46042   0.50000   0.00000  Uiso   1.00
O984   O     0.16667   0.53959   0.42946   0.00000  Uiso   1.00
O985   O     0.16667   0.46041   0.57054   0.00000  Uiso   1.00
O986   O     0.16667   0.53959   0.57054   0.00000  Uiso   1.00
O987   O     0.16667   0.46041   0.42946   0.00000  Uiso   1.00
O988   O     0.04062   0.42614   0.45424   0.00000  Uiso   1.00
C989   C     0.42084   0.50022   0.49943   0.00000  Uiso   1.00
C990   C     0.35472   0.54087   0.51324   0.00000  Uiso   1.00
C991   C     0.62430   0.50016   0.49877   0.00000  Uiso   1.00
C992   C     0.37642   0.50092   0.49785   0.00000  Uiso   1.00
C993   C     0.47929   0.35824   0.46463   0.00000  Uiso   1.00
C994   C     0.52055   0.64176   0.53550   0.00000  Uiso   1.00
C995   C     0.52011   0.35796   0.53583   0.00000  Uiso   1.00
C996   C     0.47913   0.64202   0.46474   0.00000  Uiso   1.00
C997   C     0.38613   0.44344   0.40772   0.00000  Uiso   1.00
C998   C     0.38516   0.40407   0.36993   0.00000  Uiso   1.00
C999   C     0.40767   0.41776   0.65655   0.00000  Uiso   1.00
C1000  C     0.57942   0.49994   0.49970   0.00000  Uiso   1.00
C1001  C     0.61757   0.60171   0.46063   0.00000  Uiso   1.00
C1002  C     0.65515   0.62109   0.43452   0.00000  Uiso   1.00
C1003  C     0.64319   0.64081   0.38454   0.00000  Uiso   1.00
C1004  C     0.62187   0.39398   0.52763   0.00000  Uiso   1.00
C1005  C     0.66140   0.37719   0.55283   0.00000  Uiso   1.00
C1006  C     0.65118   0.34876   0.59841   0.00000  Uiso   1.00
C1007  C     0.38306   0.57692   0.57972   0.00000  Uiso   1.00
C1008  C     0.41631   0.61206   0.59354   0.00000  Uiso   1.00
C1009  C     0.42621   0.61078   0.64836   0.00000  Uiso   1.00
C1010  C     0.50009   0.50001   0.40687   0.00000  Uiso   1.00
C1011  C     0.50002   0.50000   0.59313   0.00000  Uiso   1.00
C1012  C     0.50014   0.50004   0.35518   0.00000  Uiso   1.00
C1013  C     0.50013   0.50002   0.64482   0.00000  Uiso   1.00
C1014  C     0.35502   0.46181   0.48013   0.00000  Uiso   1.00
C1015  C     0.64592   0.54248   0.50638   0.00000  Uiso   1.00
C1016  C     0.64664   0.45873   0.48863   0.00000  Uiso   1.00
Cu1017 Cu    0.50000   0.54689   0.50000   0.00000  Uiso   1.00
Cu1018 Cu    0.50000   0.45311   0.50000   0.00000  Uiso   1.00
H1019  H     0.41777   0.45694   0.41045   0.00000  Uiso   1.00
H1020  H     0.33608   0.64905   0.45681   0.00000  Uiso   1.00
H1021  H     0.34470   0.59282   0.42888   0.00000  Uiso   1.00
H1022  H     0.62284   0.33839   0.38875   0.00000  Uiso   1.00
H1023  H     0.62758   0.61389   0.36187   0.00000  Uiso   1.00
H1024  H     0.33788   0.65150   0.36540   0.00000  Uiso   1.00
H1025  H     0.60246   0.36300   0.52071   0.00000  Uiso   1.00
H1026  H     0.60503   0.41700   0.55353   0.00000  Uiso   1.00
H1027  H     0.34643   0.35545   0.52750   0.00000  Uiso   1.00
H1028  H     0.34672   0.40767   0.56435   0.00000  Uiso   1.00
H1029  H     0.63244   0.36990   0.62407   0.00000  Uiso   1.00
H1030  H     0.36600   0.47223   0.39354   0.00000  Uiso   1.00
H1031  H     0.34639   0.33850   0.61754   0.00000  Uiso   1.00
H1032  H     0.63417   0.64999   0.58816   0.00000  Uiso   1.00
H1033  H     0.39430   0.54133   0.59022   0.00000  Uiso   1.00
H1034  H     0.35482   0.58470   0.60072   0.00000  Uiso   1.00
H1035  H     0.44444   0.60378   0.57296   0.00000  Uiso   1.00
H1036  H     0.40665   0.64785   0.58273   0.00000  Uiso   1.00
H1037  H     0.43743   0.57554   0.65920   0.00000  Uiso   1.00
H1038  H     0.39869   0.61942   0.33671   0.00000  Uiso   1.00
H1039  H     0.45034   0.63677   0.65693   0.00000  Uiso   1.00
H1040  H     0.46272   0.37697   0.43627   0.00000  Uiso   1.00
H1041  H     0.39950   0.37200   0.38554   0.00000  Uiso   1.00
H1042  H     0.53722   0.62308   0.56385   0.00000  Uiso   1.00
H1043  H     0.53616   0.37641   0.56469   0.00000  Uiso   1.00
H1044  H     0.46228   0.62354   0.43653   0.00000  Uiso   1.00
H1045  H     0.35279   0.39656   0.36053   0.00000  Uiso   1.00
H1046  H     0.39391   0.44982   0.64017   0.00000  Uiso   1.00
H1047  H     0.40568   0.38903   0.62936   0.00000  Uiso   1.00
H1048  H     0.44046   0.42401   0.66483   0.00000  Uiso   1.00
H1049  H     0.59439   0.63004   0.46370   0.00000  Uiso   1.00
H1050  H     0.60354   0.57410   0.43716   0.00000  Uiso   1.00
N1051  N     0.50000   0.61736   0.50000   0.00000  Uiso   1.00
N1052  N     0.50000   0.38264   0.50000   0.00000  Uiso   1.00
O1053  O     0.43988   0.53958   0.50000   0.00000  Uiso   1.00
O1054  O     0.62674   0.58570   0.50889   0.00000  Uiso   1.00
O1055  O     0.62822   0.41581   0.48154   0.00000  Uiso   1.00
O1056  O     0.37470   0.58079   0.52886   0.00000  Uiso   1.00
O1057  O     0.56012   0.46042   0.50000   0.00000  Uiso   1.00
O1058  O     0.56012   0.53958   0.50000   0.00000  Uiso   1.00
O1059  O     0.43988   0.46042   0.50000   0.00000  Uiso   1.00
O1060  O     0.50000   0.53959   0.42946   0.00000  Uiso   1.00
O1061  O     0.50000   0.46041   0.57054   0.00000  Uiso   1.00
O1062  O     0.50000   0.53959   0.57054   0.00000  Uiso   1.00
O1063  O     0.50000   0.46041   0.42946   0.00000  Uiso   1.00
O1064  O     0.37395   0.42614   0.45424   0.00000  Uiso   1.00
C1065  C     0.75417   0.50022   0.49943   0.00000  Uiso   1.00
C1066  C     0.68806   0.54087   0.51324   0.00000  Uiso   1.00
C1067  C     0.95764   0.50016   0.49877   0.00000  Uiso   1.00
C1068  C     0.70975   0.50092   0.49785   0.00000  Uiso   1.00
C1069  C     0.81262   0.35824   0.46463   0.00000  Uiso   1.00
C1070  C     0.85388   0.64176   0.53550   0.00000  Uiso   1.00
C1071  C     0.85344   0.35796   0.53583   0.00000  Uiso   1.00
C1072  C     0.81246   0.64202   0.46474   0.00000  Uiso   1.00
C1073  C     0.71946   0.44344   0.40772   0.00000  Uiso   1.00
C1074  C     0.71849   0.40407   0.36993   0.00000  Uiso   1.00
C1075  C     0.74101   0.41776   0.65655   0.00000  Uiso   1.00
C1076  C     0.91275   0.49994   0.49970   0.00000  Uiso   1.00
C1077  C     0.95090   0.60171   0.46063   0.00000  Uiso   1.00
C1078  C     0.98848   0.62109   0.43452   0.00000  Uiso   1.00
C1079  C     0.97653   0.64081   0.38454   0.00000  Uiso   1.00
C1080  C     0.95521   0.39398   0.52763   0.00000  Uiso   1.00
C1081  C     0.99473   0.37719   0.55283   0.00000  Uiso   1.00
C1082  C     0.98451   0.34876   0.59841   0.00000  Uiso   1.00
C1083  C     0.71639   0.57692   0.57972   0.00000  Uiso   1.00
C1084  C     0.74964   0.61206   0.59354   0.00000  Uiso   1.00
C1085  C     0.75954   0.61078   0.64836   0.00000  Uiso   1.00
C1086  C     0.83342   0.50001   0.40687   0.00000  Uiso   1.00
C1087  C     0.83335   0.50000   0.59313   0.00000  Uiso   1.00
C1088  C     0.83348   0.50004   0.35518   0.00000  Uiso   1.00
C1089  C     0.83346   0.50002   0.64482   0.00000  Uiso   1.00
C1090  C     0.68835   0.46181   0.48013   0.00000  Uiso   1.00
C1091  C     0.97925   0.54248   0.50638   0.00000  Uiso   1.00
C1092  C     0.97997   0.45873   0.48863   0.00000  Uiso   1.00
Cu1093 Cu    0.83333   0.54689   0.50000   0.00000  Uiso   1.00
Cu1094 Cu    0.83333   0.45311   0.50000   0.00000  Uiso   1.00
H1095  H     0.75111   0.45694   0.41045   0.00000  Uiso   1.00
H1096  H     0.66942   0.64905   0.45681   0.00000  Uiso   1.00
H1097  H     0.67803   0.59282   0.42888   0.00000  Uiso   1.00
H1098  H     0.95617   0.33839   0.38875   0.00000  Uiso   1.00
H1099  H     0.96091   0.61389   0.36187   0.00000  Uiso   1.00
H1100  H     0.67121   0.65150   0.36540   0.00000  Uiso   1.00
H1101  H     0.93579   0.36300   0.52071   0.00000  Uiso   1.00
H1102  H     0.93836   0.41700   0.55353   0.00000  Uiso   1.00
H1103  H     0.67976   0.35545   0.52750   0.00000  Uiso   1.00
H1104  H     0.68005   0.40767   0.56435   0.00000  Uiso   1.00
H1105  H     0.96577   0.36990   0.62407   0.00000  Uiso   1.00
H1106  H     0.69933   0.47223   0.39354   0.00000  Uiso   1.00
H1107  H     0.67972   0.33850   0.61754   0.00000  Uiso   1.00
H1108  H     0.96750   0.64999   0.58816   0.00000  Uiso   1.00
H1109  H     0.72763   0.54133   0.59022   0.00000  Uiso   1.00
H1110  H     0.68815   0.58470   0.60072   0.00000  Uiso   1.00
H1111  H     0.77777   0.60378   0.57296   0.00000  Uiso   1.00
H1112  H     0.73998   0.64785   0.58273   0.00000  Uiso   1.00
H1113  H     0.77076   0.57554   0.65920   0.00000  Uiso   1.00
H1114  H     0.73203   0.61942   0.33671   0.00000  Uiso   1.00
H1115  H     0.78367   0.63677   0.65693   0.00000  Uiso   1.00
H1116  H     0.79605   0.37697   0.43627   0.00000  Uiso   1.00
H1117  H     0.73284   0.37200   0.38554   0.00000  Uiso   1.00
H1118  H     0.87056   0.62308   0.56385   0.00000  Uiso   1.00
H1119  H     0.86949   0.37641   0.56469   0.00000  Uiso   1.00
H1120  H     0.79561   0.62354   0.43653   0.00000  Uiso   1.00
H1121  H     0.68613   0.39656   0.36053   0.00000  Uiso   1.00
H1122  H     0.72724   0.44982   0.64017   0.00000  Uiso   1.00
H1123  H     0.73902   0.38903   0.62936   0.00000  Uiso   1.00
H1124  H     0.77379   0.42401   0.66483   0.00000  Uiso   1.00
H1125  H     0.92773   0.63004   0.46370   0.00000  Uiso   1.00
H1126  H     0.93688   0.57410   0.43716   0.00000  Uiso   1.00
N1127  N     0.83333   0.61736   0.50000   0.00000  Uiso   1.00
N1128  N     0.83333   0.38264   0.50000   0.00000  Uiso   1.00
O1129  O     0.77321   0.53958   0.50000   0.00000  Uiso   1.00
O1130  O     0.96007   0.58570   0.50889   0.00000  Uiso   1.00
O1131  O     0.96156   0.41581   0.48154   0.00000  Uiso   1.00
O1132  O     0.70803   0.58079   0.52886   0.00000  Uiso   1.00
O1133  O     0.89345   0.46042   0.50000   0.00000  Uiso   1.00
O1134  O     0.89345   0.53958   0.50000   0.00000  Uiso   1.00
O1135  O     0.77321   0.46042   0.50000   0.00000  Uiso   1.00
O1136  O     0.83333   0.53959   0.42946   0.00000  Uiso   1.00
O1137  O     0.83333   0.46041   0.57054   0.00000  Uiso   1.00
O1138  O     0.83333   0.53959   0.57054   0.00000  Uiso   1.00
O1139  O     0.83333   0.46041   0.42946   0.00000  Uiso   1.00
O1140  O     0.70728   0.42614   0.45424   0.00000  Uiso   1.00
C1141  C     0.08751   0.83356   0.49943   0.00000  Uiso   1.00
C1142  C     0.02139   0.87421   0.51324   0.00000  Uiso   1.00
C1143  C     0.29097   0.83349   0.49877   0.00000  Uiso   1.00
C1144  C     0.04308   0.83425   0.49785   0.00000  Uiso   1.00
C1145  C     0.14595   0.69158   0.46463   0.00000  Uiso   1.00
C1146  C     0.18721   0.97509   0.53550   0.00000  Uiso   1.00
C1147  C     0.18678   0.69129   0.53583   0.00000  Uiso   1.00
C1148  C     0.14580   0.97535   0.46474   0.00000  Uiso   1.00
C1149  C     0.05280   0.77677   0.40772   0.00000  Uiso   1.00
C1150  C     0.05182   0.73740   0.36993   0.00000  Uiso   1.00
C1151  C     0.07434   0.75109   0.65655   0.00000  Uiso   1.00
C1152  C     0.24608   0.83327   0.49970   0.00000  Uiso   1.00
C1153  C     0.28423   0.93505   0.46063   0.00000  Uiso   1.00
C1154  C     0.32182   0.95442   0.43452   0.00000  Uiso   1.00
C1155  C     0.30986   0.97414   0.38454   0.00000  Uiso   1.00
C1156  C     0.28854   0.72731   0.52763   0.00000  Uiso   1.00
C1157  C     0.32806   0.71052   0.55283   0.00000  Uiso   1.00
C1158  C     0.31785   0.68209   0.59841   0.00000  Uiso   1.00
C1159  C     0.04973   0.91026   0.57972   0.00000  Uiso   1.00
C1160  C     0.08297   0.94539   0.59354   0.00000  Uiso   1.00
C1161  C     0.09288   0.94411   0.64836   0.00000  Uiso   1.00
C1162  C     0.16675   0.83335   0.40687   0.00000  Uiso   1.00
C1163  C     0.16668   0.83333   0.59313   0.00000  Uiso   1.00
C1164  C     0.16681   0.83337   0.35518   0.00000  Uiso   1.00
C1165  C     0.16679   0.83335   0.64482   0.00000  Uiso   1.00
C1166  C     0.02168   0.79514   0.48013   0.00000  Uiso   1.00
C1167  C     0.31259   0.87582   0.50638   0.00000  Uiso   1.00
C1168  C     0.31331   0.79206   0.48863   0.00000  Uiso   1.00
Cu1169 Cu    0.16667   0.88022   0.50000   0.00000  Uiso   1.00
Cu1170 Cu    0.16667   0.78645   0.50000   0.00000  Uiso   1.00
H1171  H     0.08444   0.79027   0.41045   0.00000  Uiso   1.00
H1172  H     0.00275   0.98238   0.45681   0.00000  Uiso   1.00
H1173  H     0.01136   0.92616   0.42888   0.00000  Uiso   1.00
H1174  H     0.28950   0.67172   0.38875   0.00000  Uiso   1.00
H1175  H     0.29425   0.94722   0.36187   0.00000  Uiso   1.00
H1176  H     0.00455   0.98483   0.36540   0.00000  Uiso   1.00
H1177  H     0.26913   0.69633   0.52071   0.00000  Uiso   1.00
H1178  H     0.27169   0.75033   0.55353   0.00000  Uiso   1.00
H1179  H     0.01309   0.68879   0.52750   0.00000  Uiso   1.00
H1180  H     0.01338   0.74101   0.56435   0.00000  Uiso   1.00
H1181  H     0.29911   0.70324   0.62407   0.00000  Uiso   1.00
H1182  H     0.03267   0.80556   0.39354   0.00000  Uiso   1.00
H1183  H     0.01305   0.67183   0.61754   0.00000  Uiso   1.00
H1184  H     0.30083   0.98333   0.58816   0.00000  Uiso   1.00
H1185  H     0.06097   0.87466   0.59022   0.00000  Uiso   1.00
H1186  H     0.02148   0.91803   0.60072   0.00000  Uiso   1.00
H1187  H     0.11110   0.93712   0.57296   0.00000  Uiso   1.00
H1188  H     0.07331   0.98119   0.58273   0.00000  Uiso   1.00
H1189  H     0.10410   0.90887   0.65920   0.00000  Uiso   1.00
H1190  H     0.06536   0.95276   0.33671   0.00000  Uiso   1.00
H1191  H     0.11701   0.97010   0.65693   0.00000  Uiso   1.00
H1192  H     0.12939   0.71030   0.43627   0.00000  Uiso   1.00
H1193  H     0.06617   0.70533   0.38554   0.00000  Uiso   1.00
H1194  H     0.20389   0.95642   0.56385   0.00000  Uiso   1.00
H1195  H     0.20282   0.70974   0.56469   0.00000  Uiso   1.00
H1196  H     0.12895   0.95688   0.43653   0.00000  Uiso   1.00
H1197  H     0.01946   0.72990   0.36053   0.00000  Uiso   1.00
H1198  H     0.06058   0.78315   0.64017   0.00000  Uiso   1.00
H1199  H     0.07235   0.72237   0.62936   0.00000  Uiso   1.00
H1200  H     0.10713   0.75735   0.66483   0.00000  Uiso   1.00
H1201  H     0.26106   0.96338   0.46370   0.00000  Uiso   1.00
H1202  H     0.27021   0.90744   0.43716   0.00000  Uiso   1.00
N1203  N     0.16667   0.95069   0.50000   0.00000  Uiso   1.00
N1204  N     0.16667   0.71598   0.50000   0.00000  Uiso   1.00
O1205  O     0.10655   0.87291   0.50000   0.00000  Uiso   1.00
O1206  O     0.29340   0.91904   0.50889   0.00000  Uiso   1.00
O1207  O     0.29489   0.74915   0.48154   0.00000  Uiso   1.00
O1208  O     0.04137   0.91413   0.52886   0.00000  Uiso   1.00
O1209  O     0.22679   0.79375   0.50000   0.00000  Uiso   1.00
O1210  O     0.22679   0.87291   0.50000   0.00000  Uiso   1.00
O1211  O     0.10655   0.79375   0.50000   0.00000  Uiso   1.00
O1212  O     0.16667   0.87292   0.42946   0.00000  Uiso   1.00
O1213  O     0.16667   0.79375   0.57054   0.00000  Uiso   1.00
O1214  O     0.16667   0.87292   0.57054   0.00000  Uiso   1.00
O1215  O     0.16667   0.79375   0.42946   0.00000  Uiso   1.00
O1216  O     0.04062   0.75947   0.45424   0.00000  Uiso   1.00
C1217  C     0.42084   0.83356   0.49943   0.00000  Uiso   1.00
C1218  C     0.35472   0.87421   0.51324   0.00000  Uiso   1.00
C1219  C     0.62430   0.83349   0.49877   0.00000  Uiso   1.00
C1220  C     0.37642   0.83425   0.49785   0.00000  Uiso   1.00
C1221  C     0.47929   0.69158   0.46463   0.00000  Uiso   1.00
C1222  C     0.52055   0.97509   0.53550   0.00000  Uiso   1.00
C1223  C     0.52011   0.69129   0.53583   0.00000  Uiso   1.00
C1224  C     0.47913   0.97535   0.46474   0.00000  Uiso   1.00
C1225  C     0.38613   0.77677   0.40772   0.00000  Uiso   1.00
C1226  C     0.38516   0.73740   0.36993   0.00000  Uiso   1.00
C1227  C     0.40767   0.75109   0.65655   0.00000  Uiso   1.00
C1228  C     0.57942   0.83327   0.49970   0.00000  Uiso   1.00
C1229  C     0.61757   0.93505   0.46063   0.00000  Uiso   1.00
C1230  C     0.65515   0.95442   0.43452   0.00000  Uiso   1.00
C1231  C     0.64319   0.97414   0.38454   0.00000  Uiso   1.00
C1232  C     0.62187   0.72731   0.52763   0.00000  Uiso   1.00
C1233  C     0.66140   0.71052   0.55283   0.00000  Uiso   1.00
C1234  C     0.65118   0.68209   0.59841   0.00000  Uiso   1.00
C1235  C     0.38306   0.91026   0.57972   0.00000  Uiso   1.00
C1236  C     0.41631   0.94539   0.59354   0.00000  Uiso   1.00
C1237  C     0.42621   0.94411   0.64836   0.00000  Uiso   1.00
C1238  C     0.50009   0.83335   0.40687   0.00000  Uiso   1.00
C1239  C     0.50002   0.83333   0.59313   0.00000  Uiso   1.00
C1240  C     0.50014   0.83337   0.35518   0.00000  Uiso   1.00
C1241  C     0.50013   0.83335   0.64482   0.00000  Uiso   1.00
C1242  C     0.35502   0.79514   0.48013   0.00000  Uiso   1.00
C1243  C     0.64592   0.87582   0.50638   0.00000  Uiso   1.00
C1244  C     0.64664   0.79206   0.48863   0.00000  Uiso   1.00
Cu1245 Cu    0.50000   0.88022   0.50000   0.00000  Uiso   1.00
Cu1246 Cu    0.50000   0.78645   0.50000   0.00000  Uiso   1.00
H1247  H     0.41777   0.79027   0.41045   0.00000  Uiso   1.00
H1248  H     0.33608   0.98238   0.45681   0.00000  Uiso   1.00
H1249  H     0.34470   0.92616   0.42888   0.00000  Uiso   1.00
H1250  H     0.62284   0.67172   0.38875   0.00000  Uiso   1.00
H1251  H     0.62758   0.94722   0.36187   0.00000  Uiso   1.00
H1252  H     0.33788   0.98483   0.36540   0.00000  Uiso   1.00
H1253  H     0.60246   0.69633   0.52071   0.00000  Uiso   1.00
H1254  H     0.60503   0.75033   0.55353   0.00000  Uiso   1.00
H1255  H     0.34643   0.68879   0.52750   0.00000  Uiso   1.00
H1256  H     0.34672   0.74101   0.56435   0.00000  Uiso   1.00
H1257  H     0.63244   0.70324   0.62407   0.00000  Uiso   1.00
H1258  H     0.36600   0.80556   0.39354   0.00000  Uiso   1.00
H1259  H     0.34639   0.67183   0.61754   0.00000  Uiso   1.00
H1260  H     0.63417   0.98333   0.58816   0.00000  Uiso   1.00
H1261  H     0.39430   0.87466   0.59022   0.00000  Uiso   1.00
H1262  H     0.35482   0.91803   0.60072   0.00000  Uiso   1.00
H1263  H     0.44444   0.93712   0.57296   0.00000  Uiso   1.00
H1264  H     0.40665   0.98119   0.58273   0.00000  Uiso   1.00
H1265  H     0.43743   0.90887   0.65920   0.00000  Uiso   1.00
H1266  H     0.39869   0.95276   0.33671   0.00000  Uiso   1.00
H1267  H     0.45034   0.97010   0.65693   0.00000  Uiso   1.00
H1268  H     0.46272   0.71030   0.43627   0.00000  Uiso   1.00
H1269  H     0.39950   0.70533   0.38554   0.00000  Uiso   1.00
H1270  H     0.53722   0.95642   0.56385   0.00000  Uiso   1.00
H1271  H     0.53616   0.70974   0.56469   0.00000  Uiso   1.00
H1272  H     0.46228   0.95688   0.43653   0.00000  Uiso   1.00
H1273  H     0.35279   0.72990   0.36053   0.00000  Uiso   1.00
H1274  H     0.39391   0.78315   0.64017   0.00000  Uiso   1.00
H1275  H     0.40568   0.72237   0.62936   0.00000  Uiso   1.00
H1276  H     0.44046   0.75735   0.66483   0.00000  Uiso   1.00
H1277  H     0.59439   0.96338   0.46370   0.00000  Uiso   1.00
H1278  H     0.60354   0.90744   0.43716   0.00000  Uiso   1.00
N1279  N     0.50000   0.95069   0.50000   0.00000  Uiso   1.00
N1280  N     0.50000   0.71598   0.50000   0.00000  Uiso   1.00
O1281  O     0.43988   0.87291   0.50000   0.00000  Uiso   1.00
O1282  O     0.62674   0.91904   0.50889   0.00000  Uiso   1.00
O1283  O     0.62822   0.74915   0.48154   0.00000  Uiso   1.00
O1284  O     0.37470   0.91413   0.52886   0.00000  Uiso   1.00
O1285  O     0.56012   0.79375   0.50000   0.00000  Uiso   1.00
O1286  O     0.56012   0.87291   0.50000   0.00000  Uiso   1.00
O1287  O     0.43988   0.79375   0.50000   0.00000  Uiso   1.00
O1288  O     0.50000   0.87292   0.42946   0.00000  Uiso   1.00
O1289  O     0.50000   0.79375   0.57054   0.00000  Uiso   1.00
O1290  O     0.50000   0.87292   0.57054   0.00000  Uiso   1.00
O1291  O     0.50000   0.79375   0.42946   0.00000  Uiso   1.00
O1292  O     0.37395   0.75947   0.45424   0.00000  Uiso   1.00
C1293  C     0.75417   0.83356   0.49943   0.00000  Uiso   1.00
C1294  C     0.68806   0.87421   0.51324   0.00000  Uiso   1.00
C1295  C     0.95764   0.83349   0.49877   0.00000  Uiso   1.00
C1296  C     0.70975   0.83425   0.49785   0.00000  Uiso   1.00
C1297  C     0.81262   0.69158   0.46463   0.00000  Uiso   1.00
C1298  C     0.85388   0.97509   0.53550   0.00000  Uiso   1.00
C1299  C     0.85344   0.69129   0.53583   0.00000  Uiso   1.00
C1300  C     0.81246   0.97535   0.46474   0.00000  Uiso   1.00
C1301  C     0.71946   0.77677   0.40772   0.00000  Uiso   1.00
C1302  C     0.71849   0.73740   0.36993   0.00000  Uiso   1.00
C1303  C     0.74101   0.75109   0.65655   0.00000  Uiso   1.00
C1304  C     0.91275   0.83327   0.49970   0.00000  Uiso   1.00
C1305  C     0.95090   0.93505   0.46063   0.00000  Uiso   1.00
C1306  C     0.98848   0.95442   0.43452   0.00000  Uiso   1.00
C1307  C     0.97653   0.97414   0.38454   0.00000  Uiso   1.00
C1308  C     0.95521   0.72731   0.52763   0.00000  Uiso   1.00
C1309  C     0.99473   0.71052   0.55283   0.00000  Uiso   1.00
C1310  C     0.98451   0.68209   0.59841   0.00000  Uiso   1.00
C1311  C     0.71639   0.91026   0.57972   0.00000  Uiso   1.00
C1312  C     0.74964   0.94539   0.59354   0.00000  Uiso   1.00
C1313  C     0.75954   0.94411   0.64836   0.00000  Uiso   1.00
C1314  C     0.83342   0.83335   0.40687   0.00000  Uiso   1.00
C1315  C     0.83335   0.83333   0.59313   0.00000  Uiso   1.00
C1316  C     0.83348   0.83337   0.35518   0.00000  Uiso   1.00
C1317  C     0.83346   0.83335   0.64482   0.00000  Uiso   1.00
C1318  C     0.68835   0.79514   0.48013   0.00000  Uiso   1.00
C1319  C     0.97925   0.87582   0.50638   0.00000  Uiso   1.00
C1320  C     0.97997   0.79206   0.48863   0.00000  Uiso   1.00
Cu1321 Cu    0.83333   0.88022   0.50000   0.00000  Uiso   1.00
Cu1322 Cu    0.83333   0.78645   0.50000   0.00000  Uiso   1.00
H1323  H     0.75111   0.79027   0.41045   0.00000  Uiso   1.00
H1324  H     0.66942   0.98238   0.45681   0.00000  Uiso   1.00
H1325  H     0.67803   0.92616   0.42888   0.00000  Uiso   1.00
H1326  H     0.95617   0.67172   0.38875   0.00000  Uiso   1.00
H1327  H     0.96091   0.94722   0.36187   0.00000  Uiso   1.00
H1328  H     0.67121   0.98483   0.36540   0.00000  Uiso   1.00
H1329  H     0.93579   0.69633   0.52071   0.00000  Uiso   1.00
H1330  H     0.93836   0.75033   0.55353   0.00000  Uiso   1.00
H1331  H     0.67976   0.68879   0.52750   0.00000  Uiso   1.00
H1332  H     0.68005   0.74101   0.56435   0.00000  Uiso   1.00
H1333  H     0.96577   0.70324   0.62407   0.00000  Uiso   1.00
H1334  H     0.69933   0.80556   0.39354   0.00000  Uiso   1.00
H1335  H     0.67972   0.67183   0.61754   0.00000  Uiso   1.00
H1336  H     0.96750   0.98333   0.58816   0.00000  Uiso   1.00
H1337  H     0.72763   0.87466   0.59022   0.00000  Uiso   1.00
H1338  H     0.68815   0.91803   0.60072   0.00000  Uiso   1.00
H1339  H     0.77777   0.93712   0.57296   0.00000  Uiso   1.00
H1340  H     0.73998   0.98119   0.58273   0.00000  Uiso   1.00
H1341  H     0.77076   0.90887   0.65920   0.00000  Uiso   1.00
H1342  H     0.73203   0.95276   0.33671   0.00000  Uiso   1.00
H1343  H     0.78367   0.97010   0.65693   0.00000  Uiso   1.00
H1344  H     0.79605   0.71030   0.43627   0.00000  Uiso   1.00
H1345  H     0.73284   0.70533   0.38554   0.00000  Uiso   1.00
H1346  H     0.87056   0.95642   0.56385   0.00000  Uiso   1.00
H1347  H     0.86949   0.70974   0.56469   0.00000  Uiso   1.00
H1348  H     0.79561   0.95688   0.43653   0.00000  Uiso   1.00
H1349  H     0.68613   0.72990   0.36053   0.00000  Uiso   1.00
H1350  H     0.72724   0.78315   0.64017   0.00000  Uiso   1.00
H1351  H     0.73902   0.72237   0.62936   0.00000  Uiso   1.00
H1352  H     0.77379   0.75735   0.66483   0.00000  Uiso   1.00
H1353  H     0.92773   0.96338   0.46370   0.00000  Uiso   1.00
H1354  H     0.93688   0.90744   0.43716   0.00000  Uiso   1.00
N1355  N     0.83333   0.95069   0.50000   0.00000  Uiso   1.00
N1356  N     0.83333   0.71598   0.50000   0.00000  Uiso   1.00
O1357  O     0.77321   0.87291   0.50000   0.00000  Uiso   1.00
O1358  O     0.96007   0.91904   0.50889   0.00000  Uiso   1.00
O1359  O     0.96156   0.74915   0.48154   0.00000  Uiso   1.00
O1360  O     0.70803   0.91413   0.52886   0.00000  Uiso   1.00
O1361  O     0.89345   0.79375   0.50000   0.00000  Uiso   1.00
O1362  O     0.89345   0.87291   0.50000   0.00000  Uiso   1.00
O1363  O     0.77321   0.79375   0.50000   0.00000  Uiso   1.00
O1364  O     0.83333   0.87292   0.42946   0.00000  Uiso   1.00
O1365  O     0.83333   0.79375   0.57054   0.00000  Uiso   1.00
O1366  O     0.83333   0.87292   0.57054   0.00000  Uiso   1.00
O1367  O     0.83333   0.79375   0.42946   0.00000  Uiso   1.00
O1368  O     0.70728   0.75947   0.45424   0.00000  Uiso   1.00
C1369  C     0.08751   0.16689   0.83276   0.00000  Uiso   1.00
C1370  C     0.02139   0.20754   0.84657   0.00000  Uiso   1.00
C1371  C     0.29097   0.16682   0.83211   0.00000  Uiso   1.00
C1372  C     0.04308   0.16758   0.83118   0.00000  Uiso   1.00
C1373  C     0.14595   0.02491   0.79796   0.00000  Uiso   1.00
C1374  C     0.18721   0.30843   0.86884   0.00000  Uiso   1.00
C1375  C     0.18678   0.02462   0.86916   0.00000  Uiso   1.00
C1376  C     0.14580   0.30869   0.79807   0.00000  Uiso   1.00
C1377  C     0.05280   0.11010   0.74105   0.00000  Uiso   1.00
C1378  C     0.05182   0.07074   0.70327   0.00000  Uiso   1.00
C1379  C     0.07434   0.08443   0.98988   0.00000  Uiso   1.00
C1380  C     0.24608   0.16661   0.83303   0.00000  Uiso   1.00
C1381  C     0.28423   0.26838   0.79397   0.00000  Uiso   1.00
C1382  C     0.32182   0.28775   0.76786   0.00000  Uiso   1.00
C1383  C     0.30986   0.30747   0.71787   0.00000  Uiso   1.00
C1384  C     0.28854   0.06064   0.86096   0.00000  Uiso   1.00
C1385  C     0.32806   0.04385   0.88617   0.00000  Uiso   1.00
C1386  C     0.31785   0.01542   0.93174   0.00000  Uiso   1.00
C1387  C     0.04973   0.24359   0.91305   0.00000  Uiso   1.00
C1388  C     0.08297   0.27873   0.92688   0.00000  Uiso   1.00
C1389  C     0.09288   0.27745   0.98169   0.00000  Uiso   1.00
C1390  C     0.16675   0.16668   0.74021   0.00000  Uiso   1.00
C1391  C     0.16668   0.16667   0.92646   0.00000  Uiso   1.00
C1392  C     0.16681   0.16670   0.68851   0.00000  Uiso   1.00
C1393  C     0.16679   0.16668   0.97815   0.00000  Uiso   1.00
C1394  C     0.02168   0.12847   0.81347   0.00000  Uiso   1.00
C1395  C     0.31259   0.20915   0.83972   0.00000  Uiso   1.00
C1396  C     0.31331   0.12539   0.82197   0.00000  Uiso   1.00
Cu1397 Cu    0.16667   0.21355   0.83333   0.00000  Uiso   1.00
Cu1398 Cu    0.16667   0.11978   0.83333   0.00000  Uiso   1.00
H1399  H     0.08444   0.12361   0.74378   0.00000  Uiso   1.00
H1400  H     0.00275   0.31572   0.79014   0.00000  Uiso   1.00
H1401  H     0.01136   0.25949   0.76222   0.00000  Uiso   1.00
H1402  H     0.28950   0.00506   0.72209   0.00000  Uiso   1.00
H1403  H     0.29425   0.28056   0.69520   0.00000  Uiso   1.00
H1404  H     0.00455   0.31816   0.69873   0.00000  Uiso   1.00
H1405  H     0.26913   0.02967   0.85405   0.00000  Uiso   1.00
H1406  H     0.27169   0.08367   0.88687   0.00000  Uiso   1.00
H1407  H     0.01309   0.02212   0.86084   0.00000  Uiso   1.00
H1408  H     0.01338   0.07434   0.89768   0.00000  Uiso   1.00
H1409  H     0.29911   0.03657   0.95740   0.00000  Uiso   1.00
H1410  H     0.03267   0.13889   0.72687   0.00000  Uiso   1.00
H1411  H     0.01305   0.00516   0.95087   0.00000  Uiso   1.00
H1412  H     0.30083   0.31666   0.92149   0.00000  Uiso   1.00
H1413  H     0.06097   0.20800   0.92356   0.00000  Uiso   1.00
H1414  H     0.02148   0.25137   0.93406   0.00000  Uiso   1.00
H1415  H     0.11110   0.27045   0.90629   0.00000  Uiso   1.00
H1416  H     0.07331   0.31452   0.91607   0.00000  Uiso   1.00
H1417  H     0.10410   0.24221   0.99253   0.00000  Uiso   1.00
H1418  H     0.06536   0.28609   0.67005   0.00000  Uiso   1.00
H1419  H     0.11701   0.30344   0.99026   0.00000  Uiso   1.00
H1420  H     0.12939   0.04363   0.76960   0.00000  Uiso   1.00
H1421  H     0.06617   0.03866   0.71888   0.00000  Uiso   1.00
H1422  H     0.20389   0.28975   0.89719   0.00000  Uiso   1.00
H1423  H     0.20282   0.04308   0.89802   0.00000  Uiso   1.00
H1424  H     0.12895   0.29021   0.76986   0.00000  Uiso   1.00
H1425  H     0.01946   0.06323   0.69386   0.00000  Uiso   1.00
H1426  H     0.06058   0.11648   0.97351   0.00000  Uiso   1.00
H1427  H     0.07235   0.05570   0.96269   0.00000  Uiso   1.00
H1428  H     0.10713   0.09068   0.99817   0.00000  Uiso   1.00
H1429  H     0.26106   0.29671   0.79703   0.00000  Uiso   1.00
H1430  H     0.27021   0.24077   0.77049   0.00000  Uiso   1.00
N1431  N     0.16667   0.28402   0.83333   0.00000  Uiso   1.00
N1432  N     0.16667   0.04931   0.83333   0.00000  Uiso   1.00
O1433  O     0.10655   0.20625   0.83333   0.00000  Uiso   1.00
O1434  O     0.29340   0.25237   0.84222   0.00000  Uiso   1.00
O1435  O     0.29489   0.08248   0.81487   0.00000  Uiso   1.00
O1436  O     0.04137   0.24746   0.86219   0.00000  Uiso   1.00
O1437  O     0.22679   0.12709   0.83334   0.00000  Uiso   1.00
O1438  O     0.22679   0.20625   0.83334   0.00000  Uiso   1.00
O1439  O     0.10655   0.12709   0.83333   0.00000  Uiso   1.00
O1440  O     0.16667   0.20625   0.76280   0.00000  Uiso   1.00
O1441  O     0.16667   0.12708   0.90387   0.00000  Uiso   1.00
O1442  O     0.16667   0.20625   0.90387   0.00000  Uiso   1.00
O1443  O     0.16667   0.12708   0.76280   0.00000  Uiso   1.00
O1444  O     0.04062   0.09281   0.78757   0.00000  Uiso   1.00
C1445  C     0.42084   0.16689   0.83276   0.00000  Uiso   1.00
C1446  C     0.35472   0.20754   0.84657   0.00000  Uiso   1.00
C1447  C     0.62430   0.16682   0.83211   0.00000  Uiso   1.00
C1448  C     0.37642   0.16758   0.83118   0.00000  Uiso   1.00
C1449  C     0.47929   0.02491   0.79796   0.00000  Uiso   1.00
C1450  C     0.52055   0.30843   0.86884   0.00000  Uiso   1.00
C1451  C     0.52011   0.02462   0.86916   0.00000  Uiso   1.00
C1452  C     0.47913   0.30869   0.79807   0.00000  Uiso   1.00
C1453  C     0.38613   0.11010   0.74105   0.00000  Uiso   1.00
C1454  C     0.38516   0.07074   0.70327   0.00000  Uiso   1.00
C1455  C     0.40767   0.08443   0.98988   0.00000  Uiso   1.00
C1456  C     0.57942   0.16661   0.83303   0.00000  Uiso   1.00
C1457  C     0.61757   0.26838   0.79397   0.00000  Uiso   1.00
C1458  C     0.65515   0.28775   0.76786   0.00000  Uiso   1.00
C1459  C     0.64319   0.30747   0.71787   0.00000  Uiso   1.00
C1460  C     0.62187   0.06064   0.86096   0.00000  Uiso   1.00
C1461  C     0.66140   0.04385   0.88617   0.00000  Uiso   1.00
C1462  C     0.65118   0.01542   0.93174   0.00000  Uiso   1.00
C1463  C     0.38306   0.24359   0.91305   0.00000  Uiso   1.00
C1464  C     0.41631   0.27873   0.92688   0.00000  Uiso   1.00
C1465  C     0.42621   0.27745   0.98169   0.00000  Uiso   1.00
C1466  C     0.50009   0.16668   0.74021   0.00000  Uiso   1.00
C1467  C     0.50002   0.16667   0.92646   0.00000  Uiso   1.00
C1468  C     0.50014   0.16670   0.68851   0.00000  Uiso   1.00
C1469  C     0.50013   0.16668   0.97815   0.00000  Uiso   1.00
C1470  C     0.35502   0.12847   0.81347   0.00000  Uiso   1.00
C1471  C     0.64592   0.20915   0.83972   0.00000  Uiso   1.00
C1472  C     0.64664   0.12539   0.82197   0.00000  Uiso   1.00
Cu1473 Cu    0.50000   0.21355   0.83333   0.00000  Uiso   1.00
Cu1474 Cu    0.50000   0.11978   0.83333   0.00000  Uiso   1.00
H1475  H     0.41777   0.12361   0.74378   0.00000  Uiso   1.00
H1476  H     0.33608   0.31572   0.79014   0.00000  Uiso   1.00
H1477  H     0.34470   0.25949   0.76222   0.00000  Uiso   1.00
H1478  H     0.62284   0.00506   0.72209   0.00000  Uiso   1.00
H1479  H     0.62758   0.28056   0.69520   0.00000  Uiso   1.00
H1480  H     0.33788   0.31816   0.69873   0.00000  Uiso   1.00
H1481  H     0.60246   0.02967   0.85405   0.00000  Uiso   1.00
H1482  H     0.60503   0.08367   0.88687   0.00000  Uiso   1.00
H1483  H     0.34643   0.02212   0.86084   0.00000  Uiso   1.00
H1484  H     0.34672   0.07434   0.89768   0.00000  Uiso   1.00
H1485  H     0.63244   0.03657   0.95740   0.00000  Uiso   1.00
H1486  H     0.36600   0.13889   0.72687   0.00000  Uiso   1.00
H1487  H     0.34639   0.00516   0.95087   0.00000  Uiso   1.00
H1488  H     0.63417   0.31666   0.92149   0.00000  Uiso   1.00
H1489  H     0.39430   0.20800   0.92356   0.00000  Uiso   1.00
H1490  H     0.35482   0.25137   0.93406   0.00000  Uiso   1.00
H1491  H     0.44444   0.27045   0.90629   0.00000  Uiso   1.00
H1492  H     0.40665   0.31452   0.91607   0.00000  Uiso   1.00
H1493  H     0.43743   0.24221   0.99253   0.00000  Uiso   1.00
H1494  H     0.39869   0.28609   0.67005   0.00000  Uiso   1.00
H1495  H     0.45034   0.30344   0.99026   0.00000  Uiso   1.00
H1496  H     0.46272   0.04363   0.76960   0.00000  Uiso   1.00
H1497  H     0.39950   0.03866   0.71888   0.00000  Uiso   1.00
H1498  H     0.53722   0.28975   0.89719   0.00000  Uiso   1.00
H1499  H     0.53616   0.04308   0.89802   0.00000  Uiso   1.00
H1500  H     0.46228   0.29021   0.76986   0.00000  Uiso   1.00
H1501  H     0.35279   0.06323   0.69386   0.00000  Uiso   1.00
H1502  H     0.39391   0.11648   0.97351   0.00000  Uiso   1.00
H1503  H     0.40568   0.05570   0.96269   0.00000  Uiso   1.00
H1504  H     0.44046   0.09068   0.99817   0.00000  Uiso   1.00
H1505  H     0.59439   0.29671   0.79703   0.00000  Uiso   1.00
H1506  H     0.60354   0.24077   0.77049   0.00000  Uiso   1.00
N1507  N     0.50000   0.28402   0.83333   0.00000  Uiso   1.00
N1508  N     0.50000   0.04931   0.83333   0.00000  Uiso   1.00
O1509  O     0.43988   0.20625   0.83333   0.00000  Uiso   1.00
O1510  O     0.62674   0.25237   0.84222   0.00000  Uiso   1.00
O1511  O     0.62822   0.08248   0.81487   0.00000  Uiso   1.00
O1512  O     0.37470   0.24746   0.86219   0.00000  Uiso   1.00
O1513  O     0.56012   0.12709   0.83334   0.00000  Uiso   1.00
O1514  O     0.56012   0.20625   0.83334   0.00000  Uiso   1.00
O1515  O     0.43988   0.12709   0.83333   0.00000  Uiso   1.00
O1516  O     0.50000   0.20625   0.76280   0.00000  Uiso   1.00
O1517  O     0.50000   0.12708   0.90387   0.00000  Uiso   1.00
O1518  O     0.50000   0.20625   0.90387   0.00000  Uiso   1.00
O1519  O     0.50000   0.12708   0.76280   0.00000  Uiso   1.00
O1520  O     0.37395   0.09281   0.78757   0.00000  Uiso   1.00
C1521  C     0.75417   0.16689   0.83276   0.00000  Uiso   1.00
C1522  C     0.68806   0.20754   0.84657   0.00000  Uiso   1.00
C1523  C     0.95764   0.16682   0.83211   0.00000  Uiso   1.00
C1524  C     0.70975   0.16758   0.83118   0.00000  Uiso   1.00
C1525  C     0.81262   0.02491   0.79796   0.00000  Uiso   1.00
C1526  C     0.85388   0.30843   0.86884   0.00000  Uiso   1.00
C1527  C     0.85344   0.02462   0.86916   0.00000  Uiso   1.00
C1528  C     0.81246   0.30869   0.79807   0.00000  Uiso   1.00
C1529  C     0.71946   0.11010   0.74105   0.00000  Uiso   1.00
C1530  C     0.71849   0.07074   0.70327   0.00000  Uiso   1.00
C1531  C     0.74101   0.08443   0.98988   0.00000  Uiso   1.00
C1532  C     0.91275   0.16661   0.83303   0.00000  Uiso   1.00
C1533  C     0.95090   0.26838   0.79397   0.00000  Uiso   1.00
C1534  C     0.98848   0.28775   0.76786   0.00000  Uiso   1.00
C1535  C     0.97653   0.30747   0.71787   0.00000  Uiso   1.00
C1536  C     0.95521   0.06064   0.86096   0.00000  Uiso   1.00
C1537  C     0.99473   0.04385   0.88617   0.00000  Uiso   1.00
C1538  C     0.98451   0.01542   0.93174   0.00000  Uiso   1.00
C1539  C     0.71639   0.24359   0.91305   0.00000  Uiso   1.00
C1540  C     0.74964   0.27873   0.92688   0.00000  Uiso   1.00
C1541  C     0.75954   0.27745   0.98169   0.00000  Uiso   1.00
C1542  C     0.83342   0.16668   0.74021   0.00000  Uiso   1.00
C1543  C     0.83335   0.16667   0.92646   0.00000  Uiso   1.00
C1544  C     0.83348   0.16670   0.68851   0.00000  Uiso   1.00
C1545  C     0.83346   0.16668   0.97815   0.00000  Uiso   1.00
C1546  C     0.68835   0.12847   0.81347   0.00000  Uiso   1.00
C1547  C     0.97925   0.20915   0.83972   0.00000  Uiso   1.00
C1548  C     0.97997   0.12539   0.82197   0.00000  Uiso   1.00
Cu1549 Cu    0.83333   0.21355   0.83333   0.00000  Uiso   1.00
Cu1550 Cu    0.83333   0.11978   0.83333   0.00000  Uiso   1.00
H1551  H     0.75111   0.12361   0.74378   0.00000  Uiso   1.00
H1552  H     0.66942   0.31572   0.79014   0.00000  Uiso   1.00
H1553  H     0.67803   0.25949   0.76222   0.00000  Uiso   1.00
H1554  H     0.95617   0.00506   0.72209   0.00000  Uiso   1.00
H1555  H     0.96091   0.28056   0.69520   0.00000  Uiso   1.00
H1556  H     0.67121   0.31816   0.69873   0.00000  Uiso   1.00
H1557  H     0.93579   0.02967   0.85405   0.00000  Uiso   1.00
H1558  H     0.93836   0.08367   0.88687   0.00000  Uiso   1.00
H1559  H     0.67976   0.02212   0.86084   0.00000  Uiso   1.00
H1560  H     0.68005   0.07434   0.89768   0.00000  Uiso   1.00
H1561  H     0.96577   0.03657   0.95740   0.00000  Uiso   1.00
H1562  H     0.69933   0.13889   0.72687   0.00000  Uiso   1.00
H1563  H     0.67972   0.00516   0.95087   0.00000  Uiso   1.00
H1564  H     0.96750   0.31666   0.92149   0.00000  Uiso   1.00
H1565  H     0.72763   0.20800   0.92356   0.00000  Uiso   1.00
H1566  H     0.68815   0.25137   0.93406   0.00000  Uiso   1.00
H1567  H     0.77777   0.27045   0.90629   0.00000  Uiso   1.00
H1568  H     0.73998   0.31452   0.91607   0.00000  Uiso   1.00
H1569  H     0.77076   0.24221   0.99253   0.00000  Uiso   1.00
H1570  H     0.73203   0.28609   0.67005   0.00000  Uiso   1.00
H1571  H     0.78367   0.30344   0.99026   0.00000  Uiso   1.00
H1572  H     0.79605   0.04363   0.76960   0.00000  Uiso   1.00
H1573  H     0.73284   0.03866   0.71888   0.00000  Uiso   1.00
H1574  H     0.87056   0.28975   0.89719   0.00000  Uiso   1.00
H1575  H     0.86949   0.04308   0.89802   0.00000  Uiso   1.00
H1576  H     0.79561   0.29021   0.76986   0.00000  Uiso   1.00
H1577  H     0.68613   0.06323   0.69386   0.00000  Uiso   1.00
H1578  H     0.72724   0.11648   0.97351   0.00000  Uiso   1.00
H1579  H     0.73902   0.05570   0.96269   0.00000  Uiso   1.00
H1580  H     0.77379   0.09068   0.99817   0.00000  Uiso   1.00
H1581  H     0.92773   0.29671   0.79703   0.00000  Uiso   1.00
H1582  H     0.93688   0.24077   0.77049   0.00000  Uiso   1.00
N1583  N     0.83333   0.28402   0.83333   0.00000  Uiso   1.00
N1584  N     0.83333   0.04931   0.83333   0.00000  Uiso   1.00
O1585  O     0.77321   0.20625   0.83333   0.00000  Uiso   1.00
O1586  O     0.96007   0.25237   0.84222   0.00000  Uiso   1.00
O1587  O     0.96156   0.08248   0.81487   0.00000  Uiso   1.00
O1588  O     0.70803   0.24746   0.86219   0.00000  Uiso   1.00
O1589  O     0.89345   0.12709   0.83334   0.00000  Uiso   1.00
O1590  O     0.89345   0.20625   0.83334   0.00000  Uiso   1.00
O1591  O     0.77321   0.12709   0.83333   0.00000  Uiso   1.00
O1592  O     0.83333   0.20625   0.76280   0.00000  Uiso   1.00
O1593  O     0.83333   0.12708   0.90387   0.00000  Uiso   1.00
O1594  O     0.83333   0.20625   0.90387   0.00000  Uiso   1.00
O1595  O     0.83333   0.12708   0.76280   0.00000  Uiso   1.00
O1596  O     0.70728   0.09281   0.78757   0.00000  Uiso   1.00
C1597  C     0.08751   0.50022   0.83276   0.00000  Uiso   1.00
C1598  C     0.02139   0.54087   0.84657   0.00000  Uiso   1.00
C1599  C     0.29097   0.50016   0.83211   0.00000  Uiso   1.00
C1600  C     0.04308   0.50092   0.83118   0.00000  Uiso   1.00
C1601  C     0.14595   0.35824   0.79796   0.00000  Uiso   1.00
C1602  C     0.18721   0.64176   0.86884   0.00000  Uiso   1.00
C1603  C     0.18678   0.35796   0.86916   0.00000  Uiso   1.00
C1604  C     0.14580   0.64202   0.79807   0.00000  Uiso   1.00
C1605  C     0.05280   0.44344   0.74105   0.00000  Uiso   1.00
C1606  C     0.05182   0.40407   0.70327   0.00000  Uiso   1.00
C1607  C     0.07434   0.41776   0.98988   0.00000  Uiso   1.00
C1608  C     0.24608   0.49994   0.83303   0.00000  Uiso   1.00
C1609  C     0.28423   0.60171   0.79397   0.00000  Uiso   1.00
C1610  C     0.32182   0.62109   0.76786   0.00000  Uiso   1.00
C1611  C     0.30986   0.64081   0.71787   0.00000  Uiso   1.00
C1612  C     0.28854   0.39398   0.86096   0.00000  Uiso   1.00
C1613  C     0.32806   0.37719   0.88617   0.00000  Uiso   1.00
C1614  C     0.31785   0.34876   0.93174   0.00000  Uiso   1.00
C1615  C     0.04973   0.57692   0.91305   0.00000  Uiso   1.00
C1616  C     0.08297   0.61206   0.92688   0.00000  Uiso   1.00
C1617  C     0.09288   0.61078   0.98169   0.00000  Uiso   1.00
C1618  C     0.16675   0.50001   0.74021   0.00000  Uiso   1.00
C1619  C     0.16668   0.50000   0.92646   0.00000  Uiso   1.00
C1620  C     0.16681   0.50004   0.68851   0.00000  Uiso   1.00
C1621  C     0.16679   0.50002   0.97815   0.00000  Uiso   1.00
C1622  C     0.02168   0.46181   0.81347   0.00000  Uiso   1.00
C1623  C     0.31259   0.54248   0.83972   0.00000  Uiso   1.00
C1624  C     0.31331   0.45873   0.82197   0.00000  Uiso   1.00
Cu1625 Cu    0.16667   0.54689   0.83333   0.00000  Uiso   1.00
Cu1626 Cu    0.16667   0.45311   0.83333   0.00000  Uiso   1.00
H1627  H     0.08444   0.45694   0.74378   0.00000  Uiso   1.00
H1628  H     0.00275   0.64905   0.79014   0.00000  Uiso   1.00
H1629  H     0.01136   0.59282   0.76222   0.00000  Uiso   1.00
H1630  H     0.28950   0.33839   0.72209   0.00000  Uiso   1.00
H1631  H     0.29425   0.61389   0.69520   0.00000  Uiso   1.00
H1632  H     0.00455   0.65150   0.69873   0.00000  Uiso   1.00
H1633  H     0.26913   0.36300   0.85405   0.00000  Uiso   1.00
H1634  H     0.27169   0.41700   0.88687   0.00000  Uiso   1.00
H1635  H     0.01309   0.35545   0.86084   0.00000  Uiso   1.00
H1636  H     0.01338   0.40767   0.89768   0.00000  Uiso   1.00
H1637  H     0.29911   0.36990   0.95740   0.00000  Uiso   1.00
H1638  H     0.03267   0.47223   0.72687   0.00000  Uiso   1.00
H1639  H     0.01305   0.33850   0.95087   0.00000  Uiso   1.00
H1640  H     0.30083   0.64999   0.92149   0.00000  Uiso   1.00
H1641  H     0.06097   0.54133   0.92356   0.00000  Uiso   1.00
H1642  H     0.02148   0.58470   0.93406   0.00000  Uiso   1.00
H1643  H     0.11110   0.60378   0.90629   0.00000  Uiso   1.00
H1644  H     0.07331   0.64785   0.91607   0.00000  Uiso   1.00
H1645  H     0.10410   0.57554   0.99253   0.00000  Uiso   1.00
H1646  H     0.06536   0.61942   0.67005   0.00000  Uiso   1.00
H1647  H     0.11701   0.63677   0.99026   0.00000  Uiso   1.00
H1648  H     0.12939   0.37697   0.76960   0.00000  Uiso   1.00
H1649  H     0.06617   0.37200   0.71888   0.00000  Uiso   1.00
H1650  H     0.20389   0.62308   0.89719   0.00000  Uiso   1.00
H1651  H     0.20282   0.37641   0.89802   0.00000  Uiso   1.00
H1652  H     0.12895   0.62354   0.76986   0.00000  Uiso   1.00
H1653  H     0.01946   0.39656   0.69386   0.00000  Uiso   1.00
H1654  H     0.06058   0.44982   0.97351   0.00000  Uiso   1.00
H1655  H     0.07235   0.38903   0.96269   0.00000  Uiso   1.00
H1656  H     0.10713   0.42401   0.99817   0.00000  Uiso   1.00
H1657  H     0.26106   0.63004   0.79703   0.00000  Uiso   1.00
H1658  H     0.27021   0.57410   0.77049   0.00000  Uiso   1.00
N1659  N     0.16667   0.61736   0.83333   0.00000  Uiso   1.00
N1660  N     0.16667   0.38264   0.83333   0.00000  Uiso   1.00
O1661  O     0.10655   0.53958   0.83333   0.00000  Uiso   1.00
O1662  O     0.29340   0.58570   0.84222   0.00000  Uiso   1.00
O1663  O     0.29489   0.41581   0.81487   0.00000  Uiso   1.00
O1664  O     0.04137   0.58079   0.86219   0.00000  Uiso   1.00
O1665  O     0.22679   0.46042   0.83334   0.00000  Uiso   1.00
O1666  O     0.22679   0.53958   0.83334   0.00000  Uiso   1.00
O1667  O     0.10655   0.46042   0.83333   0.00000  Uiso   1.00
O1668  O     0.16667   0.53959   0.76280   0.00000  Uiso   1.00
O1669  O     0.16667   0.46041   0.90387   0.00000  Uiso   1.00
O1670  O     0.16667   0.53959   0.90387   0.00000  Uiso   1.00
O1671  O     0.16667   0.46041   0.76280   0.00000  Uiso   1.00
O1672  O     0.04062   0.42614   0.78757   0.00000  Uiso   1.00
C1673  C     0.42084   0.50022   0.83276   0.00000  Uiso   1.00
C1674  C     0.35472   0.54087   0.84657   0.00000  Uiso   1.00
C1675  C     0.62430   0.50016   0.83211   0.00000  Uiso   1.00
C1676  C     0.37642   0.50092   0.83118   0.00000  Uiso   1.00
C1677  C     0.47929   0.35824   0.79796   0.00000  Uiso   1.00
C1678  C     0.52055   0.64176   0.86884   0.00000  Uiso   1.00
C1679  C     0.52011   0.35796   0.86916   0.00000  Uiso   1.00
C1680  C     0.47913   0.64202   0.79807   0.00000  Uiso   1.00
C1681  C     0.38613   0.44344   0.74105   0.00000  Uiso   1.00
C1682  C     0.38516   0.40407   0.70327   0.00000  Uiso   1.00
C1683  C     0.40767   0.41776   0.98988   0.00000  Uiso   1.00
C1684  C     0.57942   0.49994   0.83303   0.00000  Uiso   1.00
C1685  C     0.61757   0.60171   0.79397   0.00000  Uiso   1.00
C1686  C     0.65515   0.62109   0.76786   0.00000  Uiso   1.00
C1687  C     0.64319   0.64081   0.71787   0.00000  Uiso   1.00
C1688  C     0.62187   0.39398   0.86096   0.00000  Uiso   1.00
C1689  C     0.66140   0.37719   0.88617   0.00000  Uiso   1.00
C1690  C     0.65118   0.34876   0.93174   0.00000  Uiso   1.00
C1691  C     0.38306   0.57692   0.91305   0.00000  Uiso   1.00
C1692  C     0.41631   0.61206   0.92688   0.00000  Uiso   1.00
C1693  C     0.42621   0.61078   0.98169   0.00000  Uiso   1.00
C1694  C     0.50009   0.50001   0.74021   0.00000  Uiso   1.00
C1695  C     0.50002   0.50000   0.92646   0.00000  Uiso   1.00
C1696  C     0.50014   0.50004   0.68851   0.00000  Uiso   1.00
C1697  C     0.50013   0.50002   0.97815   0.00000  Uiso   1.00
C1698  C     0.35502   0.46181   0.81347   0.00000  Uiso   1.00
C1699  C     0.64592   0.54248   0.83972   0.00000  Uiso   1.00
C1700  C     0.64664   0.45873   0.82197   0.00000  Uiso   1.00
Cu1701 Cu    0.50000   0.54689   0.83333   0.00000  Uiso   1.00
Cu1702 Cu    0.50000   0.45311   0.83333   0.00000  Uiso   1.00
H1703  H     0.41777   0.45694   0.74378   0.00000  Uiso   1.00
H1704  H     0.33608   0.64905   0.79014   0.00000  Uiso   1.00
H1705  H     0.34470   0.59282   0.76222   0.00000  Uiso   1.00
H1706  H     0.62284   0.33839   0.72209   0.00000  Uiso   1.00
H1707  H     0.62758   0.61389   0.69520   0.00000  Uiso   1.00
H1708  H     0.33788   0.65150   0.69873   0.00000  Uiso   1.00
H1709  H     0.60246   0.36300   0.85405   0.00000  Uiso   1.00
H1710  H     0.60503   0.41700   0.88687   0.00000  Uiso   1.00
H1711  H     0.34643   0.35545   0.86084   0.00000  Uiso   1.00
H1712  H     0.34672   0.40767   0.89768   0.00000  Uiso   1.00
H1713  H     0.63244   0.36990   0.95740   0.00000  Uiso   1.00
H1714  H     0.36600   0.47223   0.72687   0.00000  Uiso   1.00
H1715  H     0.34639   0.33850   0.95087   0.00000  Uiso   1.00
H1716  H     0.63417   0.64999   0.92149   0.00000  Uiso   1.00
H1717  H     0.39430   0.54133   0.92356   0.00000  Uiso   1.00
H1718  H     0.35482   0.58470   0.93406   0.00000  Uiso   1.00
H1719  H     0.44444   0.60378   0.90629   0.00000  Uiso   1.00
H1720  H     0.40665   0.64785   0.91607   0.00000  Uiso   1.00
H1721  H     0.43743   0.57554   0.99253   0.00000  Uiso   1.00
H1722  H     0.39869   0.61942   0.67005   0.00000  Uiso   1.00
H1723  H     0.45034   0.63677   0.99026   0.00000  Uiso   1.00
H1724  H     0.46272   0.37697   0.76960   0.00000  Uiso   1.00
H1725  H     0.39950   0.37200   0.71888   0.00000  Uiso   1.00
H1726  H     0.53722   0.62308   0.89719   0.00000  Uiso   1.00
H1727  H     0.53616   0.37641   0.89802   0.00000  Uiso   1.00
H1728  H     0.46228   0.62354   0.76986   0.00000  Uiso   1.00
H1729  H     0.35279   0.39656   0.69386   0.00000  Uiso   1.00
H1730  H     0.39391   0.44982   0.97351   0.00000  Uiso   1.00
H1731  H     0.40568   0.38903   0.96269   0.00000  Uiso   1.00
H1732  H     0.44046   0.42401   0.99817   0.00000  Uiso   1.00
H1733  H     0.59439   0.63004   0.79703   0.00000  Uiso   1.00
H1734  H     0.60354   0.57410   0.77049   0.00000  Uiso   1.00
N1735  N     0.50000   0.61736   0.83333   0.00000  Uiso   1.00
N1736  N     0.50000   0.38264   0.83333   0.00000  Uiso   1.00
O1737  O     0.43988   0.53958   0.83333   0.00000  Uiso   1.00
O1738  O     0.62674   0.58570   0.84222   0.00000  Uiso   1.00
O1739  O     0.62822   0.41581   0.81487   0.00000  Uiso   1.00
O1740  O     0.37470   0.58079   0.86219   0.00000  Uiso   1.00
O1741  O     0.56012   0.46042   0.83334   0.00000  Uiso   1.00
O1742  O     0.56012   0.53958   0.83334   0.00000  Uiso   1.00
O1743  O     0.43988   0.46042   0.83333   0.00000  Uiso   1.00
O1744  O     0.50000   0.53959   0.76280   0.00000  Uiso   1.00
O1745  O     0.50000   0.46041   0.90387   0.00000  Uiso   1.00
O1746  O     0.50000   0.53959   0.90387   0.00000  Uiso   1.00
O1747  O     0.50000   0.46041   0.76280   0.00000  Uiso   1.00
O1748  O     0.37395   0.42614   0.78757   0.00000  Uiso   1.00
C1749  C     0.75417   0.50022   0.83276   0.00000  Uiso   1.00
C1750  C     0.68806   0.54087   0.84657   0.00000  Uiso   1.00
C1751  C     0.95764   0.50016   0.83211   0.00000  Uiso   1.00
C1752  C     0.70975   0.50092   0.83118   0.00000  Uiso   1.00
C1753  C     0.81262   0.35824   0.79796   0.00000  Uiso   1.00
C1754  C     0.85388   0.64176   0.86884   0.00000  Uiso   1.00
C1755  C     0.85344   0.35796   0.86916   0.00000  Uiso   1.00
C1756  C     0.81246   0.64202   0.79807   0.00000  Uiso   1.00
C1757  C     0.71946   0.44344   0.74105   0.00000  Uiso   1.00
C1758  C     0.71849   0.40407   0.70327   0.00000  Uiso   1.00
C1759  C     0.74101   0.41776   0.98988   0.00000  Uiso   1.00
C1760  C     0.91275   0.49994   0.83303   0.00000  Uiso   1.00
C1761  C     0.95090   0.60171   0.79397   0.00000  Uiso   1.00
C1762  C     0.98848   0.62109   0.76786   0.00000  Uiso   1.00
C1763  C     0.97653   0.64081   0.71787   0.00000  Uiso   1.00
C1764  C     0.95521   0.39398   0.86096   0.00000  Uiso   1.00
C1765  C     0.99473   0.37719   0.88617   0.00000  Uiso   1.00
C1766  C     0.98451   0.34876   0.93174   0.00000  Uiso   1.00
C1767  C     0.71639   0.57692   0.91305   0.00000  Uiso   1.00
C1768  C     0.74964   0.61206   0.92688   0.00000  Uiso   1.00
C1769  C     0.75954   0.61078   0.98169   0.00000  Uiso   1.00
C1770  C     0.83342   0.50001   0.74021   0.00000  Uiso   1.00
C1771  C     0.83335   0.50000   0.92646   0.00000  Uiso   1.00
C1772  C     0.83348   0.50004   0.68851   0.00000  Uiso   1.00
C1773  C     0.83346   0.50002   0.97815   0.00000  Uiso   1.00
C1774  C     0.68835   0.46181   0.81347   0.00000  Uiso   1.00
C1775  C     0.97925   0.54248   0.83972   0.00000  Uiso   1.00
C1776  C     0.97997   0.45873   0.82197   0.00000  Uiso   1.00
Cu1777 Cu    0.83333   0.54689   0.83333   0.00000  Uiso   1.00
Cu1778 Cu    0.83333   0.45311   0.83333   0.00000  Uiso   1.00
H1779  H     0.75111   0.45694   0.74378   0.00000  Uiso   1.00
H1780  H     0.66942   0.64905   0.79014   0.00000  Uiso   1.00
H1781  H     0.67803   0.59282   0.76222   0.00000  Uiso   1.00
H1782  H     0.95617   0.33839   0.72209   0.00000  Uiso   1.00
H1783  H     0.96091   0.61389   0.69520   0.00000  Uiso   1.00
H1784  H     0.67121   0.65150   0.69873   0.00000  Uiso   1.00
H1785  H     0.93579   0.36300   0.85405   0.00000  Uiso   1.00
H1786  H     0.93836   0.41700   0.88687   0.00000  Uiso   1.00
H1787  H     0.67976   0.35545   0.86084   0.00000  Uiso   1.00
H1788  H     0.68005   0.40767   0.89768   0.00000  Uiso   1.00
H1789  H     0.96577   0.36990   0.95740   0.00000  Uiso   1.00
H1790  H     0.69933   0.47223   0.72687   0.00000  Uiso   1.00
H1791  H     0.67972   0.33850   0.95087   0.00000  Uiso   1.00
H1792  H     0.96750   0.64999   0.92149   0.00000  Uiso   1.00
H1793  H     0.72763   0.54133   0.92356   0.00000  Uiso   1.00
H1794  H     0.68815   0.58470   0.93406   0.00000  Uiso   1.00
H1795  H     0.77777   0.60378   0.90629   0.00000  Uiso   1.00
H1796  H     0.73998   0.64785   0.91607   0.00000  Uiso   1.00
H1797  H     0.77076   0.57554   0.99253   0.00000  Uiso   1.00
H1798  H     0.73203   0.61942   0.67005   0.00000  Uiso   1.00
H1799  H     0.78367   0.63677   0.99026   0.00000  Uiso   1.00
H1800  H     0.79605   0.37697   0.76960   0.00000  Uiso   1.00
H1801  H     0.73284   0.37200   0.71888   0.00000  Uiso   1.00
H1802  H     0.87056   0.62308   0.89719   0.00000  Uiso   1.00
H1803  H     0.86949   0.37641   0.89802   0.00000  Uiso   1.00
H1804  H     0.79561   0.62354   0.76986   0.00000  Uiso   1.00
H1805  H     0.68613   0.39656   0.69386   0.00000  Uiso   1.00
H1806  H     0.72724   0.44982   0.97351   0.00000  Uiso   1.00
H1807  H     0.73902   0.38903   0.96269   0.00000  Uiso   1.00
H1808  H     0.77379   0.42401   0.99817   0.00000  Uiso   1.00
H1809  H     0.92773   0.63004   0.79703   0.00000  Uiso   1.00
H1810  H     0.93688   0.57410   0.77049   0.00000  Uiso   1.00
N1811  N     0.83333   0.61736   0.83333   0.00000  Uiso   1.00
N1812  N     0.83333   0.38264   0.83333   0.00000  Uiso   1.00
O1813  O     0.77321   0.53958   0.83333   0.00000  Uiso   1.00
O1814  O     0.96007   0.58570   0.84222   0.00000  Uiso   1.00
O1815  O     0.96156   0.41581   0.81487   0.00000  Uiso   1.00
O1816  O     0.70803   0.58079   0.86219   0.00000  Uiso   1.00
O1817  O     0.89345   0.46042   0.83334   0.00000  Uiso   1.00
O1818  O     0.89345   0.53958   0.83334   0.00000  Uiso   1.00
O1819  O     0.77321   0.46042   0.83333   0.00000  Uiso   1.00
O1820  O     0.83333   0.53959   0.76280   0.00000  Uiso   1.00
O1821  O     0.83333   0.46041   0.90387   0.00000  Uiso   1.00
O1822  O     0.83333   0.53959   0.90387   0.00000  Uiso   1.00
O1823  O     0.83333   0.46041   0.76280   0.00000  Uiso   1.00
O1824  O     0.70728   0.42614   0.78757   0.00000  Uiso   1.00
C1825  C     0.08751   0.83356   0.83276   0.00000  Uiso   1.00
C1826  C     0.02139   0.87421   0.84657   0.00000  Uiso   1.00
C1827  C     0.29097   0.83349   0.83211   0.00000  Uiso   1.00
C1828  C     0.04308   0.83425   0.83118   0.00000  Uiso   1.00
C1829  C     0.14595   0.69158   0.79796   0.00000  Uiso   1.00
C1830  C     0.18721   0.97509   0.86884   0.00000  Uiso   1.00
C1831  C     0.18678   0.69129   0.86916   0.00000  Uiso   1.00
C1832  C     0.14580   0.97535   0.79807   0.00000  Uiso   1.00
C1833  C     0.05280   0.77677   0.74105   0.00000  Uiso   1.00
C1834  C     0.05182   0.73740   0.70327   0.00000  Uiso   1.00
C1835  C     0.07434   0.75109   0.98988   0.00000  Uiso   1.00
C1836  C     0.24608   0.83327   0.83303   0.00000  Uiso   1.00
C1837  C     0.28423   0.93505   0.79397   0.00000  Uiso   1.00
C1838  C     0.32182   0.95442   0.76786   0.00000  Uiso   1.00
C1839  C     0.30986   0.97414   0.71787   0.00000  Uiso   1.00
C1840  C     0.28854   0.72731   0.86096   0.00000  Uiso   1.00
C1841  C     0.32806   0.71052   0.88617   0.00000  Uiso   1.00
C1842  C     0.31785   0.68209   0.93174   0.00000  Uiso   1.00
C1843  C     0.04973   0.91026   0.91305   0.00000  Uiso   1.00
C1844  C     0.08297   0.94539   0.92688   0.00000  Uiso   1.00
C1845  C     0.09288   0.94411   0.98169   0.00000  Uiso   1.00
C1846  C     0.16675   0.83335   0.74021   0.00000  Uiso   1.00
C1847  C     0.16668   0.83333   0.92646   0.00000  Uiso   1.00
C1848  C     0.16681   0.83337   0.68851   0.00000  Uiso   1.00
C1849  C     0.16679   0.83335   0.97815   0.00000  Uiso   1.00
C1850  C     0.02168   0.79514   0.81347   0.00000  Uiso   1.00
C1851  C     0.31259   0.87582   0.83972   0.00000  Uiso   1.00
C1852  C     0.31331   0.79206   0.82197   0.00000  Uiso   1.00
Cu1853 Cu    0.16667   0.88022   0.83333   0.00000  Uiso   1.00
Cu1854 Cu    0.16667   0.78645   0.83333   0.00000  Uiso   1.00
H1855  H     0.08444   0.79027   0.74378   0.00000  Uiso   1.00
H1856  H     0.00275   0.98238   0.79014   0.00000  Uiso   1.00
H1857  H     0.01136   0.92616   0.76222   0.00000  Uiso   1.00
H1858  H     0.28950   0.67172   0.72209   0.00000  Uiso   1.00
H1859  H     0.29425   0.94722   0.69520   0.00000  Uiso   1.00
H1860  H     0.00455   0.98483   0.69873   0.00000  Uiso   1.00
H1861  H     0.26913   0.69633   0.85405   0.00000  Uiso   1.00
H1862  H     0.27169   0.75033   0.88687   0.00000  Uiso   1.00
H1863  H     0.01309   0.68879   0.86084   0.00000  Uiso   1.00
H1864  H     0.01338   0.74101   0.89768   0.00000  Uiso   1.00
H1865  H     0.29911   0.70324   0.95740   0.00000  Uiso   1.00
H1866  H     0.03267   0.80556   0.72687   0.00000  Uiso   1.00
H1867  H     0.01305   0.67183   0.95087   0.00000  Uiso   1.00
H1868  H     0.30083   0.98333   0.92149   0.00000  Uiso   1.00
H1869  H     0.06097   0.87466   0.92356   0.00000  Uiso   1.00
H1870  H     0.02148   0.91803   0.93406   0.00000  Uiso   1.00
H1871  H     0.11110   0.93712   0.90629   0.00000  Uiso   1.00
H1872  H     0.07331   0.98119   0.91607   0.00000  Uiso   1.00
H1873  H     0.10410   0.90887   0.99253   0.00000  Uiso   1.00
H1874  H     0.06536   0.95276   0.67005   0.00000  Uiso   1.00
H1875  H     0.11701   0.97010   0.99026   0.00000  Uiso   1.00
H1876  H     0.12939   0.71030   0.76960   0.00000  Uiso   1.00
H1877  H     0.06617   0.70533   0.71888   0.00000  Uiso   1.00
H1878  H     0.20389   0.95642   0.89719   0.00000  Uiso   1.00
H1879  H     0.20282   0.70974   0.89802   0.00000  Uiso   1.00
H1880  H     0.12895   0.95688   0.76986   0.00000  Uiso   1.00
H1881  H     0.01946   0.72990   0.69386   0.00000  Uiso   1.00
H1882  H     0.06058   0.78315   0.97351   0.00000  Uiso   1.00
H1883  H     0.07235   0.72237   0.96269   0.00000  Uiso   1.00
H1884  H     0.10713   0.75735   0.99817   0.00000  Uiso   1.00
H1885  H     0.26106   0.96338   0.79703   0.00000  Uiso   1.00
H1886  H     0.27021   0.90744   0.77049   0.00000  Uiso   1.00
N1887  N     0.16667   0.95069   0.83333   0.00000  Uiso   1.00
N1888  N     0.16667   0.71598   0.83333   0.00000  Uiso   1.00
O1889  O     0.10655   0.87291   0.83333   0.00000  Uiso   1.00
O1890  O     0.29340   0.91904   0.84222   0.00000  Uiso   1.00
O1891  O     0.29489   0.74915   0.81487   0.00000  Uiso   1.00
O1892  O     0.04137   0.91413   0.86219   0.00000  Uiso   1.00
O1893  O     0.22679   0.79375   0.83334   0.00000  Uiso   1.00
O1894  O     0.22679   0.87291   0.83334   0.00000  Uiso   1.00
O1895  O     0.10655   0.79375   0.83333   0.00000  Uiso   1.00
O1896  O     0.16667   0.87292   0.76280   0.00000  Uiso   1.00
O1897  O     0.16667   0.79375   0.90387   0.00000  Uiso   1.00
O1898  O     0.16667   0.87292   0.90387   0.00000  Uiso   1.00
O1899  O     0.16667   0.79375   0.76280   0.00000  Uiso   1.00
O1900  O     0.04062   0.75947   0.78757   0.00000  Uiso   1.00
C1901  C     0.42084   0.83356   0.83276   0.00000  Uiso   1.00
C1902  C     0.35472   0.87421   0.84657   0.00000  Uiso   1.00
C1903  C     0.62430   0.83349   0.83211   0.00000  Uiso   1.00
C1904  C     0.37642   0.83425   0.83118   0.00000  Uiso   1.00
C1905  C     0.47929   0.69158   0.79796   0.00000  Uiso   1.00
C1906  C     0.52055   0.97509   0.86884   0.00000  Uiso   1.00
C1907  C     0.52011   0.69129   0.86916   0.00000  Uiso   1.00
C1908  C     0.47913   0.97535   0.79807   0.00000  Uiso   1.00
C1909  C     0.38613   0.77677   0.74105   0.00000  Uiso   1.00
C1910  C     0.38516   0.73740   0.70327   0.00000  Uiso   1.00
C1911  C     0.40767   0.75109   0.98988   0.00000  Uiso   1.00
C1912  C     0.57942   0.83327   0.83303   0.00000  Uiso   1.00
C1913  C     0.61757   0.93505   0.79397   0.00000  Uiso   1.00
C1914  C     0.65515   0.95442   0.76786   0.00000  Uiso   1.00
C1915  C     0.64319   0.97414   0.71787   0.00000  Uiso   1.00
C1916  C     0.62187   0.72731   0.86096   0.00000  Uiso   1.00
C1917  C     0.66140   0.71052   0.88617   0.00000  Uiso   1.00
C1918  C     0.65118   0.68209   0.93174   0.00000  Uiso   1.00
C1919  C     0.38306   0.91026   0.91305   0.00000  Uiso   1.00
C1920  C     0.41631   0.94539   0.92688   0.00000  Uiso   1.00
C1921  C     0.42621   0.94411   0.98169   0.00000  Uiso   1.00
C1922  C     0.50009   0.83335   0.74021   0.00000  Uiso   1.00
C1923  C     0.50002   0.83333   0.92646   0.00000  Uiso   1.00
C1924  C     0.50014   0.83337   0.68851   0.00000  Uiso   1.00
C1925  C     0.50013   0.83335   0.97815   0.00000  Uiso   1.00
C1926  C     0.35502   0.79514   0.81347   0.00000  Uiso   1.00
C1927  C     0.64592   0.87582   0.83972   0.00000  Uiso   1.00
C1928  C     0.64664   0.79206   0.82197   0.00000  Uiso   1.00
Cu1929 Cu    0.50000   0.88022   0.83333   0.00000  Uiso   1.00
Cu1930 Cu    0.50000   0.78645   0.83333   0.00000  Uiso   1.00
H1931  H     0.41777   0.79027   0.74378   0.00000  Uiso   1.00
H1932  H     0.33608   0.98238   0.79014   0.00000  Uiso   1.00
H1933  H     0.34470   0.92616   0.76222   0.00000  Uiso   1.00
H1934  H     0.62284   0.67172   0.72209   0.00000  Uiso   1.00
H1935  H     0.62758   0.94722   0.69520   0.00000  Uiso   1.00
H1936  H     0.33788   0.98483   0.69873   0.00000  Uiso   1.00
H1937  H     0.60246   0.69633   0.85405   0.00000  Uiso   1.00
H1938  H     0.60503   0.75033   0.88687   0.00000  Uiso   1.00
H1939  H     0.34643   0.68879   0.86084   0.00000  Uiso   1.00
H1940  H     0.34672   0.74101   0.89768   0.00000  Uiso   1.00
H1941  H     0.63244   0.70324   0.95740   0.00000  Uiso   1.00
H1942  H     0.36600   0.80556   0.72687   0.00000  Uiso   1.00
H1943  H     0.34639   0.67183   0.95087   0.00000  Uiso   1.00
H1944  H     0.63417   0.98333   0.92149   0.00000  Uiso   1.00
H1945  H     0.39430   0.87466   0.92356   0.00000  Uiso   1.00
H1946  H     0.35482   0.91803   0.93406   0.00000  Uiso   1.00
H1947  H     0.44444   0.93712   0.90629   0.00000  Uiso   1.00
H1948  H     0.40665   0.98119   0.91607   0.00000  Uiso   1.00
H1949  H     0.43743   0.90887   0.99253   0.00000  Uiso   1.00
H1950  H     0.39869   0.95276   0.67005   0.00000  Uiso   1.00
H1951  H     0.45034   0.97010   0.99026   0.00000  Uiso   1.00
H1952  H     0.46272   0.71030   0.76960   0.00000  Uiso   1.00
H1953  H     0.39950   0.70533   0.71888   0.00000  Uiso   1.00
H1954  H     0.53722   0.95642   0.89719   0.00000  Uiso   1.00
H1955  H     0.53616   0.70974   0.89802   0.00000  Uiso   1.00
H1956  H     0.46228   0.95688   0.76986   0.00000  Uiso   1.00
H1957  H     0.35279   0.72990   0.69386   0.00000  Uiso   1.00
H1958  H     0.39391   0.78315   0.97351   0.00000  Uiso   1.00
H1959  H     0.40568   0.72237   0.96269   0.00000  Uiso   1.00
H1960  H     0.44046   0.75735   0.99817   0.00000  Uiso   1.00
H1961  H     0.59439   0.96338   0.79703   0.00000  Uiso   1.00
H1962  H     0.60354   0.90744   0.77049   0.00000  Uiso   1.00
N1963  N     0.50000   0.95069   0.83333   0.00000  Uiso   1.00
N1964  N     0.50000   0.71598   0.83333   0.00000  Uiso   1.00
O1965  O     0.43988   0.87291   0.83333   0.00000  Uiso   1.00
O1966  O     0.62674   0.91904   0.84222   0.00000  Uiso   1.00
O1967  O     0.62822   0.74915   0.81487   0.00000  Uiso   1.00
O1968  O     0.37470   0.91413   0.86219   0.00000  Uiso   1.00
O1969  O     0.56012   0.79375   0.83334   0.00000  Uiso   1.00
O1970  O     0.56012   0.87291   0.83334   0.00000  Uiso   1.00
O1971  O     0.43988   0.79375   0.83333   0.00000  Uiso   1.00
O1972  O     0.50000   0.87292   0.76280   0.00000  Uiso   1.00
O1973  O     0.50000   0.79375   0.90387   0.00000  Uiso   1.00
O1974  O     0.50000   0.87292   0.90387   0.00000  Uiso   1.00
O1975  O     0.50000   0.79375   0.76280   0.00000  Uiso   1.00
O1976  O     0.37395   0.75947   0.78757   0.00000  Uiso   1.00
C1977  C     0.75417   0.83356   0.83276   0.00000  Uiso   1.00
C1978  C     0.68806   0.87421   0.84657   0.00000  Uiso   1.00
C1979  C     0.95764   0.83349   0.83211   0.00000  Uiso   1.00
C1980  C     0.70975   0.83425   0.83118   0.00000  Uiso   1.00
C1981  C     0.81262   0.69158   0.79796   0.00000  Uiso   1.00
C1982  C     0.85388   0.97509   0.86884   0.00000  Uiso   1.00
C1983  C     0.85344   0.69129   0.86916   0.00000  Uiso   1.00
C1984  C     0.81246   0.97535   0.79807   0.00000  Uiso   1.00
C1985  C     0.71946   0.77677   0.74105   0.00000  Uiso   1.00
C1986  C     0.71849   0.73740   0.70327   0.00000  Uiso   1.00
C1987  C     0.74101   0.75109   0.98988   0.00000  Uiso   1.00
C1988  C     0.91275   0.83327   0.83303   0.00000  Uiso   1.00
C1989  C     0.95090   0.93505   0.79397   0.00000  Uiso   1.00
C1990  C     0.98848   0.95442   0.76786   0.00000  Uiso   1.00
C1991  C     0.97653   0.97414   0.71787   0.00000  Uiso   1.00
C1992  C     0.95521   0.72731   0.86096   0.00000  Uiso   1.00
C1993  C     0.99473   0.71052   0.88617   0.00000  Uiso   1.00
C1994  C     0.98451   0.68209   0.93174   0.00000  Uiso   1.00
C1995  C     0.71639   0.91026   0.91305   0.00000  Uiso   1.00
C1996  C     0.74964   0.94539   0.92688   0.00000  Uiso   1.00
C1997  C     0.75954   0.94411   0.98169   0.00000  Uiso   1.00
C1998  C     0.83342   0.83335   0.74021   0.00000  Uiso   1.00
C1999  C     0.83335   0.83333   0.92646   0.00000  Uiso   1.00
C2000  C     0.83348   0.83337   0.68851   0.00000  Uiso   1.00
C2001  C     0.83346   0.83335   0.97815   0.00000  Uiso   1.00
C2002  C     0.68835   0.79514   0.81347   0.00000  Uiso   1.00
C2003  C     0.97925   0.87582   0.83972   0.00000  Uiso   1.00
C2004  C     0.97997   0.79206   0.82197   0.00000  Uiso   1.00
Cu2005 Cu    0.83333   0.88022   0.83333   0.00000  Uiso   1.00
Cu2006 Cu    0.83333   0.78645   0.83333   0.00000  Uiso   1.00
H2007  H     0.75111   0.79027   0.74378   0.00000  Uiso   1.00
H2008  H     0.66942   0.98238   0.79014   0.00000  Uiso   1.00
H2009  H     0.67803   0.92616   0.76222   0.00000  Uiso   1.00
H2010  H     0.95617   0.67172   0.72209   0.00000  Uiso   1.00
H2011  H     0.96091   0.94722   0.69520   0.00000  Uiso   1.00
H2012  H     0.67121   0.98483   0.69873   0.00000  Uiso   1.00
H2013  H     0.93579   0.69633   0.85405   0.00000  Uiso   1.00
H2014  H     0.93836   0.75033   0.88687   0.00000  Uiso   1.00
H2015  H     0.67976   0.68879   0.86084   0.00000  Uiso   1.00
H2016  H     0.68005   0.74101   0.89768   0.00000  Uiso   1.00
H2017  H     0.96577   0.70324   0.95740   0.00000  Uiso   1.00
H2018  H     0.69933   0.80556   0.72687   0.00000  Uiso   1.00
H2019  H     0.67972   0.67183   0.95087   0.00000  Uiso   1.00
H2020  H     0.96750   0.98333   0.92149   0.00000  Uiso   1.00
H2021  H     0.72763   0.87466   0.92356   0.00000  Uiso   1.00
H2022  H     0.68815   0.91803   0.93406   0.00000  Uiso   1.00
H2023  H     0.77777   0.93712   0.90629   0.00000  Uiso   1.00
H2024  H     0.73998   0.98119   0.91607   0.00000  Uiso   1.00
H2025  H     0.77076   0.90887   0.99253   0.00000  Uiso   1.00
H2026  H     0.73203   0.95276   0.67005   0.00000  Uiso   1.00
H2027  H     0.78367   0.97010   0.99026   0.00000  Uiso   1.00
H2028  H     0.79605   0.71030   0.76960   0.00000  Uiso   1.00
H2029  H     0.73284   0.70533   0.71888   0.00000  Uiso   1.00
H2030  H     0.87056   0.95642   0.89719   0.00000  Uiso   1.00
H2031  H     0.86949   0.70974   0.89802   0.00000  Uiso   1.00
H2032  H     0.79561   0.95688   0.76986   0.00000  Uiso   1.00
H2033  H     0.68613   0.72990   0.69386   0.00000  Uiso   1.00
H2034  H     0.72724   0.78315   0.97351   0.00000  Uiso   1.00
H2035  H     0.73902   0.72237   0.96269   0.00000  Uiso   1.00
H2036  H     0.77379   0.75735   0.99817   0.00000  Uiso   1.00
H2037  H     0.92773   0.96338   0.79703   0.00000  Uiso   1.00
H2038  H     0.93688   0.90744   0.77049   0.00000  Uiso   1.00
N2039  N     0.83333   0.95069   0.83333   0.00000  Uiso   1.00
N2040  N     0.83333   0.71598   0.83333   0.00000  Uiso   1.00
O2041  O     0.77321   0.87291   0.83333   0.00000  Uiso   1.00
O2042  O     0.96007   0.91904   0.84222   0.00000  Uiso   1.00
O2043  O     0.96156   0.74915   0.81487   0.00000  Uiso   1.00
O2044  O     0.70803   0.91413   0.86219   0.00000  Uiso   1.00
O2045  O     0.89345   0.79375   0.83334   0.00000  Uiso   1.00
O2046  O     0.89345   0.87291   0.83334   0.00000  Uiso   1.00
O2047  O     0.77321   0.79375   0.83333   0.00000  Uiso   1.00
O2048  O     0.83333   0.87292   0.76280   0.00000  Uiso   1.00
O2049  O     0.83333   0.79375   0.90387   0.00000  Uiso   1.00
O2050  O     0.83333   0.87292   0.90387   0.00000  Uiso   1.00
O2051  O     0.83333   0.79375   0.76280   0.00000  Uiso   1.00
O2052  O     0.70728   0.75947   0.78757   0.00000  Uiso   1.00
loop_
_geom_bond_atom_site_label_1
_geom_bond_atom_site_label_2
_geom_bond_distance
_geom_bond_site_symmetry_2
_ccdc_geom_bond_type
C1     O71     1.295   .     A
C1     C4      1.454   .     S
C1     O65     1.289   .     A
C2     C4      1.408   .     A
C2     O68     1.384   .     S
C2     C179    1.390   1_455 S
C3     C12     1.469   .     S
C3     C27     1.420   .     A
C3     C28     1.418   .     A
C4     C26     1.406   .     A
C5     H52     1.081   .     S
C5     N64     1.367   .     A
C5     C464    1.418   1_545 S
C6     N63     1.367   .     A
C6     H54     1.082   .     S
C6     C235    1.417   .     S
C7     H55     1.081   .     S
C7     N64     1.367   .     A
C7     C462    1.417   1_545 S
C8     H56     1.082   .     S
C8     N63     1.368   .     A
C8     C233    1.418   .     S
C9     O76     1.421   .     S
C9     C10     1.526   .     S
C9     H42     1.119   .     S
C9     H31     1.109   .     S
C10    H57     1.109   .     S
C10    H53     1.111   .     S
C10    C1379   1.528   1_554 S
C11    H58     1.111   .     S
C11    H59     1.108   .     S
C11    H60     1.110   .     S
C11    C694    1.528   .     S
C12    O69     1.297   .     A
C12    O70     1.295   .     A
C13    O66     1.421   .     S
C13    H61     1.111   .     S
C13    C14     1.531   .     S
C13    H62     1.115   .     S
C14    C15     1.521   .     S
C14    H108    1.107   .     S
C14    H109    1.111   .     S
C15    H35     1.111   .     S
C15    H262    1.111   .     S
C15    H112    1.103   .     S
C16    H37     1.108   .     S
C16    O67     1.419   .     S
C16    C17     1.534   .     S
C16    H38     1.113   .     S
C17    C18     1.524   .     S
C17    H115    1.108   .     S
C17    H116    1.111   .     S
C18    H41     1.111   .     S
C18    H119    1.104   .     S
C18    H500    1.111   1_545 S
C19    C20     1.530   .     S
C19    H45     1.117   .     S
C19    H46     1.112   .     S
C19    O68     1.414   .     S
C20    H48     1.109   .     S
C20    H47     1.106   .     S
C20    C21     1.526   .     S
C21    H49     1.110   .     S
C21    H51     1.111   .     S
C21    H734    1.108   .     S
C22    O72     1.289   .     A
C22    O75     1.289   .     A
C22    C24     1.408   .     S
C23    O73     1.289   .     A
C23    C25     1.408   .     S
C23    O74     1.288   .     A
C24    C1393   1.190   1_554 S
C25    C708    1.190   .     S
C26    O76     1.387   .     S
C26    C180    1.389   1_455 S
C27    O66     1.386   .     S
C27    C78     1.390   .     S
C28    O67     1.383   .     S
C28    C102    1.389   .     S
Cu29   N63     2.016   .     S
Cu29   O72     1.933   .     S
Cu29   O65     1.979   .     S
Cu29   Cu30    2.682   .     S
Cu29   O70     1.977   .     S
Cu29   O74     1.933   .     S
Cu30   O71     1.977   .     S
Cu30   O75     1.933   .     S
Cu30   N64     2.016   .     S
Cu30   O69     1.979   .     S
Cu30   O73     1.933   .     S
H32    C166    1.107   1_455 S
H33    C166    1.111   1_455 S
H34    C471    1.111   1_545 S
H36    C167    1.103   1_455 S
H39    C169    1.108   1_455 S
H40    C169    1.111   1_455 S
H43    C170    1.104   1_455 S
H44    C246    1.111   .     S
H50    C1389   1.108   1_554 S
C77    O147    1.295   .     A
C77    C80     1.454   .     S
C77    O141    1.289   .     A
C78    C80     1.408   .     A
C78    O144    1.384   .     S
C79    C88     1.469   .     S
C79    C103    1.420   .     A
C79    C104    1.418   .     A
C80    C102    1.406   .     A
C81    H128    1.081   .     S
C81    N140    1.367   .     A
C81    C540    1.418   1_545 S
C82    N139    1.367   .     A
C82    H130    1.082   .     S
C82    C311    1.417   .     S
C83    H131    1.081   .     S
C83    N140    1.367   .     A
C83    C538    1.417   1_545 S
C84    H132    1.082   .     S
C84    N139    1.368   .     A
C84    C309    1.418   .     S
C85    O152    1.421   .     S
C85    C86     1.526   .     S
C85    H118    1.119   .     S
C85    H107    1.109   .     S
C86    H133    1.109   .     S
C86    H129    1.111   .     S
C86    C1455   1.528   1_554 S
C87    H134    1.111   .     S
C87    H135    1.108   .     S
C87    H136    1.110   .     S
C87    C770    1.528   .     S
C88    O145    1.297   .     A
C88    O146    1.295   .     A
C89    O142    1.421   .     S
C89    H137    1.111   .     S
C89    C90     1.531   .     S
C89    H138    1.115   .     S
C90    C91     1.521   .     S
C90    H184    1.107   .     S
C90    H185    1.111   .     S
C91    H111    1.111   .     S
C91    H338    1.111   .     S
C91    H188    1.103   .     S
C92    H113    1.108   .     S
C92    O143    1.419   .     S
C92    C93     1.534   .     S
C92    H114    1.113   .     S
C93    C94     1.524   .     S
C93    H191    1.108   .     S
C93    H192    1.111   .     S
C94    H117    1.111   .     S
C94    H195    1.104   .     S
C94    H576    1.111   1_545 S
C95    C96     1.530   .     S
C95    H121    1.117   .     S
C95    H122    1.112   .     S
C95    O144    1.414   .     S
C96    H124    1.109   .     S
C96    H123    1.106   .     S
C96    C97     1.526   .     S
C97    H125    1.110   .     S
C97    H127    1.111   .     S
C97    H810    1.108   .     S
C98    O148    1.289   .     A
C98    O151    1.289   .     A
C98    C100    1.408   .     S
C99    O149    1.289   .     A
C99    C101    1.408   .     S
C99    O150    1.288   .     A
C100   C1469   1.190   1_554 S
C101   C784    1.190   .     S
C102   O152    1.387   .     S
C103   O142    1.386   .     S
C103   C154    1.390   .     S
C104   O143    1.383   .     S
C104   C178    1.389   .     S
Cu105  N139    2.016   .     S
Cu105  O148    1.933   .     S
Cu105  O141    1.979   .     S
Cu105  Cu106   2.682   .     S
Cu105  O146    1.977   .     S
Cu105  O150    1.933   .     S
Cu106  O147    1.977   .     S
Cu106  O151    1.933   .     S
Cu106  N140    2.016   .     S
Cu106  O145    1.979   .     S
Cu106  O149    1.933   .     S
H110   C547    1.111   1_545 S
H120   C322    1.111   .     S
H126   C1465   1.108   1_554 S
C153   O223    1.295   .     A
C153   C156    1.454   .     S
C153   O217    1.289   .     A
C154   C156    1.408   .     A
C154   O220    1.384   .     S
C155   C164    1.469   .     S
C155   C179    1.420   .     A
C155   C180    1.418   .     A
C156   C178    1.406   .     A
C157   H204    1.081   .     S
C157   N216    1.367   .     A
C157   C616    1.418   1_545 S
C158   N215    1.367   .     A
C158   H206    1.082   .     S
C158   C387    1.417   .     S
C159   H207    1.081   .     S
C159   N216    1.367   .     A
C159   C614    1.417   1_545 S
C160   H208    1.082   .     S
C160   N215    1.368   .     A
C160   C385    1.418   .     S
C161   O228    1.421   .     S
C161   C162    1.526   .     S
C161   H194    1.119   .     S
C161   H183    1.109   .     S
C162   H209    1.109   .     S
C162   H205    1.111   .     S
C162   C1531   1.528   1_554 S
C163   H210    1.111   .     S
C163   H211    1.108   .     S
C163   H212    1.110   .     S
C163   C846    1.528   .     S
C164   O221    1.297   .     A
C164   O222    1.295   .     A
C165   O218    1.421   .     S
C165   H213    1.111   .     S
C165   C166    1.531   .     S
C165   H214    1.115   .     S
C166   C167    1.521   .     S
C166   H32     1.107   1_655 S
C166   H33     1.111   1_655 S
C167   H187    1.111   .     S
C167   H414    1.111   .     S
C167   H36     1.103   1_655 S
C168   H189    1.108   .     S
C168   O219    1.419   .     S
C168   C169    1.534   .     S
C168   H190    1.113   .     S
C169   C170    1.524   .     S
C169   H39     1.108   1_655 S
C169   H40     1.111   1_655 S
C170   H193    1.111   .     S
C170   H43     1.104   1_655 S
C170   H652    1.111   1_545 S
C171   C172    1.530   .     S
C171   H197    1.117   .     S
C171   H198    1.112   .     S
C171   O220    1.414   .     S
C172   H200    1.109   .     S
C172   H199    1.106   .     S
C172   C173    1.526   .     S
C173   H201    1.110   .     S
C173   H203    1.111   .     S
C173   H886    1.108   .     S
C174   O224    1.289   .     A
C174   O227    1.289   .     A
C174   C176    1.408   .     S
C175   O225    1.289   .     A
C175   C177    1.408   .     S
C175   O226    1.288   .     A
C176   C1545   1.190   1_554 S
C177   C860    1.190   .     S
C178   O228    1.387   .     S
C179   O218    1.386   .     S
C179   C2      1.390   1_655 S
C180   O219    1.383   .     S
C180   C26     1.389   1_655 S
Cu181  N215    2.016   .     S
Cu181  O224    1.933   .     S
Cu181  O217    1.979   .     S
Cu181  Cu182   2.682   .     S
Cu181  O222    1.977   .     S
Cu181  O226    1.933   .     S
Cu182  O223    1.977   .     S
Cu182  O227    1.933   .     S
Cu182  N216    2.016   .     S
Cu182  O221    1.979   .     S
Cu182  O225    1.933   .     S
H186   C623    1.111   1_545 S
H196   C398    1.111   .     S
H202   C1541   1.108   1_554 S
C229   O299    1.295   .     A
C229   C232    1.454   .     S
C229   O293    1.289   .     A
C230   C232    1.408   .     A
C230   O296    1.384   .     S
C230   C407    1.390   1_455 S
C231   C240    1.469   .     S
C231   C255    1.420   .     A
C231   C256    1.418   .     A
C232   C254    1.406   .     A
C233   H280    1.081   .     S
C233   N292    1.367   .     A
C234   N291    1.367   .     A
C234   H282    1.082   .     S
C234   C463    1.417   .     S
C235   H283    1.081   .     S
C235   N292    1.367   .     A
C236   H284    1.082   .     S
C236   N291    1.368   .     A
C236   C461    1.418   .     S
C237   O304    1.421   .     S
C237   C238    1.526   .     S
C237   H270    1.119   .     S
C237   H259    1.109   .     S
C238   H285    1.109   .     S
C238   H281    1.111   .     S
C238   C1607   1.528   1_554 S
C239   H286    1.111   .     S
C239   H287    1.108   .     S
C239   H288    1.110   .     S
C239   C922    1.528   .     S
C240   O297    1.297   .     A
C240   O298    1.295   .     A
C241   O294    1.421   .     S
C241   H289    1.111   .     S
C241   C242    1.531   .     S
C241   H290    1.115   .     S
C242   C243    1.521   .     S
C242   H336    1.107   .     S
C242   H337    1.111   .     S
C243   H263    1.111   .     S
C243   H490    1.111   .     S
C243   H340    1.103   .     S
C244   H265    1.108   .     S
C244   O295    1.419   .     S
C244   C245    1.534   .     S
C244   H266    1.113   .     S
C245   C246    1.524   .     S
C245   H343    1.108   .     S
C245   H344    1.111   .     S
C246   H269    1.111   .     S
C246   H347    1.104   .     S
C247   C248    1.530   .     S
C247   H273    1.117   .     S
C247   H274    1.112   .     S
C247   O296    1.414   .     S
C248   H276    1.109   .     S
C248   H275    1.106   .     S
C248   C249    1.526   .     S
C249   H277    1.110   .     S
C249   H279    1.111   .     S
C249   H962    1.108   .     S
C250   O300    1.289   .     A
C250   O303    1.289   .     A
C250   C252    1.408   .     S
C251   O301    1.289   .     A
C251   C253    1.408   .     S
C251   O302    1.288   .     A
C252   C1621   1.190   1_554 S
C253   C936    1.190   .     S
C254   O304    1.387   .     S
C254   C408    1.389   1_455 S
C255   O294    1.386   .     S
C255   C306    1.390   .     S
C256   O295    1.383   .     S
C256   C330    1.389   .     S
Cu257  N291    2.016   .     S
Cu257  O300    1.933   .     S
Cu257  O293    1.979   .     S
Cu257  Cu258   2.682   .     S
Cu257  O298    1.977   .     S
Cu257  O302    1.933   .     S
Cu258  O299    1.977   .     S
Cu258  O303    1.933   .     S
Cu258  N292    2.016   .     S
Cu258  O297    1.979   .     S
Cu258  O301    1.933   .     S
H260   C394    1.107   1_455 S
H261   C394    1.111   1_455 S
H264   C395    1.103   1_455 S
H267   C397    1.108   1_455 S
H268   C397    1.111   1_455 S
H271   C398    1.104   1_455 S
H272   C474    1.111   .     S
H278   C1617   1.108   1_554 S
C305   O375    1.295   .     A
C305   C308    1.454   .     S
C305   O369    1.289   .     A
C306   C308    1.408   .     A
C306   O372    1.384   .     S
C307   C316    1.469   .     S
C307   C331    1.420   .     A
C307   C332    1.418   .     A
C308   C330    1.406   .     A
C309   H356    1.081   .     S
C309   N368    1.367   .     A
C310   N367    1.367   .     A
C310   H358    1.082   .     S
C310   C539    1.417   .     S
C311   H359    1.081   .     S
C311   N368    1.367   .     A
C312   H360    1.082   .     S
C312   N367    1.368   .     A
C312   C537    1.418   .     S
C313   O380    1.421   .     S
C313   C314    1.526   .     S
C313   H346    1.119   .     S
C313   H335    1.109   .     S
C314   H361    1.109   .     S
C314   H357    1.111   .     S
C314   C1683   1.528   1_554 S
C315   H362    1.111   .     S
C315   H363    1.108   .     S
C315   H364    1.110   .     S
C315   C998    1.528   .     S
C316   O373    1.297   .     A
C316   O374    1.295   .     A
C317   O370    1.421   .     S
C317   H365    1.111   .     S
C317   C318    1.531   .     S
C317   H366    1.115   .     S
C318   C319    1.521   .     S
C318   H412    1.107   .     S
C318   H413    1.111   .     S
C319   H339    1.111   .     S
C319   H566    1.111   .     S
C319   H416    1.103   .     S
C320   H341    1.108   .     S
C320   O371    1.419   .     S
C320   C321    1.534   .     S
C320   H342    1.113   .     S
C321   C322    1.524   .     S
C321   H419    1.108   .     S
C321   H420    1.111   .     S
C322   H345    1.111   .     S
C322   H423    1.104   .     S
C323   C324    1.530   .     S
C323   H349    1.117   .     S
C323   H350    1.112   .     S
C323   O372    1.414   .     S
C324   H352    1.109   .     S
C324   H351    1.106   .     S
C324   C325    1.526   .     S
C325   H353    1.110   .     S
C325   H355    1.111   .     S
C325   H1038   1.108   .     S
C326   O376    1.289   .     A
C326   O379    1.289   .     A
C326   C328    1.408   .     S
C327   O377    1.289   .     A
C327   C329    1.408   .     S
C327   O378    1.288   .     A
C328   C1697   1.190   1_554 S
C329   C1012   1.190   .     S
C330   O380    1.387   .     S
C331   O370    1.386   .     S
C331   C382    1.390   .     S
C332   O371    1.383   .     S
C332   C406    1.389   .     S
Cu333  N367    2.016   .     S
Cu333  O376    1.933   .     S
Cu333  O369    1.979   .     S
Cu333  Cu334   2.682   .     S
Cu333  O374    1.977   .     S
Cu333  O378    1.933   .     S
Cu334  O375    1.977   .     S
Cu334  O379    1.933   .     S
Cu334  N368    2.016   .     S
Cu334  O373    1.979   .     S
Cu334  O377    1.933   .     S
H348   C550    1.111   .     S
H354   C1693   1.108   1_554 S
C381   O451    1.295   .     A
C381   C384    1.454   .     S
C381   O445    1.289   .     A
C382   C384    1.408   .     A
C382   O448    1.384   .     S
C383   C392    1.469   .     S
C383   C407    1.420   .     A
C383   C408    1.418   .     A
C384   C406    1.406   .     A
C385   H432    1.081   .     S
C385   N444    1.367   .     A
C386   N443    1.367   .     A
C386   H434    1.082   .     S
C386   C615    1.417   .     S
C387   H435    1.081   .     S
C387   N444    1.367   .     A
C388   H436    1.082   .     S
C388   N443    1.368   .     A
C388   C613    1.418   .     S
C389   O456    1.421   .     S
C389   C390    1.526   .     S
C389   H422    1.119   .     S
C389   H411    1.109   .     S
C390   H437    1.109   .     S
C390   H433    1.111   .     S
C390   C1759   1.528   1_554 S
C391   H438    1.111   .     S
C391   H439    1.108   .     S
C391   H440    1.110   .     S
C391   C1074   1.528   .     S
C392   O449    1.297   .     A
C392   O450    1.295   .     A
C393   O446    1.421   .     S
C393   H441    1.111   .     S
C393   C394    1.531   .     S
C393   H442    1.115   .     S
C394   C395    1.521   .     S
C394   H260    1.107   1_655 S
C394   H261    1.111   1_655 S
C395   H415    1.111   .     S
C395   H642    1.111   .     S
C395   H264    1.103   1_655 S
C396   H417    1.108   .     S
C396   O447    1.419   .     S
C396   C397    1.534   .     S
C396   H418    1.113   .     S
C397   C398    1.524   .     S
C397   H267    1.108   1_655 S
C397   H268    1.111   1_655 S
C398   H421    1.111   .     S
C398   H271    1.104   1_655 S
C399   C400    1.530   .     S
C399   H425    1.117   .     S
C399   H426    1.112   .     S
C399   O448    1.414   .     S
C400   H428    1.109   .     S
C400   H427    1.106   .     S
C400   C401    1.526   .     S
C401   H429    1.110   .     S
C401   H431    1.111   .     S
C401   H1114   1.108   .     S
C402   O452    1.289   .     A
C402   O455    1.289   .     A
C402   C404    1.408   .     S
C403   O453    1.289   .     A
C403   C405    1.408   .     S
C403   O454    1.288   .     A
C404   C1773   1.190   1_554 S
C405   C1088   1.190   .     S
C406   O456    1.387   .     S
C407   O446    1.386   .     S
C407   C230    1.390   1_655 S
C408   O447    1.383   .     S
C408   C254    1.389   1_655 S
Cu409  N443    2.016   .     S
Cu409  O452    1.933   .     S
Cu409  O445    1.979   .     S
Cu409  Cu410   2.682   .     S
Cu409  O450    1.977   .     S
Cu409  O454    1.933   .     S
Cu410  O451    1.977   .     S
Cu410  O455    1.933   .     S
Cu410  N444    2.016   .     S
Cu410  O449    1.979   .     S
Cu410  O453    1.933   .     S
H424   C626    1.111   .     S
H430   C1769   1.108   1_554 S
C457   O527    1.295   .     A
C457   C460    1.454   .     S
C457   O521    1.289   .     A
C458   C460    1.408   .     A
C458   O524    1.384   .     S
C458   C635    1.390   1_455 S
C459   C468    1.469   .     S
C459   C483    1.420   .     A
C459   C484    1.418   .     A
C460   C482    1.406   .     A
C461   H508    1.081   .     S
C461   N520    1.367   .     A
C462   N519    1.367   .     A
C462   H510    1.082   .     S
C462   C7      1.417   1_565 S
C463   H511    1.081   .     S
C463   N520    1.367   .     A
C464   H512    1.082   .     S
C464   N519    1.368   .     A
C464   C5      1.418   1_565 S
C465   O532    1.421   .     S
C465   C466    1.526   .     S
C465   H498    1.119   .     S
C465   H487    1.109   .     S
C466   H513    1.109   .     S
C466   H509    1.111   .     S
C466   C1835   1.528   1_554 S
C467   H514    1.111   .     S
C467   H515    1.108   .     S
C467   H516    1.110   .     S
C467   C1150   1.528   .     S
C468   O525    1.297   .     A
C468   O526    1.295   .     A
C469   O522    1.421   .     S
C469   H517    1.111   .     S
C469   C470    1.531   .     S
C469   H518    1.115   .     S
C470   C471    1.521   .     S
C470   H564    1.107   .     S
C470   H565    1.111   .     S
C471   H491    1.111   .     S
C471   H34     1.111   1_565 S
C471   H568    1.103   .     S
C472   H493    1.108   .     S
C472   O523    1.419   .     S
C472   C473    1.534   .     S
C472   H494    1.113   .     S
C473   C474    1.524   .     S
C473   H571    1.108   .     S
C473   H572    1.111   .     S
C474   H497    1.111   .     S
C474   H575    1.104   .     S
C475   C476    1.530   .     S
C475   H501    1.117   .     S
C475   H502    1.112   .     S
C475   O524    1.414   .     S
C476   H504    1.109   .     S
C476   H503    1.106   .     S
C476   C477    1.526   .     S
C477   H505    1.110   .     S
C477   H507    1.111   .     S
C477   H1190   1.108   .     S
C478   O528    1.289   .     A
C478   O531    1.289   .     A
C478   C480    1.408   .     S
C479   O529    1.289   .     A
C479   C481    1.408   .     S
C479   O530    1.288   .     A
C480   C1849   1.190   1_554 S
C481   C1164   1.190   .     S
C482   O532    1.387   .     S
C482   C636    1.389   1_455 S
C483   O522    1.386   .     S
C483   C534    1.390   .     S
C484   O523    1.383   .     S
C484   C558    1.389   .     S
Cu485  N519    2.016   .     S
Cu485  O528    1.933   .     S
Cu485  O521    1.979   .     S
Cu485  Cu486   2.682   .     S
Cu485  O526    1.977   .     S
Cu485  O530    1.933   .     S
Cu486  O527    1.977   .     S
Cu486  O531    1.933   .     S
Cu486  N520    2.016   .     S
Cu486  O525    1.979   .     S
Cu486  O529    1.933   .     S
H488   C622    1.107   1_455 S
H489   C622    1.111   1_455 S
H492   C623    1.103   1_455 S
H495   C625    1.108   1_455 S
H496   C625    1.111   1_455 S
H499   C626    1.104   1_455 S
H500   C18     1.111   1_565 S
H506   C1845   1.108   1_554 S
C533   O603    1.295   .     A
C533   C536    1.454   .     S
C533   O597    1.289   .     A
C534   C536    1.408   .     A
C534   O600    1.384   .     S
C535   C544    1.469   .     S
C535   C559    1.420   .     A
C535   C560    1.418   .     A
C536   C558    1.406   .     A
C537   H584    1.081   .     S
C537   N596    1.367   .     A
C538   N595    1.367   .     A
C538   H586    1.082   .     S
C538   C83     1.417   1_565 S
C539   H587    1.081   .     S
C539   N596    1.367   .     A
C540   H588    1.082   .     S
C540   N595    1.368   .     A
C540   C81     1.418   1_565 S
C541   O608    1.421   .     S
C541   C542    1.526   .     S
C541   H574    1.119   .     S
C541   H563    1.109   .     S
C542   H589    1.109   .     S
C542   H585    1.111   .     S
C542   C1911   1.528   1_554 S
C543   H590    1.111   .     S
C543   H591    1.108   .     S
C543   H592    1.110   .     S
C543   C1226   1.528   .     S
C544   O601    1.297   .     A
C544   O602    1.295   .     A
C545   O598    1.421   .     S
C545   H593    1.111   .     S
C545   C546    1.531   .     S
C545   H594    1.115   .     S
C546   C547    1.521   .     S
C546   H640    1.107   .     S
C546   H641    1.111   .     S
C547   H567    1.111   .     S
C547   H110    1.111   1_565 S
C547   H644    1.103   .     S
C548   H569    1.108   .     S
C548   O599    1.419   .     S
C548   C549    1.534   .     S
C548   H570    1.113   .     S
C549   C550    1.524   .     S
C549   H647    1.108   .     S
C549   H648    1.111   .     S
C550   H573    1.111   .     S
C550   H651    1.104   .     S
C551   C552    1.530   .     S
C551   H577    1.117   .     S
C551   H578    1.112   .     S
C551   O600    1.414   .     S
C552   H580    1.109   .     S
C552   H579    1.106   .     S
C552   C553    1.526   .     S
C553   H581    1.110   .     S
C553   H583    1.111   .     S
C553   H1266   1.108   .     S
C554   O604    1.289   .     A
C554   O607    1.289   .     A
C554   C556    1.408   .     S
C555   O605    1.289   .     A
C555   C557    1.408   .     S
C555   O606    1.288   .     A
C556   C1925   1.190   1_554 S
C557   C1240   1.190   .     S
C558   O608    1.387   .     S
C559   O598    1.386   .     S
C559   C610    1.390   .     S
C560   O599    1.383   .     S
C560   C634    1.389   .     S
Cu561  N595    2.016   .     S
Cu561  O604    1.933   .     S
Cu561  O597    1.979   .     S
Cu561  Cu562   2.682   .     S
Cu561  O602    1.977   .     S
Cu561  O606    1.933   .     S
Cu562  O603    1.977   .     S
Cu562  O607    1.933   .     S
Cu562  N596    2.016   .     S
Cu562  O601    1.979   .     S
Cu562  O605    1.933   .     S
H576   C94     1.111   1_565 S
H582   C1921   1.108   1_554 S
C609   O679    1.295   .     A
C609   C612    1.454   .     S
C609   O673    1.289   .     A
C610   C612    1.408   .     A
C610   O676    1.384   .     S
C611   C620    1.469   .     S
C611   C635    1.420   .     A
C611   C636    1.418   .     A
C612   C634    1.406   .     A
C613   H660    1.081   .     S
C613   N672    1.367   .     A
C614   N671    1.367   .     A
C614   H662    1.082   .     S
C614   C159    1.417   1_565 S
C615   H663    1.081   .     S
C615   N672    1.367   .     A
C616   H664    1.082   .     S
C616   N671    1.368   .     A
C616   C157    1.418   1_565 S
C617   O684    1.421   .     S
C617   C618    1.526   .     S
C617   H650    1.119   .     S
C617   H639    1.109   .     S
C618   H665    1.109   .     S
C618   H661    1.111   .     S
C618   C1987   1.528   1_554 S
C619   H666    1.111   .     S
C619   H667    1.108   .     S
C619   H668    1.110   .     S
C619   C1302   1.528   .     S
C620   O677    1.297   .     A
C620   O678    1.295   .     A
C621   O674    1.421   .     S
C621   H669    1.111   .     S
C621   C622    1.531   .     S
C621   H670    1.115   .     S
C622   C623    1.521   .     S
C622   H488    1.107   1_655 S
C622   H489    1.111   1_655 S
C623   H643    1.111   .     S
C623   H186    1.111   1_565 S
C623   H492    1.103   1_655 S
C624   H645    1.108   .     S
C624   O675    1.419   .     S
C624   C625    1.534   .     S
C624   H646    1.113   .     S
C625   C626    1.524   .     S
C625   H495    1.108   1_655 S
C625   H496    1.111   1_655 S
C626   H649    1.111   .     S
C626   H499    1.104   1_655 S
C627   C628    1.530   .     S
C627   H653    1.117   .     S
C627   H654    1.112   .     S
C627   O676    1.414   .     S
C628   H656    1.109   .     S
C628   H655    1.106   .     S
C628   C629    1.526   .     S
C629   H657    1.110   .     S
C629   H659    1.111   .     S
C629   H1342   1.108   .     S
C630   O680    1.289   .     A
C630   O683    1.289   .     A
C630   C632    1.408   .     S
C631   O681    1.289   .     A
C631   C633    1.408   .     S
C631   O682    1.288   .     A
C632   C2001   1.190   1_554 S
C633   C1316   1.190   .     S
C634   O684    1.387   .     S
C635   O674    1.386   .     S
C635   C458    1.390   1_655 S
C636   O675    1.383   .     S
C636   C482    1.389   1_655 S
Cu637  N671    2.016   .     S
Cu637  O680    1.933   .     S
Cu637  O673    1.979   .     S
Cu637  Cu638   2.682   .     S
Cu637  O678    1.977   .     S
Cu637  O682    1.933   .     S
Cu638  O679    1.977   .     S
Cu638  O683    1.933   .     S
Cu638  N672    2.016   .     S
Cu638  O677    1.979   .     S
Cu638  O681    1.933   .     S
H652   C170    1.111   1_565 S
H658   C1997   1.108   1_554 S
C685   O755    1.295   .     A
C685   C688    1.454   .     S
C685   O749    1.289   .     A
C686   C688    1.408   .     A
C686   O752    1.384   .     S
C686   C863    1.390   1_455 S
C687   C696    1.469   .     S
C687   C711    1.420   .     A
C687   C712    1.418   .     A
C688   C710    1.406   .     A
C689   H736    1.081   .     S
C689   N748    1.367   .     A
C689   C1148   1.418   1_545 S
C690   N747    1.367   .     A
C690   H738    1.082   .     S
C690   C919    1.417   .     S
C691   H739    1.081   .     S
C691   N748    1.367   .     A
C691   C1146   1.417   1_545 S
C692   H740    1.082   .     S
C692   N747    1.368   .     A
C692   C917    1.418   .     S
C693   O760    1.421   .     S
C693   C694    1.526   .     S
C693   H726    1.119   .     S
C693   H715    1.109   .     S
C694   H741    1.109   .     S
C694   H737    1.111   .     S
C695   H742    1.111   .     S
C695   H743    1.108   .     S
C695   H744    1.110   .     S
C695   C1378   1.528   .     S
C696   O753    1.297   .     A
C696   O754    1.295   .     A
C697   O750    1.421   .     S
C697   H745    1.111   .     S
C697   C698    1.531   .     S
C697   H746    1.115   .     S
C698   C699    1.521   .     S
C698   H792    1.107   .     S
C698   H793    1.111   .     S
C699   H719    1.111   .     S
C699   H946    1.111   .     S
C699   H796    1.103   .     S
C700   H721    1.108   .     S
C700   O751    1.419   .     S
C700   C701    1.534   .     S
C700   H722    1.113   .     S
C701   C702    1.524   .     S
C701   H799    1.108   .     S
C701   H800    1.111   .     S
C702   H725    1.111   .     S
C702   H803    1.104   .     S
C702   H1184   1.111   1_545 S
C703   C704    1.530   .     S
C703   H729    1.117   .     S
C703   H730    1.112   .     S
C703   O752    1.414   .     S
C704   H732    1.109   .     S
C704   H731    1.106   .     S
C704   C705    1.526   .     S
C705   H733    1.110   .     S
C705   H735    1.111   .     S
C705   H1418   1.108   .     S
C706   O756    1.289   .     A
C706   O759    1.289   .     A
C706   C708    1.408   .     S
C707   O757    1.289   .     A
C707   C709    1.408   .     S
C707   O758    1.288   .     A
C709   C1392   1.190   .     S
C710   O760    1.387   .     S
C710   C864    1.389   1_455 S
C711   O750    1.386   .     S
C711   C762    1.390   .     S
C712   O751    1.383   .     S
C712   C786    1.389   .     S
Cu713  N747    2.016   .     S
Cu713  O756    1.933   .     S
Cu713  O749    1.979   .     S
Cu713  Cu714   2.682   .     S
Cu713  O754    1.977   .     S
Cu713  O758    1.933   .     S
Cu714  O755    1.977   .     S
Cu714  O759    1.933   .     S
Cu714  N748    2.016   .     S
Cu714  O753    1.979   .     S
Cu714  O757    1.933   .     S
H716   C850    1.107   1_455 S
H717   C850    1.111   1_455 S
H718   C1155   1.111   1_545 S
H720   C851    1.103   1_455 S
H723   C853    1.108   1_455 S
H724   C853    1.111   1_455 S
H727   C854    1.104   1_455 S
H728   C930    1.111   .     S
C761   O831    1.295   .     A
C761   C764    1.454   .     S
C761   O825    1.289   .     A
C762   C764    1.408   .     A
C762   O828    1.384   .     S
C763   C772    1.469   .     S
C763   C787    1.420   .     A
C763   C788    1.418   .     A
C764   C786    1.406   .     A
C765   H812    1.081   .     S
C765   N824    1.367   .     A
C765   C1224   1.418   1_545 S
C766   N823    1.367   .     A
C766   H814    1.082   .     S
C766   C995    1.417   .     S
C767   H815    1.081   .     S
C767   N824    1.367   .     A
C767   C1222   1.417   1_545 S
C768   H816    1.082   .     S
C768   N823    1.368   .     A
C768   C993    1.418   .     S
C769   O836    1.421   .     S
C769   C770    1.526   .     S
C769   H802    1.119   .     S
C769   H791    1.109   .     S
C770   H817    1.109   .     S
C770   H813    1.111   .     S
C771   H818    1.111   .     S
C771   H819    1.108   .     S
C771   H820    1.110   .     S
C771   C1454   1.528   .     S
C772   O829    1.297   .     A
C772   O830    1.295   .     A
C773   O826    1.421   .     S
C773   H821    1.111   .     S
C773   C774    1.531   .     S
C773   H822    1.115   .     S
C774   C775    1.521   .     S
C774   H868    1.107   .     S
C774   H869    1.111   .     S
C775   H795    1.111   .     S
C775   H1022   1.111   .     S
C775   H872    1.103   .     S
C776   H797    1.108   .     S
C776   O827    1.419   .     S
C776   C777    1.534   .     S
C776   H798    1.113   .     S
C777   C778    1.524   .     S
C777   H875    1.108   .     S
C777   H876    1.111   .     S
C778   H801    1.111   .     S
C778   H879    1.104   .     S
C778   H1260   1.111   1_545 S
C779   C780    1.530   .     S
C779   H805    1.117   .     S
C779   H806    1.112   .     S
C779   O828    1.414   .     S
C780   H808    1.109   .     S
C780   H807    1.106   .     S
C780   C781    1.526   .     S
C781   H809    1.110   .     S
C781   H811    1.111   .     S
C781   H1494   1.108   .     S
C782   O832    1.289   .     A
C782   O835    1.289   .     A
C782   C784    1.408   .     S
C783   O833    1.289   .     A
C783   C785    1.408   .     S
C783   O834    1.288   .     A
C785   C1468   1.190   .     S
C786   O836    1.387   .     S
C787   O826    1.386   .     S
C787   C838    1.390   .     S
C788   O827    1.383   .     S
C788   C862    1.389   .     S
Cu789  N823    2.016   .     S
Cu789  O832    1.933   .     S
Cu789  O825    1.979   .     S
Cu789  Cu790   2.682   .     S
Cu789  O830    1.977   .     S
Cu789  O834    1.933   .     S
Cu790  O831    1.977   .     S
Cu790  O835    1.933   .     S
Cu790  N824    2.016   .     S
Cu790  O829    1.979   .     S
Cu790  O833    1.933   .     S
H794   C1231   1.111   1_545 S
H804   C1006   1.111   .     S
C837   O907    1.295   .     A
C837   C840    1.454   .     S
C837   O901    1.289   .     A
C838   C840    1.408   .     A
C838   O904    1.384   .     S
C839   C848    1.469   .     S
C839   C863    1.420   .     A
C839   C864    1.418   .     A
C840   C862    1.406   .     A
C841   H888    1.081   .     S
C841   N900    1.367   .     A
C841   C1300   1.418   1_545 S
C842   N899    1.367   .     A
C842   H890    1.082   .     S
C842   C1071   1.417   .     S
C843   H891    1.081   .     S
C843   N900    1.367   .     A
C843   C1298   1.417   1_545 S
C844   H892    1.082   .     S
C844   N899    1.368   .     A
C844   C1069   1.418   .     S
C845   O912    1.421   .     S
C845   C846    1.526   .     S
C845   H878    1.119   .     S
C845   H867    1.109   .     S
C846   H893    1.109   .     S
C846   H889    1.111   .     S
C847   H894    1.111   .     S
C847   H895    1.108   .     S
C847   H896    1.110   .     S
C847   C1530   1.528   .     S
C848   O905    1.297   .     A
C848   O906    1.295   .     A
C849   O902    1.421   .     S
C849   H897    1.111   .     S
C849   C850    1.531   .     S
C849   H898    1.115   .     S
C850   C851    1.521   .     S
C850   H716    1.107   1_655 S
C850   H717    1.111   1_655 S
C851   H871    1.111   .     S
C851   H1098   1.111   .     S
C851   H720    1.103   1_655 S
C852   H873    1.108   .     S
C852   O903    1.419   .     S
C852   C853    1.534   .     S
C852   H874    1.113   .     S
C853   C854    1.524   .     S
C853   H723    1.108   1_655 S
C853   H724    1.111   1_655 S
C854   H877    1.111   .     S
C854   H727    1.104   1_655 S
C854   H1336   1.111   1_545 S
C855   C856    1.530   .     S
C855   H881    1.117   .     S
C855   H882    1.112   .     S
C855   O904    1.414   .     S
C856   H884    1.109   .     S
C856   H883    1.106   .     S
C856   C857    1.526   .     S
C857   H885    1.110   .     S
C857   H887    1.111   .     S
C857   H1570   1.108   .     S
C858   O908    1.289   .     A
C858   O911    1.289   .     A
C858   C860    1.408   .     S
C859   O909    1.289   .     A
C859   C861    1.408   .     S
C859   O910    1.288   .     A
C861   C1544   1.190   .     S
C862   O912    1.387   .     S
C863   O902    1.386   .     S
C863   C686    1.390   1_655 S
C864   O903    1.383   .     S
C864   C710    1.389   1_655 S
Cu865  N899    2.016   .     S
Cu865  O908    1.933   .     S
Cu865  O901    1.979   .     S
Cu865  Cu866   2.682   .     S
Cu865  O906    1.977   .     S
Cu865  O910    1.933   .     S
Cu866  O907    1.977   .     S
Cu866  O911    1.933   .     S
Cu866  N900    2.016   .     S
Cu866  O905    1.979   .     S
Cu866  O909    1.933   .     S
H870   C1307   1.111   1_545 S
H880   C1082   1.111   .     S
C913   O983    1.295   .     A
C913   C916    1.454   .     S
C913   O977    1.289   .     A
C914   C916    1.408   .     A
C914   O980    1.384   .     S
C914   C1091   1.390   1_455 S
C915   C924    1.469   .     S
C915   C939    1.420   .     A
C915   C940    1.418   .     A
C916   C938    1.406   .     A
C917   H964    1.081   .     S
C917   N976    1.367   .     A
C918   N975    1.367   .     A
C918   H966    1.082   .     S
C918   C1147   1.417   .     S
C919   H967    1.081   .     S
C919   N976    1.367   .     A
C920   H968    1.082   .     S
C920   N975    1.368   .     A
C920   C1145   1.418   .     S
C921   O988    1.421   .     S
C921   C922    1.526   .     S
C921   H954    1.119   .     S
C921   H943    1.109   .     S
C922   H969    1.109   .     S
C922   H965    1.111   .     S
C923   H970    1.111   .     S
C923   H971    1.108   .     S
C923   H972    1.110   .     S
C923   C1606   1.528   .     S
C924   O981    1.297   .     A
C924   O982    1.295   .     A
C925   O978    1.421   .     S
C925   H973    1.111   .     S
C925   C926    1.531   .     S
C925   H974    1.115   .     S
C926   C927    1.521   .     S
C926   H1020   1.107   .     S
C926   H1021   1.111   .     S
C927   H947    1.111   .     S
C927   H1174   1.111   .     S
C927   H1024   1.103   .     S
C928   H949    1.108   .     S
C928   O979    1.419   .     S
C928   C929    1.534   .     S
C928   H950    1.113   .     S
C929   C930    1.524   .     S
C929   H1027   1.108   .     S
C929   H1028   1.111   .     S
C930   H953    1.111   .     S
C930   H1031   1.104   .     S
C931   C932    1.530   .     S
C931   H957    1.117   .     S
C931   H958    1.112   .     S
C931   O980    1.414   .     S
C932   H960    1.109   .     S
C932   H959    1.106   .     S
C932   C933    1.526   .     S
C933   H961    1.110   .     S
C933   H963    1.111   .     S
C933   H1646   1.108   .     S
C934   O984    1.289   .     A
C934   O987    1.289   .     A
C934   C936    1.408   .     S
C935   O985    1.289   .     A
C935   C937    1.408   .     S
C935   O986    1.288   .     A
C937   C1620   1.190   .     S
C938   O988    1.387   .     S
C938   C1092   1.389   1_455 S
C939   O978    1.386   .     S
C939   C990    1.390   .     S
C940   O979    1.383   .     S
C940   C1014   1.389   .     S
Cu941  N975    2.016   .     S
Cu941  O984    1.933   .     S
Cu941  O977    1.979   .     S
Cu941  Cu942   2.682   .     S
Cu941  O982    1.977   .     S
Cu941  O986    1.933   .     S
Cu942  O983    1.977   .     S
Cu942  O987    1.933   .     S
Cu942  N976    2.016   .     S
Cu942  O981    1.979   .     S
Cu942  O985    1.933   .     S
H944   C1078   1.107   1_455 S
H945   C1078   1.111   1_455 S
H948   C1079   1.103   1_455 S
H951   C1081   1.108   1_455 S
H952   C1081   1.111   1_455 S
H955   C1082   1.104   1_455 S
H956   C1158   1.111   .     S
C989   O1059   1.295   .     A
C989   C992    1.454   .     S
C989   O1053   1.289   .     A
C990   C992    1.408   .     A
C990   O1056   1.384   .     S
C991   C1000   1.469   .     S
C991   C1015   1.420   .     A
C991   C1016   1.418   .     A
C992   C1014   1.406   .     A
C993   H1040   1.081   .     S
C993   N1052   1.367   .     A
C994   N1051   1.367   .     A
C994   H1042   1.082   .     S
C994   C1223   1.417   .     S
C995   H1043   1.081   .     S
C995   N1052   1.367   .     A
C996   H1044   1.082   .     S
C996   N1051   1.368   .     A
C996   C1221   1.418   .     S
C997   O1064   1.421   .     S
C997   C998    1.526   .     S
C997   H1030   1.119   .     S
C997   H1019   1.109   .     S
C998   H1045   1.109   .     S
C998   H1041   1.111   .     S
C999   H1046   1.111   .     S
C999   H1047   1.108   .     S
C999   H1048   1.110   .     S
C999   C1682   1.528   .     S
C1000  O1057   1.297   .     A
C1000  O1058   1.295   .     A
C1001  O1054   1.421   .     S
C1001  H1049   1.111   .     S
C1001  C1002   1.531   .     S
C1001  H1050   1.115   .     S
C1002  C1003   1.521   .     S
C1002  H1096   1.107   .     S
C1002  H1097   1.111   .     S
C1003  H1023   1.111   .     S
C1003  H1250   1.111   .     S
C1003  H1100   1.103   .     S
C1004  H1025   1.108   .     S
C1004  O1055   1.419   .     S
C1004  C1005   1.534   .     S
C1004  H1026   1.113   .     S
C1005  C1006   1.524   .     S
C1005  H1103   1.108   .     S
C1005  H1104   1.111   .     S
C1006  H1029   1.111   .     S
C1006  H1107   1.104   .     S
C1007  C1008   1.530   .     S
C1007  H1033   1.117   .     S
C1007  H1034   1.112   .     S
C1007  O1056   1.414   .     S
C1008  H1036   1.109   .     S
C1008  H1035   1.106   .     S
C1008  C1009   1.526   .     S
C1009  H1037   1.110   .     S
C1009  H1039   1.111   .     S
C1009  H1722   1.108   .     S
C1010  O1060   1.289   .     A
C1010  O1063   1.289   .     A
C1010  C1012   1.408   .     S
C1011  O1061   1.289   .     A
C1011  C1013   1.408   .     S
C1011  O1062   1.288   .     A
C1013  C1696   1.190   .     S
C1014  O1064   1.387   .     S
C1015  O1054   1.386   .     S
C1015  C1066   1.390   .     S
C1016  O1055   1.383   .     S
C1016  C1090   1.389   .     S
Cu1017 N1051   2.016   .     S
Cu1017 O1060   1.933   .     S
Cu1017 O1053   1.979   .     S
Cu1017 Cu1018  2.682   .     S
Cu1017 O1058   1.977   .     S
Cu1017 O1062   1.933   .     S
Cu1018 O1059   1.977   .     S
Cu1018 O1063   1.933   .     S
Cu1018 N1052   2.016   .     S
Cu1018 O1057   1.979   .     S
Cu1018 O1061   1.933   .     S
H1032  C1234   1.111   .     S
C1065  O1135   1.295   .     A
C1065  C1068   1.454   .     S
C1065  O1129   1.289   .     A
C1066  C1068   1.408   .     A
C1066  O1132   1.384   .     S
C1067  C1076   1.469   .     S
C1067  C1091   1.420   .     A
C1067  C1092   1.418   .     A
C1068  C1090   1.406   .     A
C1069  H1116   1.081   .     S
C1069  N1128   1.367   .     A
C1070  N1127   1.367   .     A
C1070  H1118   1.082   .     S
C1070  C1299   1.417   .     S
C1071  H1119   1.081   .     S
C1071  N1128   1.367   .     A
C1072  H1120   1.082   .     S
C1072  N1127   1.368   .     A
C1072  C1297   1.418   .     S
C1073  O1140   1.421   .     S
C1073  C1074   1.526   .     S
C1073  H1106   1.119   .     S
C1073  H1095   1.109   .     S
C1074  H1121   1.109   .     S
C1074  H1117   1.111   .     S
C1075  H1122   1.111   .     S
C1075  H1123   1.108   .     S
C1075  H1124   1.110   .     S
C1075  C1758   1.528   .     S
C1076  O1133   1.297   .     A
C1076  O1134   1.295   .     A
C1077  O1130   1.421   .     S
C1077  H1125   1.111   .     S
C1077  C1078   1.531   .     S
C1077  H1126   1.115   .     S
C1078  C1079   1.521   .     S
C1078  H944    1.107   1_655 S
C1078  H945    1.111   1_655 S
C1079  H1099   1.111   .     S
C1079  H1326   1.111   .     S
C1079  H948    1.103   1_655 S
C1080  H1101   1.108   .     S
C1080  O1131   1.419   .     S
C1080  C1081   1.534   .     S
C1080  H1102   1.113   .     S
C1081  C1082   1.524   .     S
C1081  H951    1.108   1_655 S
C1081  H952    1.111   1_655 S
C1082  H1105   1.111   .     S
C1082  H955    1.104   1_655 S
C1083  C1084   1.530   .     S
C1083  H1109   1.117   .     S
C1083  H1110   1.112   .     S
C1083  O1132   1.414   .     S
C1084  H1112   1.109   .     S
C1084  H1111   1.106   .     S
C1084  C1085   1.526   .     S
C1085  H1113   1.110   .     S
C1085  H1115   1.111   .     S
C1085  H1798   1.108   .     S
C1086  O1136   1.289   .     A
C1086  O1139   1.289   .     A
C1086  C1088   1.408   .     S
C1087  O1137   1.289   .     A
C1087  C1089   1.408   .     S
C1087  O1138   1.288   .     A
C1089  C1772   1.190   .     S
C1090  O1140   1.387   .     S
C1091  O1130   1.386   .     S
C1091  C914    1.390   1_655 S
C1092  O1131   1.383   .     S
C1092  C938    1.389   1_655 S
Cu1093 N1127   2.016   .     S
Cu1093 O1136   1.933   .     S
Cu1093 O1129   1.979   .     S
Cu1093 Cu1094  2.682   .     S
Cu1093 O1134   1.977   .     S
Cu1093 O1138   1.933   .     S
Cu1094 O1135   1.977   .     S
Cu1094 O1139   1.933   .     S
Cu1094 N1128   2.016   .     S
Cu1094 O1133   1.979   .     S
Cu1094 O1137   1.933   .     S
H1108  C1310   1.111   .     S
C1141  O1211   1.295   .     A
C1141  C1144   1.454   .     S
C1141  O1205   1.289   .     A
C1142  C1144   1.408   .     A
C1142  O1208   1.384   .     S
C1142  C1319   1.390   1_455 S
C1143  C1152   1.469   .     S
C1143  C1167   1.420   .     A
C1143  C1168   1.418   .     A
C1144  C1166   1.406   .     A
C1145  H1192   1.081   .     S
C1145  N1204   1.367   .     A
C1146  N1203   1.367   .     A
C1146  H1194   1.082   .     S
C1146  C691    1.417   1_565 S
C1147  H1195   1.081   .     S
C1147  N1204   1.367   .     A
C1148  H1196   1.082   .     S
C1148  N1203   1.368   .     A
C1148  C689    1.418   1_565 S
C1149  O1216   1.421   .     S
C1149  C1150   1.526   .     S
C1149  H1182   1.119   .     S
C1149  H1171   1.109   .     S
C1150  H1197   1.109   .     S
C1150  H1193   1.111   .     S
C1151  H1198   1.111   .     S
C1151  H1199   1.108   .     S
C1151  H1200   1.110   .     S
C1151  C1834   1.528   .     S
C1152  O1209   1.297   .     A
C1152  O1210   1.295   .     A
C1153  O1206   1.421   .     S
C1153  H1201   1.111   .     S
C1153  C1154   1.531   .     S
C1153  H1202   1.115   .     S
C1154  C1155   1.521   .     S
C1154  H1248   1.107   .     S
C1154  H1249   1.111   .     S
C1155  H1175   1.111   .     S
C1155  H718    1.111   1_565 S
C1155  H1252   1.103   .     S
C1156  H1177   1.108   .     S
C1156  O1207   1.419   .     S
C1156  C1157   1.534   .     S
C1156  H1178   1.113   .     S
C1157  C1158   1.524   .     S
C1157  H1255   1.108   .     S
C1157  H1256   1.111   .     S
C1158  H1181   1.111   .     S
C1158  H1259   1.104   .     S
C1159  C1160   1.530   .     S
C1159  H1185   1.117   .     S
C1159  H1186   1.112   .     S
C1159  O1208   1.414   .     S
C1160  H1188   1.109   .     S
C1160  H1187   1.106   .     S
C1160  C1161   1.526   .     S
C1161  H1189   1.110   .     S
C1161  H1191   1.111   .     S
C1161  H1874   1.108   .     S
C1162  O1212   1.289   .     A
C1162  O1215   1.289   .     A
C1162  C1164   1.408   .     S
C1163  O1213   1.289   .     A
C1163  C1165   1.408   .     S
C1163  O1214   1.288   .     A
C1165  C1848   1.190   .     S
C1166  O1216   1.387   .     S
C1166  C1320   1.389   1_455 S
C1167  O1206   1.386   .     S
C1167  C1218   1.390   .     S
C1168  O1207   1.383   .     S
C1168  C1242   1.389   .     S
Cu1169 N1203   2.016   .     S
Cu1169 O1212   1.933   .     S
Cu1169 O1205   1.979   .     S
Cu1169 Cu1170  2.682   .     S
Cu1169 O1210   1.977   .     S
Cu1169 O1214   1.933   .     S
Cu1170 O1211   1.977   .     S
Cu1170 O1215   1.933   .     S
Cu1170 N1204   2.016   .     S
Cu1170 O1209   1.979   .     S
Cu1170 O1213   1.933   .     S
H1172  C1306   1.107   1_455 S
H1173  C1306   1.111   1_455 S
H1176  C1307   1.103   1_455 S
H1179  C1309   1.108   1_455 S
H1180  C1309   1.111   1_455 S
H1183  C1310   1.104   1_455 S
H1184  C702    1.111   1_565 S
C1217  O1287   1.295   .     A
C1217  C1220   1.454   .     S
C1217  O1281   1.289   .     A
C1218  C1220   1.408   .     A
C1218  O1284   1.384   .     S
C1219  C1228   1.469   .     S
C1219  C1243   1.420   .     A
C1219  C1244   1.418   .     A
C1220  C1242   1.406   .     A
C1221  H1268   1.081   .     S
C1221  N1280   1.367   .     A
C1222  N1279   1.367   .     A
C1222  H1270   1.082   .     S
C1222  C767    1.417   1_565 S
C1223  H1271   1.081   .     S
C1223  N1280   1.367   .     A
C1224  H1272   1.082   .     S
C1224  N1279   1.368   .     A
C1224  C765    1.418   1_565 S
C1225  O1292   1.421   .     S
C1225  C1226   1.526   .     S
C1225  H1258   1.119   .     S
C1225  H1247   1.109   .     S
C1226  H1273   1.109   .     S
C1226  H1269   1.111   .     S
C1227  H1274   1.111   .     S
C1227  H1275   1.108   .     S
C1227  H1276   1.110   .     S
C1227  C1910   1.528   .     S
C1228  O1285   1.297   .     A
C1228  O1286   1.295   .     A
C1229  O1282   1.421   .     S
C1229  H1277   1.111   .     S
C1229  C1230   1.531   .     S
C1229  H1278   1.115   .     S
C1230  C1231   1.521   .     S
C1230  H1324   1.107   .     S
C1230  H1325   1.111   .     S
C1231  H1251   1.111   .     S
C1231  H794    1.111   1_565 S
C1231  H1328   1.103   .     S
C1232  H1253   1.108   .     S
C1232  O1283   1.419   .     S
C1232  C1233   1.534   .     S
C1232  H1254   1.113   .     S
C1233  C1234   1.524   .     S
C1233  H1331   1.108   .     S
C1233  H1332   1.111   .     S
C1234  H1257   1.111   .     S
C1234  H1335   1.104   .     S
C1235  C1236   1.530   .     S
C1235  H1261   1.117   .     S
C1235  H1262   1.112   .     S
C1235  O1284   1.414   .     S
C1236  H1264   1.109   .     S
C1236  H1263   1.106   .     S
C1236  C1237   1.526   .     S
C1237  H1265   1.110   .     S
C1237  H1267   1.111   .     S
C1237  H1950   1.108   .     S
C1238  O1288   1.289   .     A
C1238  O1291   1.289   .     A
C1238  C1240   1.408   .     S
C1239  O1289   1.289   .     A
C1239  C1241   1.408   .     S
C1239  O1290   1.288   .     A
C1241  C1924   1.190   .     S
C1242  O1292   1.387   .     S
C1243  O1282   1.386   .     S
C1243  C1294   1.390   .     S
C1244  O1283   1.383   .     S
C1244  C1318   1.389   .     S
Cu1245 N1279   2.016   .     S
Cu1245 O1288   1.933   .     S
Cu1245 O1281   1.979   .     S
Cu1245 Cu1246  2.682   .     S
Cu1245 O1286   1.977   .     S
Cu1245 O1290   1.933   .     S
Cu1246 O1287   1.977   .     S
Cu1246 O1291   1.933   .     S
Cu1246 N1280   2.016   .     S
Cu1246 O1285   1.979   .     S
Cu1246 O1289   1.933   .     S
H1260  C778    1.111   1_565 S
C1293  O1363   1.295   .     A
C1293  C1296   1.454   .     S
C1293  O1357   1.289   .     A
C1294  C1296   1.408   .     A
C1294  O1360   1.384   .     S
C1295  C1304   1.469   .     S
C1295  C1319   1.420   .     A
C1295  C1320   1.418   .     A
C1296  C1318   1.406   .     A
C1297  H1344   1.081   .     S
C1297  N1356   1.367   .     A
C1298  N1355   1.367   .     A
C1298  H1346   1.082   .     S
C1298  C843    1.417   1_565 S
C1299  H1347   1.081   .     S
C1299  N1356   1.367   .     A
C1300  H1348   1.082   .     S
C1300  N1355   1.368   .     A
C1300  C841    1.418   1_565 S
C1301  O1368   1.421   .     S
C1301  C1302   1.526   .     S
C1301  H1334   1.119   .     S
C1301  H1323   1.109   .     S
C1302  H1349   1.109   .     S
C1302  H1345   1.111   .     S
C1303  H1350   1.111   .     S
C1303  H1351   1.108   .     S
C1303  H1352   1.110   .     S
C1303  C1986   1.528   .     S
C1304  O1361   1.297   .     A
C1304  O1362   1.295   .     A
C1305  O1358   1.421   .     S
C1305  H1353   1.111   .     S
C1305  C1306   1.531   .     S
C1305  H1354   1.115   .     S
C1306  C1307   1.521   .     S
C1306  H1172   1.107   1_655 S
C1306  H1173   1.111   1_655 S
C1307  H1327   1.111   .     S
C1307  H870    1.111   1_565 S
C1307  H1176   1.103   1_655 S
C1308  H1329   1.108   .     S
C1308  O1359   1.419   .     S
C1308  C1309   1.534   .     S
C1308  H1330   1.113   .     S
C1309  C1310   1.524   .     S
C1309  H1179   1.108   1_655 S
C1309  H1180   1.111   1_655 S
C1310  H1333   1.111   .     S
C1310  H1183   1.104   1_655 S
C1311  C1312   1.530   .     S
C1311  H1337   1.117   .     S
C1311  H1338   1.112   .     S
C1311  O1360   1.414   .     S
C1312  H1340   1.109   .     S
C1312  H1339   1.106   .     S
C1312  C1313   1.526   .     S
C1313  H1341   1.110   .     S
C1313  H1343   1.111   .     S
C1313  H2026   1.108   .     S
C1314  O1364   1.289   .     A
C1314  O1367   1.289   .     A
C1314  C1316   1.408   .     S
C1315  O1365   1.289   .     A
C1315  C1317   1.408   .     S
C1315  O1366   1.288   .     A
C1317  C2000   1.190   .     S
C1318  O1368   1.387   .     S
C1319  O1358   1.386   .     S
C1319  C1142   1.390   1_655 S
C1320  O1359   1.383   .     S
C1320  C1166   1.389   1_655 S
Cu1321 N1355   2.016   .     S
Cu1321 O1364   1.933   .     S
Cu1321 O1357   1.979   .     S
Cu1321 Cu1322  2.682   .     S
Cu1321 O1362   1.977   .     S
Cu1321 O1366   1.933   .     S
Cu1322 O1363   1.977   .     S
Cu1322 O1367   1.933   .     S
Cu1322 N1356   2.016   .     S
Cu1322 O1361   1.979   .     S
Cu1322 O1365   1.933   .     S
H1336  C854    1.111   1_565 S
C1369  O1439   1.295   .     A
C1369  C1372   1.454   .     S
C1369  O1433   1.289   .     A
C1370  C1372   1.408   .     A
C1370  O1436   1.384   .     S
C1370  C1547   1.390   1_455 S
C1371  C1380   1.469   .     S
C1371  C1395   1.420   .     A
C1371  C1396   1.418   .     A
C1372  C1394   1.406   .     A
C1373  H1420   1.081   .     S
C1373  N1432   1.367   .     A
C1373  C1832   1.418   1_545 S
C1374  N1431   1.367   .     A
C1374  H1422   1.082   .     S
C1374  C1603   1.417   .     S
C1375  H1423   1.081   .     S
C1375  N1432   1.367   .     A
C1375  C1830   1.417   1_545 S
C1376  H1424   1.082   .     S
C1376  N1431   1.368   .     A
C1376  C1601   1.418   .     S
C1377  O1444   1.421   .     S
C1377  C1378   1.526   .     S
C1377  H1410   1.119   .     S
C1377  H1399   1.109   .     S
C1378  H1425   1.109   .     S
C1378  H1421   1.111   .     S
C1379  H1426   1.111   .     S
C1379  H1427   1.108   .     S
C1379  H1428   1.110   .     S
C1379  C10     1.528   1_556 S
C1380  O1437   1.297   .     A
C1380  O1438   1.295   .     A
C1381  O1434   1.421   .     S
C1381  H1429   1.111   .     S
C1381  C1382   1.531   .     S
C1381  H1430   1.115   .     S
C1382  C1383   1.521   .     S
C1382  H1476   1.107   .     S
C1382  H1477   1.111   .     S
C1383  H1403   1.111   .     S
C1383  H1630   1.111   .     S
C1383  H1480   1.103   .     S
C1384  H1405   1.108   .     S
C1384  O1435   1.419   .     S
C1384  C1385   1.534   .     S
C1384  H1406   1.113   .     S
C1385  C1386   1.524   .     S
C1385  H1483   1.108   .     S
C1385  H1484   1.111   .     S
C1386  H1409   1.111   .     S
C1386  H1487   1.104   .     S
C1386  H1868   1.111   1_545 S
C1387  C1388   1.530   .     S
C1387  H1413   1.117   .     S
C1387  H1414   1.112   .     S
C1387  O1436   1.414   .     S
C1388  H1416   1.109   .     S
C1388  H1415   1.106   .     S
C1388  C1389   1.526   .     S
C1389  H1417   1.110   .     S
C1389  H1419   1.111   .     S
C1389  H50     1.108   1_556 S
C1390  O1440   1.289   .     A
C1390  O1443   1.289   .     A
C1390  C1392   1.408   .     S
C1391  O1441   1.289   .     A
C1391  C1393   1.408   .     S
C1391  O1442   1.288   .     A
C1393  C24     1.190   1_556 S
C1394  O1444   1.387   .     S
C1394  C1548   1.389   1_455 S
C1395  O1434   1.386   .     S
C1395  C1446   1.390   .     S
C1396  O1435   1.383   .     S
C1396  C1470   1.389   .     S
Cu1397 N1431   2.016   .     S
Cu1397 O1440   1.933   .     S
Cu1397 O1433   1.979   .     S
Cu1397 Cu1398  2.682   .     S
Cu1397 O1438   1.977   .     S
Cu1397 O1442   1.933   .     S
Cu1398 O1439   1.977   .     S
Cu1398 O1443   1.933   .     S
Cu1398 N1432   2.016   .     S
Cu1398 O1437   1.979   .     S
Cu1398 O1441   1.933   .     S
H1400  C1534   1.107   1_455 S
H1401  C1534   1.111   1_455 S
H1402  C1839   1.111   1_545 S
H1404  C1535   1.103   1_455 S
H1407  C1537   1.108   1_455 S
H1408  C1537   1.111   1_455 S
H1411  C1538   1.104   1_455 S
H1412  C1614   1.111   .     S
C1445  O1515   1.295   .     A
C1445  C1448   1.454   .     S
C1445  O1509   1.289   .     A
C1446  C1448   1.408   .     A
C1446  O1512   1.384   .     S
C1447  C1456   1.469   .     S
C1447  C1471   1.420   .     A
C1447  C1472   1.418   .     A
C1448  C1470   1.406   .     A
C1449  H1496   1.081   .     S
C1449  N1508   1.367   .     A
C1449  C1908   1.418   1_545 S
C1450  N1507   1.367   .     A
C1450  H1498   1.082   .     S
C1450  C1679   1.417   .     S
C1451  H1499   1.081   .     S
C1451  N1508   1.367   .     A
C1451  C1906   1.417   1_545 S
C1452  H1500   1.082   .     S
C1452  N1507   1.368   .     A
C1452  C1677   1.418   .     S
C1453  O1520   1.421   .     S
C1453  C1454   1.526   .     S
C1453  H1486   1.119   .     S
C1453  H1475   1.109   .     S
C1454  H1501   1.109   .     S
C1454  H1497   1.111   .     S
C1455  H1502   1.111   .     S
C1455  H1503   1.108   .     S
C1455  H1504   1.110   .     S
C1455  C86     1.528   1_556 S
C1456  O1513   1.297   .     A
C1456  O1514   1.295   .     A
C1457  O1510   1.421   .     S
C1457  H1505   1.111   .     S
C1457  C1458   1.531   .     S
C1457  H1506   1.115   .     S
C1458  C1459   1.521   .     S
C1458  H1552   1.107   .     S
C1458  H1553   1.111   .     S
C1459  H1479   1.111   .     S
C1459  H1706   1.111   .     S
C1459  H1556   1.103   .     S
C1460  H1481   1.108   .     S
C1460  O1511   1.419   .     S
C1460  C1461   1.534   .     S
C1460  H1482   1.113   .     S
C1461  C1462   1.524   .     S
C1461  H1559   1.108   .     S
C1461  H1560   1.111   .     S
C1462  H1485   1.111   .     S
C1462  H1563   1.104   .     S
C1462  H1944   1.111   1_545 S
C1463  C1464   1.530   .     S
C1463  H1489   1.117   .     S
C1463  H1490   1.112   .     S
C1463  O1512   1.414   .     S
C1464  H1492   1.109   .     S
C1464  H1491   1.106   .     S
C1464  C1465   1.526   .     S
C1465  H1493   1.110   .     S
C1465  H1495   1.111   .     S
C1465  H126    1.108   1_556 S
C1466  O1516   1.289   .     A
C1466  O1519   1.289   .     A
C1466  C1468   1.408   .     S
C1467  O1517   1.289   .     A
C1467  C1469   1.408   .     S
C1467  O1518   1.288   .     A
C1469  C100    1.190   1_556 S
C1470  O1520   1.387   .     S
C1471  O1510   1.386   .     S
C1471  C1522   1.390   .     S
C1472  O1511   1.383   .     S
C1472  C1546   1.389   .     S
Cu1473 N1507   2.016   .     S
Cu1473 O1516   1.933   .     S
Cu1473 O1509   1.979   .     S
Cu1473 Cu1474  2.682   .     S
Cu1473 O1514   1.977   .     S
Cu1473 O1518   1.933   .     S
Cu1474 O1515   1.977   .     S
Cu1474 O1519   1.933   .     S
Cu1474 N1508   2.016   .     S
Cu1474 O1513   1.979   .     S
Cu1474 O1517   1.933   .     S
H1478  C1915   1.111   1_545 S
H1488  C1690   1.111   .     S
C1521  O1591   1.295   .     A
C1521  C1524   1.454   .     S
C1521  O1585   1.289   .     A
C1522  C1524   1.408   .     A
C1522  O1588   1.384   .     S
C1523  C1532   1.469   .     S
C1523  C1547   1.420   .     A
C1523  C1548   1.418   .     A
C1524  C1546   1.406   .     A
C1525  H1572   1.081   .     S
C1525  N1584   1.367   .     A
C1525  C1984   1.418   1_545 S
C1526  N1583   1.367   .     A
C1526  H1574   1.082   .     S
C1526  C1755   1.417   .     S
C1527  H1575   1.081   .     S
C1527  N1584   1.367   .     A
C1527  C1982   1.417   1_545 S
C1528  H1576   1.082   .     S
C1528  N1583   1.368   .     A
C1528  C1753   1.418   .     S
C1529  O1596   1.421   .     S
C1529  C1530   1.526   .     S
C1529  H1562   1.119   .     S
C1529  H1551   1.109   .     S
C1530  H1577   1.109   .     S
C1530  H1573   1.111   .     S
C1531  H1578   1.111   .     S
C1531  H1579   1.108   .     S
C1531  H1580   1.110   .     S
C1531  C162    1.528   1_556 S
C1532  O1589   1.297   .     A
C1532  O1590   1.295   .     A
C1533  O1586   1.421   .     S
C1533  H1581   1.111   .     S
C1533  C1534   1.531   .     S
C1533  H1582   1.115   .     S
C1534  C1535   1.521   .     S
C1534  H1400   1.107   1_655 S
C1534  H1401   1.111   1_655 S
C1535  H1555   1.111   .     S
C1535  H1782   1.111   .     S
C1535  H1404   1.103   1_655 S
C1536  H1557   1.108   .     S
C1536  O1587   1.419   .     S
C1536  C1537   1.534   .     S
C1536  H1558   1.113   .     S
C1537  C1538   1.524   .     S
C1537  H1407   1.108   1_655 S
C1537  H1408   1.111   1_655 S
C1538  H1561   1.111   .     S
C1538  H1411   1.104   1_655 S
C1538  H2020   1.111   1_545 S
C1539  C1540   1.530   .     S
C1539  H1565   1.117   .     S
C1539  H1566   1.112   .     S
C1539  O1588   1.414   .     S
C1540  H1568   1.109   .     S
C1540  H1567   1.106   .     S
C1540  C1541   1.526   .     S
C1541  H1569   1.110   .     S
C1541  H1571   1.111   .     S
C1541  H202    1.108   1_556 S
C1542  O1592   1.289   .     A
C1542  O1595   1.289   .     A
C1542  C1544   1.408   .     S
C1543  O1593   1.289   .     A
C1543  C1545   1.408   .     S
C1543  O1594   1.288   .     A
C1545  C176    1.190   1_556 S
C1546  O1596   1.387   .     S
C1547  O1586   1.386   .     S
C1547  C1370   1.390   1_655 S
C1548  O1587   1.383   .     S
C1548  C1394   1.389   1_655 S
Cu1549 N1583   2.016   .     S
Cu1549 O1592   1.933   .     S
Cu1549 O1585   1.979   .     S
Cu1549 Cu1550  2.682   .     S
Cu1549 O1590   1.977   .     S
Cu1549 O1594   1.933   .     S
Cu1550 O1591   1.977   .     S
Cu1550 O1595   1.933   .     S
Cu1550 N1584   2.016   .     S
Cu1550 O1589   1.979   .     S
Cu1550 O1593   1.933   .     S
H1554  C1991   1.111   1_545 S
H1564  C1766   1.111   .     S
C1597  O1667   1.295   .     A
C1597  C1600   1.454   .     S
C1597  O1661   1.289   .     A
C1598  C1600   1.408   .     A
C1598  O1664   1.384   .     S
C1598  C1775   1.390   1_455 S
C1599  C1608   1.469   .     S
C1599  C1623   1.420   .     A
C1599  C1624   1.418   .     A
C1600  C1622   1.406   .     A
C1601  H1648   1.081   .     S
C1601  N1660   1.367   .     A
C1602  N1659   1.367   .     A
C1602  H1650   1.082   .     S
C1602  C1831   1.417   .     S
C1603  H1651   1.081   .     S
C1603  N1660   1.367   .     A
C1604  H1652   1.082   .     S
C1604  N1659   1.368   .     A
C1604  C1829   1.418   .     S
C1605  O1672   1.421   .     S
C1605  C1606   1.526   .     S
C1605  H1638   1.119   .     S
C1605  H1627   1.109   .     S
C1606  H1653   1.109   .     S
C1606  H1649   1.111   .     S
C1607  H1654   1.111   .     S
C1607  H1655   1.108   .     S
C1607  H1656   1.110   .     S
C1607  C238    1.528   1_556 S
C1608  O1665   1.297   .     A
C1608  O1666   1.295   .     A
C1609  O1662   1.421   .     S
C1609  H1657   1.111   .     S
C1609  C1610   1.531   .     S
C1609  H1658   1.115   .     S
C1610  C1611   1.521   .     S
C1610  H1704   1.107   .     S
C1610  H1705   1.111   .     S
C1611  H1631   1.111   .     S
C1611  H1858   1.111   .     S
C1611  H1708   1.103   .     S
C1612  H1633   1.108   .     S
C1612  O1663   1.419   .     S
C1612  C1613   1.534   .     S
C1612  H1634   1.113   .     S
C1613  C1614   1.524   .     S
C1613  H1711   1.108   .     S
C1613  H1712   1.111   .     S
C1614  H1637   1.111   .     S
C1614  H1715   1.104   .     S
C1615  C1616   1.530   .     S
C1615  H1641   1.117   .     S
C1615  H1642   1.112   .     S
C1615  O1664   1.414   .     S
C1616  H1644   1.109   .     S
C1616  H1643   1.106   .     S
C1616  C1617   1.526   .     S
C1617  H1645   1.110   .     S
C1617  H1647   1.111   .     S
C1617  H278    1.108   1_556 S
C1618  O1668   1.289   .     A
C1618  O1671   1.289   .     A
C1618  C1620   1.408   .     S
C1619  O1669   1.289   .     A
C1619  C1621   1.408   .     S
C1619  O1670   1.288   .     A
C1621  C252    1.190   1_556 S
C1622  O1672   1.387   .     S
C1622  C1776   1.389   1_455 S
C1623  O1662   1.386   .     S
C1623  C1674   1.390   .     S
C1624  O1663   1.383   .     S
C1624  C1698   1.389   .     S
Cu1625 N1659   2.016   .     S
Cu1625 O1668   1.933   .     S
Cu1625 O1661   1.979   .     S
Cu1625 Cu1626  2.682   .     S
Cu1625 O1666   1.977   .     S
Cu1625 O1670   1.933   .     S
Cu1626 O1667   1.977   .     S
Cu1626 O1671   1.933   .     S
Cu1626 N1660   2.016   .     S
Cu1626 O1665   1.979   .     S
Cu1626 O1669   1.933   .     S
H1628  C1762   1.107   1_455 S
H1629  C1762   1.111   1_455 S
H1632  C1763   1.103   1_455 S
H1635  C1765   1.108   1_455 S
H1636  C1765   1.111   1_455 S
H1639  C1766   1.104   1_455 S
H1640  C1842   1.111   .     S
C1673  O1743   1.295   .     A
C1673  C1676   1.454   .     S
C1673  O1737   1.289   .     A
C1674  C1676   1.408   .     A
C1674  O1740   1.384   .     S
C1675  C1684   1.469   .     S
C1675  C1699   1.420   .     A
C1675  C1700   1.418   .     A
C1676  C1698   1.406   .     A
C1677  H1724   1.081   .     S
C1677  N1736   1.367   .     A
C1678  N1735   1.367   .     A
C1678  H1726   1.082   .     S
C1678  C1907   1.417   .     S
C1679  H1727   1.081   .     S
C1679  N1736   1.367   .     A
C1680  H1728   1.082   .     S
C1680  N1735   1.368   .     A
C1680  C1905   1.418   .     S
C1681  O1748   1.421   .     S
C1681  C1682   1.526   .     S
C1681  H1714   1.119   .     S
C1681  H1703   1.109   .     S
C1682  H1729   1.109   .     S
C1682  H1725   1.111   .     S
C1683  H1730   1.111   .     S
C1683  H1731   1.108   .     S
C1683  H1732   1.110   .     S
C1683  C314    1.528   1_556 S
C1684  O1741   1.297   .     A
C1684  O1742   1.295   .     A
C1685  O1738   1.421   .     S
C1685  H1733   1.111   .     S
C1685  C1686   1.531   .     S
C1685  H1734   1.115   .     S
C1686  C1687   1.521   .     S
C1686  H1780   1.107   .     S
C1686  H1781   1.111   .     S
C1687  H1707   1.111   .     S
C1687  H1934   1.111   .     S
C1687  H1784   1.103   .     S
C1688  H1709   1.108   .     S
C1688  O1739   1.419   .     S
C1688  C1689   1.534   .     S
C1688  H1710   1.113   .     S
C1689  C1690   1.524   .     S
C1689  H1787   1.108   .     S
C1689  H1788   1.111   .     S
C1690  H1713   1.111   .     S
C1690  H1791   1.104   .     S
C1691  C1692   1.530   .     S
C1691  H1717   1.117   .     S
C1691  H1718   1.112   .     S
C1691  O1740   1.414   .     S
C1692  H1720   1.109   .     S
C1692  H1719   1.106   .     S
C1692  C1693   1.526   .     S
C1693  H1721   1.110   .     S
C1693  H1723   1.111   .     S
C1693  H354    1.108   1_556 S
C1694  O1744   1.289   .     A
C1694  O1747   1.289   .     A
C1694  C1696   1.408   .     S
C1695  O1745   1.289   .     A
C1695  C1697   1.408   .     S
C1695  O1746   1.288   .     A
C1697  C328    1.190   1_556 S
C1698  O1748   1.387   .     S
C1699  O1738   1.386   .     S
C1699  C1750   1.390   .     S
C1700  O1739   1.383   .     S
C1700  C1774   1.389   .     S
Cu1701 N1735   2.016   .     S
Cu1701 O1744   1.933   .     S
Cu1701 O1737   1.979   .     S
Cu1701 Cu1702  2.682   .     S
Cu1701 O1742   1.977   .     S
Cu1701 O1746   1.933   .     S
Cu1702 O1743   1.977   .     S
Cu1702 O1747   1.933   .     S
Cu1702 N1736   2.016   .     S
Cu1702 O1741   1.979   .     S
Cu1702 O1745   1.933   .     S
H1716  C1918   1.111   .     S
C1749  O1819   1.295   .     A
C1749  C1752   1.454   .     S
C1749  O1813   1.289   .     A
C1750  C1752   1.408   .     A
C1750  O1816   1.384   .     S
C1751  C1760   1.469   .     S
C1751  C1775   1.420   .     A
C1751  C1776   1.418   .     A
C1752  C1774   1.406   .     A
C1753  H1800   1.081   .     S
C1753  N1812   1.367   .     A
C1754  N1811   1.367   .     A
C1754  H1802   1.082   .     S
C1754  C1983   1.417   .     S
C1755  H1803   1.081   .     S
C1755  N1812   1.367   .     A
C1756  H1804   1.082   .     S
C1756  N1811   1.368   .     A
C1756  C1981   1.418   .     S
C1757  O1824   1.421   .     S
C1757  C1758   1.526   .     S
C1757  H1790   1.119   .     S
C1757  H1779   1.109   .     S
C1758  H1805   1.109   .     S
C1758  H1801   1.111   .     S
C1759  H1806   1.111   .     S
C1759  H1807   1.108   .     S
C1759  H1808   1.110   .     S
C1759  C390    1.528   1_556 S
C1760  O1817   1.297   .     A
C1760  O1818   1.295   .     A
C1761  O1814   1.421   .     S
C1761  H1809   1.111   .     S
C1761  C1762   1.531   .     S
C1761  H1810   1.115   .     S
C1762  C1763   1.521   .     S
C1762  H1628   1.107   1_655 S
C1762  H1629   1.111   1_655 S
C1763  H1783   1.111   .     S
C1763  H2010   1.111   .     S
C1763  H1632   1.103   1_655 S
C1764  H1785   1.108   .     S
C1764  O1815   1.419   .     S
C1764  C1765   1.534   .     S
C1764  H1786   1.113   .     S
C1765  C1766   1.524   .     S
C1765  H1635   1.108   1_655 S
C1765  H1636   1.111   1_655 S
C1766  H1789   1.111   .     S
C1766  H1639   1.104   1_655 S
C1767  C1768   1.530   .     S
C1767  H1793   1.117   .     S
C1767  H1794   1.112   .     S
C1767  O1816   1.414   .     S
C1768  H1796   1.109   .     S
C1768  H1795   1.106   .     S
C1768  C1769   1.526   .     S
C1769  H1797   1.110   .     S
C1769  H1799   1.111   .     S
C1769  H430    1.108   1_556 S
C1770  O1820   1.289   .     A
C1770  O1823   1.289   .     A
C1770  C1772   1.408   .     S
C1771  O1821   1.289   .     A
C1771  C1773   1.408   .     S
C1771  O1822   1.288   .     A
C1773  C404    1.190   1_556 S
C1774  O1824   1.387   .     S
C1775  O1814   1.386   .     S
C1775  C1598   1.390   1_655 S
C1776  O1815   1.383   .     S
C1776  C1622   1.389   1_655 S
Cu1777 N1811   2.016   .     S
Cu1777 O1820   1.933   .     S
Cu1777 O1813   1.979   .     S
Cu1777 Cu1778  2.682   .     S
Cu1777 O1818   1.977   .     S
Cu1777 O1822   1.933   .     S
Cu1778 O1819   1.977   .     S
Cu1778 O1823   1.933   .     S
Cu1778 N1812   2.016   .     S
Cu1778 O1817   1.979   .     S
Cu1778 O1821   1.933   .     S
H1792  C1994   1.111   .     S
C1825  O1895   1.295   .     A
C1825  C1828   1.454   .     S
C1825  O1889   1.289   .     A
C1826  C1828   1.408   .     A
C1826  O1892   1.384   .     S
C1826  C2003   1.390   1_455 S
C1827  C1836   1.469   .     S
C1827  C1851   1.420   .     A
C1827  C1852   1.418   .     A
C1828  C1850   1.406   .     A
C1829  H1876   1.081   .     S
C1829  N1888   1.367   .     A
C1830  N1887   1.367   .     A
C1830  H1878   1.082   .     S
C1830  C1375   1.417   1_565 S
C1831  H1879   1.081   .     S
C1831  N1888   1.367   .     A
C1832  H1880   1.082   .     S
C1832  N1887   1.368   .     A
C1832  C1373   1.418   1_565 S
C1833  O1900   1.421   .     S
C1833  C1834   1.526   .     S
C1833  H1866   1.119   .     S
C1833  H1855   1.109   .     S
C1834  H1881   1.109   .     S
C1834  H1877   1.111   .     S
C1835  H1882   1.111   .     S
C1835  H1883   1.108   .     S
C1835  H1884   1.110   .     S
C1835  C466    1.528   1_556 S
C1836  O1893   1.297   .     A
C1836  O1894   1.295   .     A
C1837  O1890   1.421   .     S
C1837  H1885   1.111   .     S
C1837  C1838   1.531   .     S
C1837  H1886   1.115   .     S
C1838  C1839   1.521   .     S
C1838  H1932   1.107   .     S
C1838  H1933   1.111   .     S
C1839  H1859   1.111   .     S
C1839  H1402   1.111   1_565 S
C1839  H1936   1.103   .     S
C1840  H1861   1.108   .     S
C1840  O1891   1.419   .     S
C1840  C1841   1.534   .     S
C1840  H1862   1.113   .     S
C1841  C1842   1.524   .     S
C1841  H1939   1.108   .     S
C1841  H1940   1.111   .     S
C1842  H1865   1.111   .     S
C1842  H1943   1.104   .     S
C1843  C1844   1.530   .     S
C1843  H1869   1.117   .     S
C1843  H1870   1.112   .     S
C1843  O1892   1.414   .     S
C1844  H1872   1.109   .     S
C1844  H1871   1.106   .     S
C1844  C1845   1.526   .     S
C1845  H1873   1.110   .     S
C1845  H1875   1.111   .     S
C1845  H506    1.108   1_556 S
C1846  O1896   1.289   .     A
C1846  O1899   1.289   .     A
C1846  C1848   1.408   .     S
C1847  O1897   1.289   .     A
C1847  C1849   1.408   .     S
C1847  O1898   1.288   .     A
C1849  C480    1.190   1_556 S
C1850  O1900   1.387   .     S
C1850  C2004   1.389   1_455 S
C1851  O1890   1.386   .     S
C1851  C1902   1.390   .     S
C1852  O1891   1.383   .     S
C1852  C1926   1.389   .     S
Cu1853 N1887   2.016   .     S
Cu1853 O1896   1.933   .     S
Cu1853 O1889   1.979   .     S
Cu1853 Cu1854  2.682   .     S
Cu1853 O1894   1.977   .     S
Cu1853 O1898   1.933   .     S
Cu1854 O1895   1.977   .     S
Cu1854 O1899   1.933   .     S
Cu1854 N1888   2.016   .     S
Cu1854 O1893   1.979   .     S
Cu1854 O1897   1.933   .     S
H1856  C1990   1.107   1_455 S
H1857  C1990   1.111   1_455 S
H1860  C1991   1.103   1_455 S
H1863  C1993   1.108   1_455 S
H1864  C1993   1.111   1_455 S
H1867  C1994   1.104   1_455 S
H1868  C1386   1.111   1_565 S
C1901  O1971   1.295   .     A
C1901  C1904   1.454   .     S
C1901  O1965   1.289   .     A
C1902  C1904   1.408   .     A
C1902  O1968   1.384   .     S
C1903  C1912   1.469   .     S
C1903  C1927   1.420   .     A
C1903  C1928   1.418   .     A
C1904  C1926   1.406   .     A
C1905  H1952   1.081   .     S
C1905  N1964   1.367   .     A
C1906  N1963   1.367   .     A
C1906  H1954   1.082   .     S
C1906  C1451   1.417   1_565 S
C1907  H1955   1.081   .     S
C1907  N1964   1.367   .     A
C1908  H1956   1.082   .     S
C1908  N1963   1.368   .     A
C1908  C1449   1.418   1_565 S
C1909  O1976   1.421   .     S
C1909  C1910   1.526   .     S
C1909  H1942   1.119   .     S
C1909  H1931   1.109   .     S
C1910  H1957   1.109   .     S
C1910  H1953   1.111   .     S
C1911  H1958   1.111   .     S
C1911  H1959   1.108   .     S
C1911  H1960   1.110   .     S
C1911  C542    1.528   1_556 S
C1912  O1969   1.297   .     A
C1912  O1970   1.295   .     A
C1913  O1966   1.421   .     S
C1913  H1961   1.111   .     S
C1913  C1914   1.531   .     S
C1913  H1962   1.115   .     S
C1914  C1915   1.521   .     S
C1914  H2008   1.107   .     S
C1914  H2009   1.111   .     S
C1915  H1935   1.111   .     S
C1915  H1478   1.111   1_565 S
C1915  H2012   1.103   .     S
C1916  H1937   1.108   .     S
C1916  O1967   1.419   .     S
C1916  C1917   1.534   .     S
C1916  H1938   1.113   .     S
C1917  C1918   1.524   .     S
C1917  H2015   1.108   .     S
C1917  H2016   1.111   .     S
C1918  H1941   1.111   .     S
C1918  H2019   1.104   .     S
C1919  C1920   1.530   .     S
C1919  H1945   1.117   .     S
C1919  H1946   1.112   .     S
C1919  O1968   1.414   .     S
C1920  H1948   1.109   .     S
C1920  H1947   1.106   .     S
C1920  C1921   1.526   .     S
C1921  H1949   1.110   .     S
C1921  H1951   1.111   .     S
C1921  H582    1.108   1_556 S
C1922  O1972   1.289   .     A
C1922  O1975   1.289   .     A
C1922  C1924   1.408   .     S
C1923  O1973   1.289   .     A
C1923  C1925   1.408   .     S
C1923  O1974   1.288   .     A
C1925  C556    1.190   1_556 S
C1926  O1976   1.387   .     S
C1927  O1966   1.386   .     S
C1927  C1978   1.390   .     S
C1928  O1967   1.383   .     S
C1928  C2002   1.389   .     S
Cu1929 N1963   2.016   .     S
Cu1929 O1972   1.933   .     S
Cu1929 O1965   1.979   .     S
Cu1929 Cu1930  2.682   .     S
Cu1929 O1970   1.977   .     S
Cu1929 O1974   1.933   .     S
Cu1930 O1971   1.977   .     S
Cu1930 O1975   1.933   .     S
Cu1930 N1964   2.016   .     S
Cu1930 O1969   1.979   .     S
Cu1930 O1973   1.933   .     S
H1944  C1462   1.111   1_565 S
C1977  O2047   1.295   .     A
C1977  C1980   1.454   .     S
C1977  O2041   1.289   .     A
C1978  C1980   1.408   .     A
C1978  O2044   1.384   .     S
C1979  C1988   1.469   .     S
C1979  C2003   1.420   .     A
C1979  C2004   1.418   .     A
C1980  C2002   1.406   .     A
C1981  H2028   1.081   .     S
C1981  N2040   1.367   .     A
C1982  N2039   1.367   .     A
C1982  H2030   1.082   .     S
C1982  C1527   1.417   1_565 S
C1983  H2031   1.081   .     S
C1983  N2040   1.367   .     A
C1984  H2032   1.082   .     S
C1984  N2039   1.368   .     A
C1984  C1525   1.418   1_565 S
C1985  O2052   1.421   .     S
C1985  C1986   1.526   .     S
C1985  H2018   1.119   .     S
C1985  H2007   1.109   .     S
C1986  H2033   1.109   .     S
C1986  H2029   1.111   .     S
C1987  H2034   1.111   .     S
C1987  H2035   1.108   .     S
C1987  H2036   1.110   .     S
C1987  C618    1.528   1_556 S
C1988  O2045   1.297   .     A
C1988  O2046   1.295   .     A
C1989  O2042   1.421   .     S
C1989  H2037   1.111   .     S
C1989  C1990   1.531   .     S
C1989  H2038   1.115   .     S
C1990  C1991   1.521   .     S
C1990  H1856   1.107   1_655 S
C1990  H1857   1.111   1_655 S
C1991  H2011   1.111   .     S
C1991  H1554   1.111   1_565 S
C1991  H1860   1.103   1_655 S
C1992  H2013   1.108   .     S
C1992  O2043   1.419   .     S
C1992  C1993   1.534   .     S
C1992  H2014   1.113   .     S
C1993  C1994   1.524   .     S
C1993  H1863   1.108   1_655 S
C1993  H1864   1.111   1_655 S
C1994  H2017   1.111   .     S
C1994  H1867   1.104   1_655 S
C1995  C1996   1.530   .     S
C1995  H2021   1.117   .     S
C1995  H2022   1.112   .     S
C1995  O2044   1.414   .     S
C1996  H2024   1.109   .     S
C1996  H2023   1.106   .     S
C1996  C1997   1.526   .     S
C1997  H2025   1.110   .     S
C1997  H2027   1.111   .     S
C1997  H658    1.108   1_556 S
C1998  O2048   1.289   .     A
C1998  O2051   1.289   .     A
C1998  C2000   1.408   .     S
C1999  O2049   1.289   .     A
C1999  C2001   1.408   .     S
C1999  O2050   1.288   .     A
C2001  C632    1.190   1_556 S
C2002  O2052   1.387   .     S
C2003  O2042   1.386   .     S
C2003  C1826   1.390   1_655 S
C2004  O2043   1.383   .     S
C2004  C1850   1.389   1_655 S
Cu2005 N2039   2.016   .     S
Cu2005 O2048   1.933   .     S
Cu2005 O2041   1.979   .     S
Cu2005 Cu2006  2.682   .     S
Cu2005 O2046   1.977   .     S
Cu2005 O2050   1.933   .     S
Cu2006 O2047   1.977   .     S
Cu2006 O2051   1.933   .     S
Cu2006 N2040   2.016   .     S
Cu2006 O2045   1.979   .     S
Cu2006 O2049   1.933   .     S
H2020  C1538   1.111   1_565 S
