data_str_m2_o10_o17_pcu_sym.218
_audit_creation_date              2020-01-03
_audit_creation_method            'Materials Studio'
_symmetry_space_group_name_H-M    'P1'
_symmetry_Int_Tables_number       1
_symmetry_cell_setting            triclinic
loop_
_symmetry_equiv_pos_as_xyz
  x,y,z
_cell_length_a                    29.8656
_cell_length_b                    26.0332
_cell_length_c                    22.5437
_cell_angle_alpha                 103.4599
_cell_angle_beta                  93.6188
_cell_angle_gamma                 92.5792
loop_
_atom_site_label
_atom_site_type_symbol
_atom_site_fract_x
_atom_site_fract_y
_atom_site_fract_z
_atom_site_U_iso_or_equiv
_atom_site_adp_type
_atom_site_occupancy
O1     O     0.25325   0.09538   0.20659   0.00000  Uiso   1.00
O2     O     0.24674   0.23796   0.12674   0.00000  Uiso   1.00
O3     O     0.24480   0.08559   0.10279   0.00000  Uiso   1.00
O4     O     0.25520   0.24774   0.23055   0.00000  Uiso   1.00
C5     C     0.24864   0.06661   0.15100   0.00000  Uiso   1.00
C6     C     0.25136   0.26672   0.18233   0.00000  Uiso   1.00
O7     O     0.18935   0.17155   0.21857   0.00000  Uiso   1.00
O8     O     0.31064   0.16179   0.11476   0.00000  Uiso   1.00
O9     O     0.18090   0.16176   0.11477   0.00000  Uiso   1.00
O10    O     0.31910   0.17157   0.21857   0.00000  Uiso   1.00
C11    C     0.16467   0.16651   0.16771   0.00000  Uiso   1.00
C12    C     0.33533   0.16682   0.16562   0.00000  Uiso   1.00
Cu13   Cu    0.25500   0.17246   0.22813   0.00000  Uiso   1.00
Cu14   Cu    0.24499   0.16087   0.10521   0.00000  Uiso   1.00
C15    C     0.40930   0.21386   0.19030   0.00000  Uiso   1.00
C16    C     0.09070   0.11947   0.14303   0.00000  Uiso   1.00
C17    C     0.38340   0.16745   0.16329   0.00000  Uiso   1.00
C18    C     0.11660   0.16588   0.17005   0.00000  Uiso   1.00
C19    C     0.40323   0.12131   0.13607   0.00000  Uiso   1.00
C20    C     0.09677   0.21203   0.19726   0.00000  Uiso   1.00
C21    C     0.44986   0.12052   0.13805   0.00000  Uiso   1.00
C22    C     0.05014   0.21282   0.19528   0.00000  Uiso   1.00
C23    C     0.47653   0.16728   0.16525   0.00000  Uiso   1.00
C24    C     0.02347   0.16605   0.16808   0.00000  Uiso   1.00
C25    C     0.45616   0.21515   0.18966   0.00000  Uiso   1.00
C26    C     0.04384   0.11818   0.14367   0.00000  Uiso   1.00
C27    C     0.46998   0.07322   0.11491   0.00000  Uiso   1.00
C28    C     0.03002   0.26011   0.21842   0.00000  Uiso   1.00
C29    C     0.01676   0.07102   0.11889   0.00000  Uiso   1.00
C30    C     0.48324   0.26231   0.21444   0.00000  Uiso   1.00
H31    H     0.39238   0.24828   0.21239   0.00000  Uiso   1.00
H32    H     0.10762   0.08506   0.12094   0.00000  Uiso   1.00
H33    H     0.38230   0.08562   0.11570   0.00000  Uiso   1.00
H34    H     0.11770   0.24772   0.21763   0.00000  Uiso   1.00
H35    H     0.44909   0.03733   0.09561   0.00000  Uiso   1.00
H36    H     0.05091   0.29600   0.23772   0.00000  Uiso   1.00
C37    C     0.24800   0.01045   0.14241   0.00000  Uiso   1.00
C38    C     0.25199   0.32288   0.19092   0.00000  Uiso   1.00
H39    H     0.24426   0.31957   0.09585   0.00000  Uiso   1.00
H40    H     0.25574   0.01376   0.23749   0.00000  Uiso   1.00
N41    N     0.23744   0.15214   0.01284   0.00000  Uiso   1.00
N42    N     0.26255   0.18119   0.32049   0.00000  Uiso   1.00
N43    N     0.03580   0.02044   0.10025   0.00000  Uiso   1.00
O44    O     0.01594   0.31754   0.05542   0.00000  Uiso   1.00
O45    O     0.06725   0.00683   0.13515   0.00000  Uiso   1.00
N46    N     0.46420   0.31289   0.23309   0.00000  Uiso   1.00
O47    O     0.48406   0.01579   0.27791   0.00000  Uiso   1.00
O48    O     0.43275   0.32650   0.19818   0.00000  Uiso   1.00
N49    N     0.19393   0.14096   0.31973   0.00000  Uiso   1.00
O50    O     0.18020   0.09205   0.29523   0.00000  Uiso   1.00
O51    O     0.16435   0.17637   0.33258   0.00000  Uiso   1.00
N52    N     0.30607   0.19238   0.01360   0.00000  Uiso   1.00
O53    O     0.31981   0.24128   0.03808   0.00000  Uiso   1.00
O54    O     0.33564   0.15696   0.00076   0.00000  Uiso   1.00
O55    O     0.75325   0.09538   0.20659   0.00000  Uiso   1.00
O56    O     0.74674   0.23796   0.12674   0.00000  Uiso   1.00
O57    O     0.74480   0.08559   0.10279   0.00000  Uiso   1.00
O58    O     0.75520   0.24774   0.23055   0.00000  Uiso   1.00
C59    C     0.74864   0.06661   0.15100   0.00000  Uiso   1.00
C60    C     0.75136   0.26672   0.18233   0.00000  Uiso   1.00
O61    O     0.68935   0.17155   0.21857   0.00000  Uiso   1.00
O62    O     0.81064   0.16179   0.11476   0.00000  Uiso   1.00
O63    O     0.68090   0.16176   0.11477   0.00000  Uiso   1.00
O64    O     0.81910   0.17157   0.21857   0.00000  Uiso   1.00
C65    C     0.66467   0.16651   0.16771   0.00000  Uiso   1.00
C66    C     0.83533   0.16682   0.16562   0.00000  Uiso   1.00
Cu67   Cu    0.75500   0.17246   0.22813   0.00000  Uiso   1.00
Cu68   Cu    0.74499   0.16087   0.10521   0.00000  Uiso   1.00
C69    C     0.90930   0.21386   0.19030   0.00000  Uiso   1.00
C70    C     0.59070   0.11947   0.14303   0.00000  Uiso   1.00
C71    C     0.88340   0.16745   0.16329   0.00000  Uiso   1.00
C72    C     0.61660   0.16588   0.17005   0.00000  Uiso   1.00
C73    C     0.90323   0.12131   0.13607   0.00000  Uiso   1.00
C74    C     0.59677   0.21203   0.19726   0.00000  Uiso   1.00
C75    C     0.94986   0.12052   0.13805   0.00000  Uiso   1.00
C76    C     0.55014   0.21282   0.19528   0.00000  Uiso   1.00
C77    C     0.97653   0.16728   0.16525   0.00000  Uiso   1.00
C78    C     0.52347   0.16605   0.16808   0.00000  Uiso   1.00
C79    C     0.95616   0.21515   0.18966   0.00000  Uiso   1.00
C80    C     0.54384   0.11818   0.14367   0.00000  Uiso   1.00
C81    C     0.96998   0.07322   0.11491   0.00000  Uiso   1.00
C82    C     0.53002   0.26011   0.21842   0.00000  Uiso   1.00
C83    C     0.51676   0.07102   0.11889   0.00000  Uiso   1.00
C84    C     0.98324   0.26231   0.21444   0.00000  Uiso   1.00
H85    H     0.89238   0.24828   0.21239   0.00000  Uiso   1.00
H86    H     0.60762   0.08506   0.12094   0.00000  Uiso   1.00
H87    H     0.88230   0.08562   0.11570   0.00000  Uiso   1.00
H88    H     0.61770   0.24772   0.21763   0.00000  Uiso   1.00
H89    H     0.94909   0.03733   0.09561   0.00000  Uiso   1.00
H90    H     0.55091   0.29600   0.23772   0.00000  Uiso   1.00
C91    C     0.74800   0.01045   0.14241   0.00000  Uiso   1.00
C92    C     0.75199   0.32288   0.19092   0.00000  Uiso   1.00
H93    H     0.74426   0.31957   0.09585   0.00000  Uiso   1.00
H94    H     0.75574   0.01376   0.23749   0.00000  Uiso   1.00
N95    N     0.73744   0.15214   0.01284   0.00000  Uiso   1.00
N96    N     0.76255   0.18119   0.32049   0.00000  Uiso   1.00
N97    N     0.53580   0.02044   0.10025   0.00000  Uiso   1.00
O98    O     0.51594   0.31754   0.05542   0.00000  Uiso   1.00
O99    O     0.56725   0.00683   0.13515   0.00000  Uiso   1.00
N100   N     0.96420   0.31289   0.23309   0.00000  Uiso   1.00
O101   O     0.98406   0.01579   0.27791   0.00000  Uiso   1.00
O102   O     0.93275   0.32650   0.19818   0.00000  Uiso   1.00
N103   N     0.69393   0.14096   0.31973   0.00000  Uiso   1.00
O104   O     0.68020   0.09205   0.29523   0.00000  Uiso   1.00
O105   O     0.66435   0.17637   0.33258   0.00000  Uiso   1.00
N106   N     0.80607   0.19238   0.01360   0.00000  Uiso   1.00
O107   O     0.81981   0.24128   0.03808   0.00000  Uiso   1.00
O108   O     0.83564   0.15696   0.00076   0.00000  Uiso   1.00
O109   O     0.25325   0.42871   0.20659   0.00000  Uiso   1.00
O110   O     0.24674   0.57129   0.12674   0.00000  Uiso   1.00
O111   O     0.24480   0.41892   0.10279   0.00000  Uiso   1.00
O112   O     0.25520   0.58108   0.23055   0.00000  Uiso   1.00
C113   C     0.24864   0.39995   0.15100   0.00000  Uiso   1.00
C114   C     0.25136   0.60005   0.18233   0.00000  Uiso   1.00
O115   O     0.18935   0.50488   0.21857   0.00000  Uiso   1.00
O116   O     0.31064   0.49512   0.11476   0.00000  Uiso   1.00
O117   O     0.18090   0.49510   0.11477   0.00000  Uiso   1.00
O118   O     0.31910   0.50490   0.21857   0.00000  Uiso   1.00
C119   C     0.16467   0.49984   0.16771   0.00000  Uiso   1.00
C120   C     0.33533   0.50016   0.16562   0.00000  Uiso   1.00
Cu121  Cu    0.25500   0.50579   0.22813   0.00000  Uiso   1.00
Cu122  Cu    0.24499   0.49421   0.10521   0.00000  Uiso   1.00
C123   C     0.40930   0.54720   0.19030   0.00000  Uiso   1.00
C124   C     0.09070   0.45280   0.14303   0.00000  Uiso   1.00
C125   C     0.38340   0.50079   0.16329   0.00000  Uiso   1.00
C126   C     0.11660   0.49921   0.17005   0.00000  Uiso   1.00
C127   C     0.40323   0.45464   0.13607   0.00000  Uiso   1.00
C128   C     0.09677   0.54536   0.19726   0.00000  Uiso   1.00
C129   C     0.44986   0.45385   0.13805   0.00000  Uiso   1.00
C130   C     0.05014   0.54615   0.19528   0.00000  Uiso   1.00
C131   C     0.47653   0.50062   0.16525   0.00000  Uiso   1.00
C132   C     0.02347   0.49938   0.16808   0.00000  Uiso   1.00
C133   C     0.45616   0.54849   0.18966   0.00000  Uiso   1.00
C134   C     0.04384   0.45151   0.14367   0.00000  Uiso   1.00
C135   C     0.46998   0.40656   0.11491   0.00000  Uiso   1.00
C136   C     0.03002   0.59344   0.21842   0.00000  Uiso   1.00
C137   C     0.01676   0.40435   0.11889   0.00000  Uiso   1.00
C138   C     0.48324   0.59565   0.21444   0.00000  Uiso   1.00
H139   H     0.39238   0.58161   0.21239   0.00000  Uiso   1.00
H140   H     0.10762   0.41839   0.12094   0.00000  Uiso   1.00
H141   H     0.38230   0.41895   0.11570   0.00000  Uiso   1.00
H142   H     0.11770   0.58105   0.21763   0.00000  Uiso   1.00
H143   H     0.44909   0.37067   0.09561   0.00000  Uiso   1.00
H144   H     0.05091   0.62933   0.23772   0.00000  Uiso   1.00
C145   C     0.24800   0.34379   0.14241   0.00000  Uiso   1.00
C146   C     0.25199   0.65621   0.19092   0.00000  Uiso   1.00
H147   H     0.24426   0.65290   0.09585   0.00000  Uiso   1.00
H148   H     0.25574   0.34710   0.23749   0.00000  Uiso   1.00
N149   N     0.23744   0.48547   0.01284   0.00000  Uiso   1.00
N150   N     0.26255   0.51453   0.32049   0.00000  Uiso   1.00
N151   N     0.03580   0.35378   0.10025   0.00000  Uiso   1.00
O152   O     0.01594   0.65087   0.05542   0.00000  Uiso   1.00
O153   O     0.06725   0.34017   0.13515   0.00000  Uiso   1.00
N154   N     0.46420   0.64622   0.23309   0.00000  Uiso   1.00
O155   O     0.48406   0.34913   0.27791   0.00000  Uiso   1.00
O156   O     0.43275   0.65983   0.19818   0.00000  Uiso   1.00
N157   N     0.19393   0.47429   0.31973   0.00000  Uiso   1.00
O158   O     0.18020   0.42538   0.29523   0.00000  Uiso   1.00
O159   O     0.16435   0.50970   0.33258   0.00000  Uiso   1.00
N160   N     0.30607   0.52571   0.01360   0.00000  Uiso   1.00
O161   O     0.31981   0.57462   0.03808   0.00000  Uiso   1.00
O162   O     0.33564   0.49030   0.00076   0.00000  Uiso   1.00
O163   O     0.75325   0.42871   0.20659   0.00000  Uiso   1.00
O164   O     0.74674   0.57129   0.12674   0.00000  Uiso   1.00
O165   O     0.74480   0.41892   0.10279   0.00000  Uiso   1.00
O166   O     0.75520   0.58108   0.23055   0.00000  Uiso   1.00
C167   C     0.74864   0.39995   0.15100   0.00000  Uiso   1.00
C168   C     0.75136   0.60005   0.18233   0.00000  Uiso   1.00
O169   O     0.68935   0.50488   0.21857   0.00000  Uiso   1.00
O170   O     0.81064   0.49512   0.11476   0.00000  Uiso   1.00
O171   O     0.68090   0.49510   0.11477   0.00000  Uiso   1.00
O172   O     0.81910   0.50490   0.21857   0.00000  Uiso   1.00
C173   C     0.66467   0.49984   0.16771   0.00000  Uiso   1.00
C174   C     0.83533   0.50016   0.16562   0.00000  Uiso   1.00
Cu175  Cu    0.75500   0.50579   0.22813   0.00000  Uiso   1.00
Cu176  Cu    0.74499   0.49421   0.10521   0.00000  Uiso   1.00
C177   C     0.90930   0.54720   0.19030   0.00000  Uiso   1.00
C178   C     0.59070   0.45280   0.14303   0.00000  Uiso   1.00
C179   C     0.88340   0.50079   0.16329   0.00000  Uiso   1.00
C180   C     0.61660   0.49921   0.17005   0.00000  Uiso   1.00
C181   C     0.90323   0.45464   0.13607   0.00000  Uiso   1.00
C182   C     0.59677   0.54536   0.19726   0.00000  Uiso   1.00
C183   C     0.94986   0.45385   0.13805   0.00000  Uiso   1.00
C184   C     0.55014   0.54615   0.19528   0.00000  Uiso   1.00
C185   C     0.97653   0.50062   0.16525   0.00000  Uiso   1.00
C186   C     0.52347   0.49938   0.16808   0.00000  Uiso   1.00
C187   C     0.95616   0.54849   0.18966   0.00000  Uiso   1.00
C188   C     0.54384   0.45151   0.14367   0.00000  Uiso   1.00
C189   C     0.96998   0.40656   0.11491   0.00000  Uiso   1.00
C190   C     0.53002   0.59344   0.21842   0.00000  Uiso   1.00
C191   C     0.51676   0.40435   0.11889   0.00000  Uiso   1.00
C192   C     0.98324   0.59565   0.21444   0.00000  Uiso   1.00
H193   H     0.89238   0.58161   0.21239   0.00000  Uiso   1.00
H194   H     0.60762   0.41839   0.12094   0.00000  Uiso   1.00
H195   H     0.88230   0.41895   0.11570   0.00000  Uiso   1.00
H196   H     0.61770   0.58105   0.21763   0.00000  Uiso   1.00
H197   H     0.94909   0.37067   0.09561   0.00000  Uiso   1.00
H198   H     0.55091   0.62933   0.23772   0.00000  Uiso   1.00
C199   C     0.74800   0.34379   0.14241   0.00000  Uiso   1.00
C200   C     0.75199   0.65621   0.19092   0.00000  Uiso   1.00
H201   H     0.74426   0.65290   0.09585   0.00000  Uiso   1.00
H202   H     0.75574   0.34710   0.23749   0.00000  Uiso   1.00
N203   N     0.73744   0.48547   0.01284   0.00000  Uiso   1.00
N204   N     0.76255   0.51453   0.32049   0.00000  Uiso   1.00
N205   N     0.53580   0.35378   0.10025   0.00000  Uiso   1.00
O206   O     0.51594   0.65087   0.05542   0.00000  Uiso   1.00
O207   O     0.56725   0.34017   0.13515   0.00000  Uiso   1.00
N208   N     0.96420   0.64622   0.23309   0.00000  Uiso   1.00
O209   O     0.98406   0.34913   0.27791   0.00000  Uiso   1.00
O210   O     0.93275   0.65983   0.19818   0.00000  Uiso   1.00
N211   N     0.69393   0.47429   0.31973   0.00000  Uiso   1.00
O212   O     0.68020   0.42538   0.29523   0.00000  Uiso   1.00
O213   O     0.66435   0.50970   0.33258   0.00000  Uiso   1.00
N214   N     0.80607   0.52571   0.01360   0.00000  Uiso   1.00
O215   O     0.81981   0.57462   0.03808   0.00000  Uiso   1.00
O216   O     0.83564   0.49030   0.00076   0.00000  Uiso   1.00
O217   O     0.25325   0.76204   0.20659   0.00000  Uiso   1.00
O218   O     0.24674   0.90462   0.12674   0.00000  Uiso   1.00
O219   O     0.24480   0.75226   0.10279   0.00000  Uiso   1.00
O220   O     0.25520   0.91441   0.23055   0.00000  Uiso   1.00
C221   C     0.24864   0.73328   0.15100   0.00000  Uiso   1.00
C222   C     0.25136   0.93339   0.18233   0.00000  Uiso   1.00
O223   O     0.18935   0.83821   0.21857   0.00000  Uiso   1.00
O224   O     0.31064   0.82845   0.11476   0.00000  Uiso   1.00
O225   O     0.18090   0.82843   0.11477   0.00000  Uiso   1.00
O226   O     0.31910   0.83824   0.21857   0.00000  Uiso   1.00
C227   C     0.16467   0.83318   0.16771   0.00000  Uiso   1.00
C228   C     0.33533   0.83349   0.16562   0.00000  Uiso   1.00
Cu229  Cu    0.25500   0.83913   0.22813   0.00000  Uiso   1.00
Cu230  Cu    0.24499   0.82754   0.10521   0.00000  Uiso   1.00
C231   C     0.40930   0.88053   0.19030   0.00000  Uiso   1.00
C232   C     0.09070   0.78614   0.14303   0.00000  Uiso   1.00
C233   C     0.38340   0.83412   0.16329   0.00000  Uiso   1.00
C234   C     0.11660   0.83255   0.17005   0.00000  Uiso   1.00
C235   C     0.40323   0.78797   0.13607   0.00000  Uiso   1.00
C236   C     0.09677   0.87869   0.19726   0.00000  Uiso   1.00
C237   C     0.44986   0.78718   0.13805   0.00000  Uiso   1.00
C238   C     0.05014   0.87948   0.19528   0.00000  Uiso   1.00
C239   C     0.47653   0.83395   0.16525   0.00000  Uiso   1.00
C240   C     0.02347   0.83272   0.16808   0.00000  Uiso   1.00
C241   C     0.45616   0.88182   0.18966   0.00000  Uiso   1.00
C242   C     0.04384   0.78485   0.14367   0.00000  Uiso   1.00
C243   C     0.46998   0.73989   0.11491   0.00000  Uiso   1.00
C244   C     0.03002   0.92678   0.21842   0.00000  Uiso   1.00
C245   C     0.01676   0.73769   0.11889   0.00000  Uiso   1.00
C246   C     0.48324   0.92898   0.21444   0.00000  Uiso   1.00
H247   H     0.39238   0.91494   0.21239   0.00000  Uiso   1.00
H248   H     0.10762   0.75172   0.12094   0.00000  Uiso   1.00
H249   H     0.38230   0.75228   0.11570   0.00000  Uiso   1.00
H250   H     0.11770   0.91438   0.21763   0.00000  Uiso   1.00
H251   H     0.44909   0.70400   0.09561   0.00000  Uiso   1.00
H252   H     0.05091   0.96267   0.23772   0.00000  Uiso   1.00
C253   C     0.24800   0.67712   0.14241   0.00000  Uiso   1.00
C254   C     0.25199   0.98955   0.19092   0.00000  Uiso   1.00
H255   H     0.24426   0.98624   0.09585   0.00000  Uiso   1.00
H256   H     0.25574   0.68043   0.23749   0.00000  Uiso   1.00
N257   N     0.23744   0.81881   0.01284   0.00000  Uiso   1.00
N258   N     0.26255   0.84786   0.32049   0.00000  Uiso   1.00
N259   N     0.03580   0.68711   0.10025   0.00000  Uiso   1.00
O260   O     0.01594   0.98421   0.05542   0.00000  Uiso   1.00
O261   O     0.06725   0.67350   0.13515   0.00000  Uiso   1.00
N262   N     0.46420   0.97956   0.23309   0.00000  Uiso   1.00
O263   O     0.48406   0.68246   0.27791   0.00000  Uiso   1.00
O264   O     0.43275   0.99317   0.19818   0.00000  Uiso   1.00
N265   N     0.19393   0.80762   0.31973   0.00000  Uiso   1.00
O266   O     0.18020   0.75872   0.29523   0.00000  Uiso   1.00
O267   O     0.16435   0.84303   0.33258   0.00000  Uiso   1.00
N268   N     0.30607   0.85904   0.01360   0.00000  Uiso   1.00
O269   O     0.31981   0.90795   0.03808   0.00000  Uiso   1.00
O270   O     0.33564   0.82363   0.00076   0.00000  Uiso   1.00
O271   O     0.75325   0.76204   0.20659   0.00000  Uiso   1.00
O272   O     0.74674   0.90462   0.12674   0.00000  Uiso   1.00
O273   O     0.74480   0.75226   0.10279   0.00000  Uiso   1.00
O274   O     0.75520   0.91441   0.23055   0.00000  Uiso   1.00
C275   C     0.74864   0.73328   0.15100   0.00000  Uiso   1.00
C276   C     0.75136   0.93339   0.18233   0.00000  Uiso   1.00
O277   O     0.68935   0.83821   0.21857   0.00000  Uiso   1.00
O278   O     0.81064   0.82845   0.11476   0.00000  Uiso   1.00
O279   O     0.68090   0.82843   0.11477   0.00000  Uiso   1.00
O280   O     0.81910   0.83824   0.21857   0.00000  Uiso   1.00
C281   C     0.66467   0.83318   0.16771   0.00000  Uiso   1.00
C282   C     0.83533   0.83349   0.16562   0.00000  Uiso   1.00
Cu283  Cu    0.75500   0.83913   0.22813   0.00000  Uiso   1.00
Cu284  Cu    0.74499   0.82754   0.10521   0.00000  Uiso   1.00
C285   C     0.90930   0.88053   0.19030   0.00000  Uiso   1.00
C286   C     0.59070   0.78614   0.14303   0.00000  Uiso   1.00
C287   C     0.88340   0.83412   0.16329   0.00000  Uiso   1.00
C288   C     0.61660   0.83255   0.17005   0.00000  Uiso   1.00
C289   C     0.90323   0.78797   0.13607   0.00000  Uiso   1.00
C290   C     0.59677   0.87869   0.19726   0.00000  Uiso   1.00
C291   C     0.94986   0.78718   0.13805   0.00000  Uiso   1.00
C292   C     0.55014   0.87948   0.19528   0.00000  Uiso   1.00
C293   C     0.97653   0.83395   0.16525   0.00000  Uiso   1.00
C294   C     0.52347   0.83272   0.16808   0.00000  Uiso   1.00
C295   C     0.95616   0.88182   0.18966   0.00000  Uiso   1.00
C296   C     0.54384   0.78485   0.14367   0.00000  Uiso   1.00
C297   C     0.96998   0.73989   0.11491   0.00000  Uiso   1.00
C298   C     0.53002   0.92678   0.21842   0.00000  Uiso   1.00
C299   C     0.51676   0.73769   0.11889   0.00000  Uiso   1.00
C300   C     0.98324   0.92898   0.21444   0.00000  Uiso   1.00
H301   H     0.89238   0.91494   0.21239   0.00000  Uiso   1.00
H302   H     0.60762   0.75172   0.12094   0.00000  Uiso   1.00
H303   H     0.88230   0.75228   0.11570   0.00000  Uiso   1.00
H304   H     0.61770   0.91438   0.21763   0.00000  Uiso   1.00
H305   H     0.94909   0.70400   0.09561   0.00000  Uiso   1.00
H306   H     0.55091   0.96267   0.23772   0.00000  Uiso   1.00
C307   C     0.74800   0.67712   0.14241   0.00000  Uiso   1.00
C308   C     0.75199   0.98955   0.19092   0.00000  Uiso   1.00
H309   H     0.74426   0.98624   0.09585   0.00000  Uiso   1.00
H310   H     0.75574   0.68043   0.23749   0.00000  Uiso   1.00
N311   N     0.73744   0.81881   0.01284   0.00000  Uiso   1.00
N312   N     0.76255   0.84786   0.32049   0.00000  Uiso   1.00
N313   N     0.53580   0.68711   0.10025   0.00000  Uiso   1.00
O314   O     0.51594   0.98421   0.05542   0.00000  Uiso   1.00
O315   O     0.56725   0.67350   0.13515   0.00000  Uiso   1.00
N316   N     0.96420   0.97956   0.23309   0.00000  Uiso   1.00
O317   O     0.98406   0.68246   0.27791   0.00000  Uiso   1.00
O318   O     0.93275   0.99317   0.19818   0.00000  Uiso   1.00
N319   N     0.69393   0.80762   0.31973   0.00000  Uiso   1.00
O320   O     0.68020   0.75872   0.29523   0.00000  Uiso   1.00
O321   O     0.66435   0.84303   0.33258   0.00000  Uiso   1.00
N322   N     0.80607   0.85904   0.01360   0.00000  Uiso   1.00
O323   O     0.81981   0.90795   0.03808   0.00000  Uiso   1.00
O324   O     0.83564   0.82363   0.00076   0.00000  Uiso   1.00
O325   O     0.25325   0.09538   0.53992   0.00000  Uiso   1.00
O326   O     0.24674   0.23796   0.46008   0.00000  Uiso   1.00
O327   O     0.24480   0.08559   0.43612   0.00000  Uiso   1.00
O328   O     0.25520   0.24774   0.56388   0.00000  Uiso   1.00
C329   C     0.24864   0.06661   0.48434   0.00000  Uiso   1.00
C330   C     0.25136   0.26672   0.51566   0.00000  Uiso   1.00
O331   O     0.18935   0.17155   0.55191   0.00000  Uiso   1.00
O332   O     0.31064   0.16179   0.44809   0.00000  Uiso   1.00
O333   O     0.18090   0.16176   0.44810   0.00000  Uiso   1.00
O334   O     0.31910   0.17157   0.55190   0.00000  Uiso   1.00
C335   C     0.16467   0.16651   0.50105   0.00000  Uiso   1.00
C336   C     0.33533   0.16682   0.49895   0.00000  Uiso   1.00
Cu337  Cu    0.25500   0.17246   0.56146   0.00000  Uiso   1.00
Cu338  Cu    0.24499   0.16087   0.43854   0.00000  Uiso   1.00
C339   C     0.40930   0.21386   0.52363   0.00000  Uiso   1.00
C340   C     0.09070   0.11947   0.47637   0.00000  Uiso   1.00
C341   C     0.38340   0.16745   0.49662   0.00000  Uiso   1.00
C342   C     0.11660   0.16588   0.50338   0.00000  Uiso   1.00
C343   C     0.40323   0.12131   0.46941   0.00000  Uiso   1.00
C344   C     0.09677   0.21203   0.53059   0.00000  Uiso   1.00
C345   C     0.44986   0.12052   0.47139   0.00000  Uiso   1.00
C346   C     0.05014   0.21282   0.52862   0.00000  Uiso   1.00
C347   C     0.47653   0.16728   0.49858   0.00000  Uiso   1.00
C348   C     0.02347   0.16605   0.50142   0.00000  Uiso   1.00
C349   C     0.45616   0.21515   0.52299   0.00000  Uiso   1.00
C350   C     0.04384   0.11818   0.47701   0.00000  Uiso   1.00
C351   C     0.46998   0.07322   0.44825   0.00000  Uiso   1.00
C352   C     0.03002   0.26011   0.55175   0.00000  Uiso   1.00
C353   C     0.01676   0.07102   0.45223   0.00000  Uiso   1.00
C354   C     0.48324   0.26231   0.54777   0.00000  Uiso   1.00
H355   H     0.39238   0.24828   0.54572   0.00000  Uiso   1.00
H356   H     0.10762   0.08506   0.45428   0.00000  Uiso   1.00
H357   H     0.38230   0.08562   0.44904   0.00000  Uiso   1.00
H358   H     0.11770   0.24772   0.55096   0.00000  Uiso   1.00
H359   H     0.44909   0.03733   0.42895   0.00000  Uiso   1.00
H360   H     0.05091   0.29600   0.57105   0.00000  Uiso   1.00
C361   C     0.24800   0.01045   0.47575   0.00000  Uiso   1.00
C362   C     0.25199   0.32288   0.52425   0.00000  Uiso   1.00
H363   H     0.24426   0.31957   0.42918   0.00000  Uiso   1.00
H364   H     0.25574   0.01376   0.57082   0.00000  Uiso   1.00
N365   N     0.23744   0.15214   0.34617   0.00000  Uiso   1.00
N366   N     0.26255   0.18119   0.65383   0.00000  Uiso   1.00
N367   N     0.03580   0.02044   0.43358   0.00000  Uiso   1.00
O368   O     0.01594   0.31754   0.38876   0.00000  Uiso   1.00
O369   O     0.06725   0.00683   0.46848   0.00000  Uiso   1.00
N370   N     0.46420   0.31289   0.56642   0.00000  Uiso   1.00
O371   O     0.48406   0.01579   0.61125   0.00000  Uiso   1.00
O372   O     0.43275   0.32650   0.53152   0.00000  Uiso   1.00
N373   N     0.19393   0.14096   0.65306   0.00000  Uiso   1.00
O374   O     0.18020   0.09205   0.62856   0.00000  Uiso   1.00
O375   O     0.16435   0.17637   0.66591   0.00000  Uiso   1.00
N376   N     0.30607   0.19238   0.34694   0.00000  Uiso   1.00
O377   O     0.31981   0.24128   0.37141   0.00000  Uiso   1.00
O378   O     0.33564   0.15696   0.33410   0.00000  Uiso   1.00
O379   O     0.75325   0.09538   0.53992   0.00000  Uiso   1.00
O380   O     0.74674   0.23796   0.46008   0.00000  Uiso   1.00
O381   O     0.74480   0.08559   0.43612   0.00000  Uiso   1.00
O382   O     0.75520   0.24774   0.56388   0.00000  Uiso   1.00
C383   C     0.74864   0.06661   0.48434   0.00000  Uiso   1.00
C384   C     0.75136   0.26672   0.51566   0.00000  Uiso   1.00
O385   O     0.68935   0.17155   0.55191   0.00000  Uiso   1.00
O386   O     0.81064   0.16179   0.44809   0.00000  Uiso   1.00
O387   O     0.68090   0.16176   0.44810   0.00000  Uiso   1.00
O388   O     0.81910   0.17157   0.55190   0.00000  Uiso   1.00
C389   C     0.66467   0.16651   0.50105   0.00000  Uiso   1.00
C390   C     0.83533   0.16682   0.49895   0.00000  Uiso   1.00
Cu391  Cu    0.75500   0.17246   0.56146   0.00000  Uiso   1.00
Cu392  Cu    0.74499   0.16087   0.43854   0.00000  Uiso   1.00
C393   C     0.90930   0.21386   0.52363   0.00000  Uiso   1.00
C394   C     0.59070   0.11947   0.47637   0.00000  Uiso   1.00
C395   C     0.88340   0.16745   0.49662   0.00000  Uiso   1.00
C396   C     0.61660   0.16588   0.50338   0.00000  Uiso   1.00
C397   C     0.90323   0.12131   0.46941   0.00000  Uiso   1.00
C398   C     0.59677   0.21203   0.53059   0.00000  Uiso   1.00
C399   C     0.94986   0.12052   0.47139   0.00000  Uiso   1.00
C400   C     0.55014   0.21282   0.52862   0.00000  Uiso   1.00
C401   C     0.97653   0.16728   0.49858   0.00000  Uiso   1.00
C402   C     0.52347   0.16605   0.50142   0.00000  Uiso   1.00
C403   C     0.95616   0.21515   0.52299   0.00000  Uiso   1.00
C404   C     0.54384   0.11818   0.47701   0.00000  Uiso   1.00
C405   C     0.96998   0.07322   0.44825   0.00000  Uiso   1.00
C406   C     0.53002   0.26011   0.55175   0.00000  Uiso   1.00
C407   C     0.51676   0.07102   0.45223   0.00000  Uiso   1.00
C408   C     0.98324   0.26231   0.54777   0.00000  Uiso   1.00
H409   H     0.89238   0.24828   0.54572   0.00000  Uiso   1.00
H410   H     0.60762   0.08506   0.45428   0.00000  Uiso   1.00
H411   H     0.88230   0.08562   0.44904   0.00000  Uiso   1.00
H412   H     0.61770   0.24772   0.55096   0.00000  Uiso   1.00
H413   H     0.94909   0.03733   0.42895   0.00000  Uiso   1.00
H414   H     0.55091   0.29600   0.57105   0.00000  Uiso   1.00
C415   C     0.74800   0.01045   0.47575   0.00000  Uiso   1.00
C416   C     0.75199   0.32288   0.52425   0.00000  Uiso   1.00
H417   H     0.74426   0.31957   0.42918   0.00000  Uiso   1.00
H418   H     0.75574   0.01376   0.57082   0.00000  Uiso   1.00
N419   N     0.73744   0.15214   0.34617   0.00000  Uiso   1.00
N420   N     0.76255   0.18119   0.65383   0.00000  Uiso   1.00
N421   N     0.53580   0.02044   0.43358   0.00000  Uiso   1.00
O422   O     0.51594   0.31754   0.38876   0.00000  Uiso   1.00
O423   O     0.56725   0.00683   0.46848   0.00000  Uiso   1.00
N424   N     0.96420   0.31289   0.56642   0.00000  Uiso   1.00
O425   O     0.98406   0.01579   0.61125   0.00000  Uiso   1.00
O426   O     0.93275   0.32650   0.53152   0.00000  Uiso   1.00
N427   N     0.69393   0.14096   0.65306   0.00000  Uiso   1.00
O428   O     0.68020   0.09205   0.62856   0.00000  Uiso   1.00
O429   O     0.66435   0.17637   0.66591   0.00000  Uiso   1.00
N430   N     0.80607   0.19238   0.34694   0.00000  Uiso   1.00
O431   O     0.81981   0.24128   0.37141   0.00000  Uiso   1.00
O432   O     0.83564   0.15696   0.33410   0.00000  Uiso   1.00
O433   O     0.25325   0.42871   0.53992   0.00000  Uiso   1.00
O434   O     0.24674   0.57129   0.46008   0.00000  Uiso   1.00
O435   O     0.24480   0.41892   0.43612   0.00000  Uiso   1.00
O436   O     0.25520   0.58108   0.56388   0.00000  Uiso   1.00
C437   C     0.24864   0.39995   0.48434   0.00000  Uiso   1.00
C438   C     0.25136   0.60005   0.51566   0.00000  Uiso   1.00
O439   O     0.18935   0.50488   0.55191   0.00000  Uiso   1.00
O440   O     0.31064   0.49512   0.44809   0.00000  Uiso   1.00
O441   O     0.18090   0.49510   0.44810   0.00000  Uiso   1.00
O442   O     0.31910   0.50490   0.55190   0.00000  Uiso   1.00
C443   C     0.16467   0.49984   0.50105   0.00000  Uiso   1.00
C444   C     0.33533   0.50016   0.49895   0.00000  Uiso   1.00
Cu445  Cu    0.25500   0.50579   0.56146   0.00000  Uiso   1.00
Cu446  Cu    0.24499   0.49421   0.43854   0.00000  Uiso   1.00
C447   C     0.40930   0.54720   0.52363   0.00000  Uiso   1.00
C448   C     0.09070   0.45280   0.47637   0.00000  Uiso   1.00
C449   C     0.38340   0.50079   0.49662   0.00000  Uiso   1.00
C450   C     0.11660   0.49921   0.50338   0.00000  Uiso   1.00
C451   C     0.40323   0.45464   0.46941   0.00000  Uiso   1.00
C452   C     0.09677   0.54536   0.53059   0.00000  Uiso   1.00
C453   C     0.44986   0.45385   0.47139   0.00000  Uiso   1.00
C454   C     0.05014   0.54615   0.52862   0.00000  Uiso   1.00
C455   C     0.47653   0.50062   0.49858   0.00000  Uiso   1.00
C456   C     0.02347   0.49938   0.50142   0.00000  Uiso   1.00
C457   C     0.45616   0.54849   0.52299   0.00000  Uiso   1.00
C458   C     0.04384   0.45151   0.47701   0.00000  Uiso   1.00
C459   C     0.46998   0.40656   0.44825   0.00000  Uiso   1.00
C460   C     0.03002   0.59344   0.55175   0.00000  Uiso   1.00
C461   C     0.01676   0.40435   0.45223   0.00000  Uiso   1.00
C462   C     0.48324   0.59565   0.54777   0.00000  Uiso   1.00
H463   H     0.39238   0.58161   0.54572   0.00000  Uiso   1.00
H464   H     0.10762   0.41839   0.45428   0.00000  Uiso   1.00
H465   H     0.38230   0.41895   0.44904   0.00000  Uiso   1.00
H466   H     0.11770   0.58105   0.55096   0.00000  Uiso   1.00
H467   H     0.44909   0.37067   0.42895   0.00000  Uiso   1.00
H468   H     0.05091   0.62933   0.57105   0.00000  Uiso   1.00
C469   C     0.24800   0.34379   0.47575   0.00000  Uiso   1.00
C470   C     0.25199   0.65621   0.52425   0.00000  Uiso   1.00
H471   H     0.24426   0.65290   0.42918   0.00000  Uiso   1.00
H472   H     0.25574   0.34710   0.57082   0.00000  Uiso   1.00
N473   N     0.23744   0.48547   0.34617   0.00000  Uiso   1.00
N474   N     0.26255   0.51453   0.65383   0.00000  Uiso   1.00
N475   N     0.03580   0.35378   0.43358   0.00000  Uiso   1.00
O476   O     0.01594   0.65087   0.38876   0.00000  Uiso   1.00
O477   O     0.06725   0.34017   0.46848   0.00000  Uiso   1.00
N478   N     0.46420   0.64622   0.56642   0.00000  Uiso   1.00
O479   O     0.48406   0.34913   0.61125   0.00000  Uiso   1.00
O480   O     0.43275   0.65983   0.53152   0.00000  Uiso   1.00
N481   N     0.19393   0.47429   0.65306   0.00000  Uiso   1.00
O482   O     0.18020   0.42538   0.62856   0.00000  Uiso   1.00
O483   O     0.16435   0.50970   0.66591   0.00000  Uiso   1.00
N484   N     0.30607   0.52571   0.34694   0.00000  Uiso   1.00
O485   O     0.31981   0.57462   0.37141   0.00000  Uiso   1.00
O486   O     0.33564   0.49030   0.33410   0.00000  Uiso   1.00
O487   O     0.75325   0.42871   0.53992   0.00000  Uiso   1.00
O488   O     0.74674   0.57129   0.46008   0.00000  Uiso   1.00
O489   O     0.74480   0.41892   0.43612   0.00000  Uiso   1.00
O490   O     0.75520   0.58108   0.56388   0.00000  Uiso   1.00
C491   C     0.74864   0.39995   0.48434   0.00000  Uiso   1.00
C492   C     0.75136   0.60005   0.51566   0.00000  Uiso   1.00
O493   O     0.68935   0.50488   0.55191   0.00000  Uiso   1.00
O494   O     0.81064   0.49512   0.44809   0.00000  Uiso   1.00
O495   O     0.68090   0.49510   0.44810   0.00000  Uiso   1.00
O496   O     0.81910   0.50490   0.55190   0.00000  Uiso   1.00
C497   C     0.66467   0.49984   0.50105   0.00000  Uiso   1.00
C498   C     0.83533   0.50016   0.49895   0.00000  Uiso   1.00
Cu499  Cu    0.75500   0.50579   0.56146   0.00000  Uiso   1.00
Cu500  Cu    0.74499   0.49421   0.43854   0.00000  Uiso   1.00
C501   C     0.90930   0.54720   0.52363   0.00000  Uiso   1.00
C502   C     0.59070   0.45280   0.47637   0.00000  Uiso   1.00
C503   C     0.88340   0.50079   0.49662   0.00000  Uiso   1.00
C504   C     0.61660   0.49921   0.50338   0.00000  Uiso   1.00
C505   C     0.90323   0.45464   0.46941   0.00000  Uiso   1.00
C506   C     0.59677   0.54536   0.53059   0.00000  Uiso   1.00
C507   C     0.94986   0.45385   0.47139   0.00000  Uiso   1.00
C508   C     0.55014   0.54615   0.52862   0.00000  Uiso   1.00
C509   C     0.97653   0.50062   0.49858   0.00000  Uiso   1.00
C510   C     0.52347   0.49938   0.50142   0.00000  Uiso   1.00
C511   C     0.95616   0.54849   0.52299   0.00000  Uiso   1.00
C512   C     0.54384   0.45151   0.47701   0.00000  Uiso   1.00
C513   C     0.96998   0.40656   0.44825   0.00000  Uiso   1.00
C514   C     0.53002   0.59344   0.55175   0.00000  Uiso   1.00
C515   C     0.51676   0.40435   0.45223   0.00000  Uiso   1.00
C516   C     0.98324   0.59565   0.54777   0.00000  Uiso   1.00
H517   H     0.89238   0.58161   0.54572   0.00000  Uiso   1.00
H518   H     0.60762   0.41839   0.45428   0.00000  Uiso   1.00
H519   H     0.88230   0.41895   0.44904   0.00000  Uiso   1.00
H520   H     0.61770   0.58105   0.55096   0.00000  Uiso   1.00
H521   H     0.94909   0.37067   0.42895   0.00000  Uiso   1.00
H522   H     0.55091   0.62933   0.57105   0.00000  Uiso   1.00
C523   C     0.74800   0.34379   0.47575   0.00000  Uiso   1.00
C524   C     0.75199   0.65621   0.52425   0.00000  Uiso   1.00
H525   H     0.74426   0.65290   0.42918   0.00000  Uiso   1.00
H526   H     0.75574   0.34710   0.57082   0.00000  Uiso   1.00
N527   N     0.73744   0.48547   0.34617   0.00000  Uiso   1.00
N528   N     0.76255   0.51453   0.65383   0.00000  Uiso   1.00
N529   N     0.53580   0.35378   0.43358   0.00000  Uiso   1.00
O530   O     0.51594   0.65087   0.38876   0.00000  Uiso   1.00
O531   O     0.56725   0.34017   0.46848   0.00000  Uiso   1.00
N532   N     0.96420   0.64622   0.56642   0.00000  Uiso   1.00
O533   O     0.98406   0.34913   0.61125   0.00000  Uiso   1.00
O534   O     0.93275   0.65983   0.53152   0.00000  Uiso   1.00
N535   N     0.69393   0.47429   0.65306   0.00000  Uiso   1.00
O536   O     0.68020   0.42538   0.62856   0.00000  Uiso   1.00
O537   O     0.66435   0.50970   0.66591   0.00000  Uiso   1.00
N538   N     0.80607   0.52571   0.34694   0.00000  Uiso   1.00
O539   O     0.81981   0.57462   0.37141   0.00000  Uiso   1.00
O540   O     0.83564   0.49030   0.33410   0.00000  Uiso   1.00
O541   O     0.25325   0.76204   0.53992   0.00000  Uiso   1.00
O542   O     0.24674   0.90462   0.46008   0.00000  Uiso   1.00
O543   O     0.24480   0.75226   0.43612   0.00000  Uiso   1.00
O544   O     0.25520   0.91441   0.56388   0.00000  Uiso   1.00
C545   C     0.24864   0.73328   0.48434   0.00000  Uiso   1.00
C546   C     0.25136   0.93339   0.51566   0.00000  Uiso   1.00
O547   O     0.18935   0.83821   0.55191   0.00000  Uiso   1.00
O548   O     0.31064   0.82845   0.44809   0.00000  Uiso   1.00
O549   O     0.18090   0.82843   0.44810   0.00000  Uiso   1.00
O550   O     0.31910   0.83824   0.55190   0.00000  Uiso   1.00
C551   C     0.16467   0.83318   0.50105   0.00000  Uiso   1.00
C552   C     0.33533   0.83349   0.49895   0.00000  Uiso   1.00
Cu553  Cu    0.25500   0.83913   0.56146   0.00000  Uiso   1.00
Cu554  Cu    0.24499   0.82754   0.43854   0.00000  Uiso   1.00
C555   C     0.40930   0.88053   0.52363   0.00000  Uiso   1.00
C556   C     0.09070   0.78614   0.47637   0.00000  Uiso   1.00
C557   C     0.38340   0.83412   0.49662   0.00000  Uiso   1.00
C558   C     0.11660   0.83255   0.50338   0.00000  Uiso   1.00
C559   C     0.40323   0.78797   0.46941   0.00000  Uiso   1.00
C560   C     0.09677   0.87869   0.53059   0.00000  Uiso   1.00
C561   C     0.44986   0.78718   0.47139   0.00000  Uiso   1.00
C562   C     0.05014   0.87948   0.52862   0.00000  Uiso   1.00
C563   C     0.47653   0.83395   0.49858   0.00000  Uiso   1.00
C564   C     0.02347   0.83272   0.50142   0.00000  Uiso   1.00
C565   C     0.45616   0.88182   0.52299   0.00000  Uiso   1.00
C566   C     0.04384   0.78485   0.47701   0.00000  Uiso   1.00
C567   C     0.46998   0.73989   0.44825   0.00000  Uiso   1.00
C568   C     0.03002   0.92678   0.55175   0.00000  Uiso   1.00
C569   C     0.01676   0.73769   0.45223   0.00000  Uiso   1.00
C570   C     0.48324   0.92898   0.54777   0.00000  Uiso   1.00
H571   H     0.39238   0.91494   0.54572   0.00000  Uiso   1.00
H572   H     0.10762   0.75172   0.45428   0.00000  Uiso   1.00
H573   H     0.38230   0.75228   0.44904   0.00000  Uiso   1.00
H574   H     0.11770   0.91438   0.55096   0.00000  Uiso   1.00
H575   H     0.44909   0.70400   0.42895   0.00000  Uiso   1.00
H576   H     0.05091   0.96267   0.57105   0.00000  Uiso   1.00
C577   C     0.24800   0.67712   0.47575   0.00000  Uiso   1.00
C578   C     0.25199   0.98955   0.52425   0.00000  Uiso   1.00
H579   H     0.24426   0.98624   0.42918   0.00000  Uiso   1.00
H580   H     0.25574   0.68043   0.57082   0.00000  Uiso   1.00
N581   N     0.23744   0.81881   0.34617   0.00000  Uiso   1.00
N582   N     0.26255   0.84786   0.65383   0.00000  Uiso   1.00
N583   N     0.03580   0.68711   0.43358   0.00000  Uiso   1.00
O584   O     0.01594   0.98421   0.38876   0.00000  Uiso   1.00
O585   O     0.06725   0.67350   0.46848   0.00000  Uiso   1.00
N586   N     0.46420   0.97956   0.56642   0.00000  Uiso   1.00
O587   O     0.48406   0.68246   0.61125   0.00000  Uiso   1.00
O588   O     0.43275   0.99317   0.53152   0.00000  Uiso   1.00
N589   N     0.19393   0.80762   0.65306   0.00000  Uiso   1.00
O590   O     0.18020   0.75872   0.62856   0.00000  Uiso   1.00
O591   O     0.16435   0.84303   0.66591   0.00000  Uiso   1.00
N592   N     0.30607   0.85904   0.34694   0.00000  Uiso   1.00
O593   O     0.31981   0.90795   0.37141   0.00000  Uiso   1.00
O594   O     0.33564   0.82363   0.33410   0.00000  Uiso   1.00
O595   O     0.75325   0.76204   0.53992   0.00000  Uiso   1.00
O596   O     0.74674   0.90462   0.46008   0.00000  Uiso   1.00
O597   O     0.74480   0.75226   0.43612   0.00000  Uiso   1.00
O598   O     0.75520   0.91441   0.56388   0.00000  Uiso   1.00
C599   C     0.74864   0.73328   0.48434   0.00000  Uiso   1.00
C600   C     0.75136   0.93339   0.51566   0.00000  Uiso   1.00
O601   O     0.68935   0.83821   0.55191   0.00000  Uiso   1.00
O602   O     0.81064   0.82845   0.44809   0.00000  Uiso   1.00
O603   O     0.68090   0.82843   0.44810   0.00000  Uiso   1.00
O604   O     0.81910   0.83824   0.55190   0.00000  Uiso   1.00
C605   C     0.66467   0.83318   0.50105   0.00000  Uiso   1.00
C606   C     0.83533   0.83349   0.49895   0.00000  Uiso   1.00
Cu607  Cu    0.75500   0.83913   0.56146   0.00000  Uiso   1.00
Cu608  Cu    0.74499   0.82754   0.43854   0.00000  Uiso   1.00
C609   C     0.90930   0.88053   0.52363   0.00000  Uiso   1.00
C610   C     0.59070   0.78614   0.47637   0.00000  Uiso   1.00
C611   C     0.88340   0.83412   0.49662   0.00000  Uiso   1.00
C612   C     0.61660   0.83255   0.50338   0.00000  Uiso   1.00
C613   C     0.90323   0.78797   0.46941   0.00000  Uiso   1.00
C614   C     0.59677   0.87869   0.53059   0.00000  Uiso   1.00
C615   C     0.94986   0.78718   0.47139   0.00000  Uiso   1.00
C616   C     0.55014   0.87948   0.52862   0.00000  Uiso   1.00
C617   C     0.97653   0.83395   0.49858   0.00000  Uiso   1.00
C618   C     0.52347   0.83272   0.50142   0.00000  Uiso   1.00
C619   C     0.95616   0.88182   0.52299   0.00000  Uiso   1.00
C620   C     0.54384   0.78485   0.47701   0.00000  Uiso   1.00
C621   C     0.96998   0.73989   0.44825   0.00000  Uiso   1.00
C622   C     0.53002   0.92678   0.55175   0.00000  Uiso   1.00
C623   C     0.51676   0.73769   0.45223   0.00000  Uiso   1.00
C624   C     0.98324   0.92898   0.54777   0.00000  Uiso   1.00
H625   H     0.89238   0.91494   0.54572   0.00000  Uiso   1.00
H626   H     0.60762   0.75172   0.45428   0.00000  Uiso   1.00
H627   H     0.88230   0.75228   0.44904   0.00000  Uiso   1.00
H628   H     0.61770   0.91438   0.55096   0.00000  Uiso   1.00
H629   H     0.94909   0.70400   0.42895   0.00000  Uiso   1.00
H630   H     0.55091   0.96267   0.57105   0.00000  Uiso   1.00
C631   C     0.74800   0.67712   0.47575   0.00000  Uiso   1.00
C632   C     0.75199   0.98955   0.52425   0.00000  Uiso   1.00
H633   H     0.74426   0.98624   0.42918   0.00000  Uiso   1.00
H634   H     0.75574   0.68043   0.57082   0.00000  Uiso   1.00
N635   N     0.73744   0.81881   0.34617   0.00000  Uiso   1.00
N636   N     0.76255   0.84786   0.65383   0.00000  Uiso   1.00
N637   N     0.53580   0.68711   0.43358   0.00000  Uiso   1.00
O638   O     0.51594   0.98421   0.38876   0.00000  Uiso   1.00
O639   O     0.56725   0.67350   0.46848   0.00000  Uiso   1.00
N640   N     0.96420   0.97956   0.56642   0.00000  Uiso   1.00
O641   O     0.98406   0.68246   0.61125   0.00000  Uiso   1.00
O642   O     0.93275   0.99317   0.53152   0.00000  Uiso   1.00
N643   N     0.69393   0.80762   0.65306   0.00000  Uiso   1.00
O644   O     0.68020   0.75872   0.62856   0.00000  Uiso   1.00
O645   O     0.66435   0.84303   0.66591   0.00000  Uiso   1.00
N646   N     0.80607   0.85904   0.34694   0.00000  Uiso   1.00
O647   O     0.81981   0.90795   0.37141   0.00000  Uiso   1.00
O648   O     0.83564   0.82363   0.33410   0.00000  Uiso   1.00
O649   O     0.25325   0.09538   0.87326   0.00000  Uiso   1.00
O650   O     0.24674   0.23796   0.79341   0.00000  Uiso   1.00
O651   O     0.24480   0.08559   0.76945   0.00000  Uiso   1.00
O652   O     0.25520   0.24774   0.89721   0.00000  Uiso   1.00
C653   C     0.24864   0.06661   0.81767   0.00000  Uiso   1.00
C654   C     0.25136   0.26672   0.84900   0.00000  Uiso   1.00
O655   O     0.18935   0.17155   0.88524   0.00000  Uiso   1.00
O656   O     0.31064   0.16179   0.78143   0.00000  Uiso   1.00
O657   O     0.18090   0.16176   0.78143   0.00000  Uiso   1.00
O658   O     0.31910   0.17157   0.88523   0.00000  Uiso   1.00
C659   C     0.16467   0.16651   0.83438   0.00000  Uiso   1.00
C660   C     0.33533   0.16682   0.83229   0.00000  Uiso   1.00
Cu661  Cu    0.25500   0.17246   0.89479   0.00000  Uiso   1.00
Cu662  Cu    0.24499   0.16087   0.77187   0.00000  Uiso   1.00
C663   C     0.40930   0.21386   0.85697   0.00000  Uiso   1.00
C664   C     0.09070   0.11947   0.80970   0.00000  Uiso   1.00
C665   C     0.38340   0.16745   0.82995   0.00000  Uiso   1.00
C666   C     0.11660   0.16588   0.83671   0.00000  Uiso   1.00
C667   C     0.40323   0.12131   0.80274   0.00000  Uiso   1.00
C668   C     0.09677   0.21203   0.86393   0.00000  Uiso   1.00
C669   C     0.44986   0.12052   0.80472   0.00000  Uiso   1.00
C670   C     0.05014   0.21282   0.86195   0.00000  Uiso   1.00
C671   C     0.47653   0.16728   0.83192   0.00000  Uiso   1.00
C672   C     0.02347   0.16605   0.83475   0.00000  Uiso   1.00
C673   C     0.45616   0.21515   0.85633   0.00000  Uiso   1.00
C674   C     0.04384   0.11818   0.81034   0.00000  Uiso   1.00
C675   C     0.46998   0.07322   0.78158   0.00000  Uiso   1.00
C676   C     0.03002   0.26011   0.88509   0.00000  Uiso   1.00
C677   C     0.01676   0.07102   0.78556   0.00000  Uiso   1.00
C678   C     0.48324   0.26231   0.88111   0.00000  Uiso   1.00
H679   H     0.39238   0.24828   0.87906   0.00000  Uiso   1.00
H680   H     0.10762   0.08506   0.78761   0.00000  Uiso   1.00
H681   H     0.38230   0.08562   0.78237   0.00000  Uiso   1.00
H682   H     0.11770   0.24772   0.88430   0.00000  Uiso   1.00
H683   H     0.44909   0.03733   0.76228   0.00000  Uiso   1.00
H684   H     0.05091   0.29600   0.90439   0.00000  Uiso   1.00
C685   C     0.24800   0.01045   0.80908   0.00000  Uiso   1.00
C686   C     0.25199   0.32288   0.85759   0.00000  Uiso   1.00
H687   H     0.24426   0.31957   0.76251   0.00000  Uiso   1.00
H688   H     0.25574   0.01376   0.90415   0.00000  Uiso   1.00
N689   N     0.23744   0.15214   0.67951   0.00000  Uiso   1.00
N690   N     0.26255   0.18119   0.98716   0.00000  Uiso   1.00
N691   N     0.03580   0.02044   0.76691   0.00000  Uiso   1.00
O692   O     0.01594   0.31754   0.72209   0.00000  Uiso   1.00
O693   O     0.06725   0.00683   0.80182   0.00000  Uiso   1.00
N694   N     0.46420   0.31289   0.89975   0.00000  Uiso   1.00
O695   O     0.48406   0.01579   0.94458   0.00000  Uiso   1.00
O696   O     0.43275   0.32650   0.86485   0.00000  Uiso   1.00
N697   N     0.19393   0.14096   0.98640   0.00000  Uiso   1.00
O698   O     0.18020   0.09205   0.96189   0.00000  Uiso   1.00
O699   O     0.16435   0.17637   0.99925   0.00000  Uiso   1.00
N700   N     0.30607   0.19238   0.68027   0.00000  Uiso   1.00
O701   O     0.31981   0.24128   0.70474   0.00000  Uiso   1.00
O702   O     0.33564   0.15696   0.66743   0.00000  Uiso   1.00
O703   O     0.75325   0.09538   0.87326   0.00000  Uiso   1.00
O704   O     0.74674   0.23796   0.79341   0.00000  Uiso   1.00
O705   O     0.74480   0.08559   0.76945   0.00000  Uiso   1.00
O706   O     0.75520   0.24774   0.89721   0.00000  Uiso   1.00
C707   C     0.74864   0.06661   0.81767   0.00000  Uiso   1.00
C708   C     0.75136   0.26672   0.84900   0.00000  Uiso   1.00
O709   O     0.68935   0.17155   0.88524   0.00000  Uiso   1.00
O710   O     0.81064   0.16179   0.78143   0.00000  Uiso   1.00
O711   O     0.68090   0.16176   0.78143   0.00000  Uiso   1.00
O712   O     0.81910   0.17157   0.88523   0.00000  Uiso   1.00
C713   C     0.66467   0.16651   0.83438   0.00000  Uiso   1.00
C714   C     0.83533   0.16682   0.83229   0.00000  Uiso   1.00
Cu715  Cu    0.75500   0.17246   0.89479   0.00000  Uiso   1.00
Cu716  Cu    0.74499   0.16087   0.77187   0.00000  Uiso   1.00
C717   C     0.90930   0.21386   0.85697   0.00000  Uiso   1.00
C718   C     0.59070   0.11947   0.80970   0.00000  Uiso   1.00
C719   C     0.88340   0.16745   0.82995   0.00000  Uiso   1.00
C720   C     0.61660   0.16588   0.83671   0.00000  Uiso   1.00
C721   C     0.90323   0.12131   0.80274   0.00000  Uiso   1.00
C722   C     0.59677   0.21203   0.86393   0.00000  Uiso   1.00
C723   C     0.94986   0.12052   0.80472   0.00000  Uiso   1.00
C724   C     0.55014   0.21282   0.86195   0.00000  Uiso   1.00
C725   C     0.97653   0.16728   0.83192   0.00000  Uiso   1.00
C726   C     0.52347   0.16605   0.83475   0.00000  Uiso   1.00
C727   C     0.95616   0.21515   0.85633   0.00000  Uiso   1.00
C728   C     0.54384   0.11818   0.81034   0.00000  Uiso   1.00
C729   C     0.96998   0.07322   0.78158   0.00000  Uiso   1.00
C730   C     0.53002   0.26011   0.88509   0.00000  Uiso   1.00
C731   C     0.51676   0.07102   0.78556   0.00000  Uiso   1.00
C732   C     0.98324   0.26231   0.88111   0.00000  Uiso   1.00
H733   H     0.89238   0.24828   0.87906   0.00000  Uiso   1.00
H734   H     0.60762   0.08506   0.78761   0.00000  Uiso   1.00
H735   H     0.88230   0.08562   0.78237   0.00000  Uiso   1.00
H736   H     0.61770   0.24772   0.88430   0.00000  Uiso   1.00
H737   H     0.94909   0.03733   0.76228   0.00000  Uiso   1.00
H738   H     0.55091   0.29600   0.90439   0.00000  Uiso   1.00
C739   C     0.74800   0.01045   0.80908   0.00000  Uiso   1.00
C740   C     0.75199   0.32288   0.85759   0.00000  Uiso   1.00
H741   H     0.74426   0.31957   0.76251   0.00000  Uiso   1.00
H742   H     0.75574   0.01376   0.90415   0.00000  Uiso   1.00
N743   N     0.73744   0.15214   0.67951   0.00000  Uiso   1.00
N744   N     0.76255   0.18119   0.98716   0.00000  Uiso   1.00
N745   N     0.53580   0.02044   0.76691   0.00000  Uiso   1.00
O746   O     0.51594   0.31754   0.72209   0.00000  Uiso   1.00
O747   O     0.56725   0.00683   0.80182   0.00000  Uiso   1.00
N748   N     0.96420   0.31289   0.89975   0.00000  Uiso   1.00
O749   O     0.98406   0.01579   0.94458   0.00000  Uiso   1.00
O750   O     0.93275   0.32650   0.86485   0.00000  Uiso   1.00
N751   N     0.69393   0.14096   0.98640   0.00000  Uiso   1.00
O752   O     0.68020   0.09205   0.96189   0.00000  Uiso   1.00
O753   O     0.66435   0.17637   0.99925   0.00000  Uiso   1.00
N754   N     0.80607   0.19238   0.68027   0.00000  Uiso   1.00
O755   O     0.81981   0.24128   0.70474   0.00000  Uiso   1.00
O756   O     0.83564   0.15696   0.66743   0.00000  Uiso   1.00
O757   O     0.25325   0.42871   0.87326   0.00000  Uiso   1.00
O758   O     0.24674   0.57129   0.79341   0.00000  Uiso   1.00
O759   O     0.24480   0.41892   0.76945   0.00000  Uiso   1.00
O760   O     0.25520   0.58108   0.89721   0.00000  Uiso   1.00
C761   C     0.24864   0.39995   0.81767   0.00000  Uiso   1.00
C762   C     0.25136   0.60005   0.84900   0.00000  Uiso   1.00
O763   O     0.18935   0.50488   0.88524   0.00000  Uiso   1.00
O764   O     0.31064   0.49512   0.78143   0.00000  Uiso   1.00
O765   O     0.18090   0.49510   0.78143   0.00000  Uiso   1.00
O766   O     0.31910   0.50490   0.88523   0.00000  Uiso   1.00
C767   C     0.16467   0.49984   0.83438   0.00000  Uiso   1.00
C768   C     0.33533   0.50016   0.83229   0.00000  Uiso   1.00
Cu769  Cu    0.25500   0.50579   0.89479   0.00000  Uiso   1.00
Cu770  Cu    0.24499   0.49421   0.77187   0.00000  Uiso   1.00
C771   C     0.40930   0.54720   0.85697   0.00000  Uiso   1.00
C772   C     0.09070   0.45280   0.80970   0.00000  Uiso   1.00
C773   C     0.38340   0.50079   0.82995   0.00000  Uiso   1.00
C774   C     0.11660   0.49921   0.83671   0.00000  Uiso   1.00
C775   C     0.40323   0.45464   0.80274   0.00000  Uiso   1.00
C776   C     0.09677   0.54536   0.86393   0.00000  Uiso   1.00
C777   C     0.44986   0.45385   0.80472   0.00000  Uiso   1.00
C778   C     0.05014   0.54615   0.86195   0.00000  Uiso   1.00
C779   C     0.47653   0.50062   0.83192   0.00000  Uiso   1.00
C780   C     0.02347   0.49938   0.83475   0.00000  Uiso   1.00
C781   C     0.45616   0.54849   0.85633   0.00000  Uiso   1.00
C782   C     0.04384   0.45151   0.81034   0.00000  Uiso   1.00
C783   C     0.46998   0.40656   0.78158   0.00000  Uiso   1.00
C784   C     0.03002   0.59344   0.88509   0.00000  Uiso   1.00
C785   C     0.01676   0.40435   0.78556   0.00000  Uiso   1.00
C786   C     0.48324   0.59565   0.88111   0.00000  Uiso   1.00
H787   H     0.39238   0.58161   0.87906   0.00000  Uiso   1.00
H788   H     0.10762   0.41839   0.78761   0.00000  Uiso   1.00
H789   H     0.38230   0.41895   0.78237   0.00000  Uiso   1.00
H790   H     0.11770   0.58105   0.88430   0.00000  Uiso   1.00
H791   H     0.44909   0.37067   0.76228   0.00000  Uiso   1.00
H792   H     0.05091   0.62933   0.90439   0.00000  Uiso   1.00
C793   C     0.24800   0.34379   0.80908   0.00000  Uiso   1.00
C794   C     0.25199   0.65621   0.85759   0.00000  Uiso   1.00
H795   H     0.24426   0.65290   0.76251   0.00000  Uiso   1.00
H796   H     0.25574   0.34710   0.90415   0.00000  Uiso   1.00
N797   N     0.23744   0.48547   0.67951   0.00000  Uiso   1.00
N798   N     0.26255   0.51453   0.98716   0.00000  Uiso   1.00
N799   N     0.03580   0.35378   0.76691   0.00000  Uiso   1.00
O800   O     0.01594   0.65087   0.72209   0.00000  Uiso   1.00
O801   O     0.06725   0.34017   0.80182   0.00000  Uiso   1.00
N802   N     0.46420   0.64622   0.89975   0.00000  Uiso   1.00
O803   O     0.48406   0.34913   0.94458   0.00000  Uiso   1.00
O804   O     0.43275   0.65983   0.86485   0.00000  Uiso   1.00
N805   N     0.19393   0.47429   0.98640   0.00000  Uiso   1.00
O806   O     0.18020   0.42538   0.96189   0.00000  Uiso   1.00
O807   O     0.16435   0.50970   0.99925   0.00000  Uiso   1.00
N808   N     0.30607   0.52571   0.68027   0.00000  Uiso   1.00
O809   O     0.31981   0.57462   0.70474   0.00000  Uiso   1.00
O810   O     0.33564   0.49030   0.66743   0.00000  Uiso   1.00
O811   O     0.75325   0.42871   0.87326   0.00000  Uiso   1.00
O812   O     0.74674   0.57129   0.79341   0.00000  Uiso   1.00
O813   O     0.74480   0.41892   0.76945   0.00000  Uiso   1.00
O814   O     0.75520   0.58108   0.89721   0.00000  Uiso   1.00
C815   C     0.74864   0.39995   0.81767   0.00000  Uiso   1.00
C816   C     0.75136   0.60005   0.84900   0.00000  Uiso   1.00
O817   O     0.68935   0.50488   0.88524   0.00000  Uiso   1.00
O818   O     0.81064   0.49512   0.78143   0.00000  Uiso   1.00
O819   O     0.68090   0.49510   0.78143   0.00000  Uiso   1.00
O820   O     0.81910   0.50490   0.88523   0.00000  Uiso   1.00
C821   C     0.66467   0.49984   0.83438   0.00000  Uiso   1.00
C822   C     0.83533   0.50016   0.83229   0.00000  Uiso   1.00
Cu823  Cu    0.75500   0.50579   0.89479   0.00000  Uiso   1.00
Cu824  Cu    0.74499   0.49421   0.77187   0.00000  Uiso   1.00
C825   C     0.90930   0.54720   0.85697   0.00000  Uiso   1.00
C826   C     0.59070   0.45280   0.80970   0.00000  Uiso   1.00
C827   C     0.88340   0.50079   0.82995   0.00000  Uiso   1.00
C828   C     0.61660   0.49921   0.83671   0.00000  Uiso   1.00
C829   C     0.90323   0.45464   0.80274   0.00000  Uiso   1.00
C830   C     0.59677   0.54536   0.86393   0.00000  Uiso   1.00
C831   C     0.94986   0.45385   0.80472   0.00000  Uiso   1.00
C832   C     0.55014   0.54615   0.86195   0.00000  Uiso   1.00
C833   C     0.97653   0.50062   0.83192   0.00000  Uiso   1.00
C834   C     0.52347   0.49938   0.83475   0.00000  Uiso   1.00
C835   C     0.95616   0.54849   0.85633   0.00000  Uiso   1.00
C836   C     0.54384   0.45151   0.81034   0.00000  Uiso   1.00
C837   C     0.96998   0.40656   0.78158   0.00000  Uiso   1.00
C838   C     0.53002   0.59344   0.88509   0.00000  Uiso   1.00
C839   C     0.51676   0.40435   0.78556   0.00000  Uiso   1.00
C840   C     0.98324   0.59565   0.88111   0.00000  Uiso   1.00
H841   H     0.89238   0.58161   0.87906   0.00000  Uiso   1.00
H842   H     0.60762   0.41839   0.78761   0.00000  Uiso   1.00
H843   H     0.88230   0.41895   0.78237   0.00000  Uiso   1.00
H844   H     0.61770   0.58105   0.88430   0.00000  Uiso   1.00
H845   H     0.94909   0.37067   0.76228   0.00000  Uiso   1.00
H846   H     0.55091   0.62933   0.90439   0.00000  Uiso   1.00
C847   C     0.74800   0.34379   0.80908   0.00000  Uiso   1.00
C848   C     0.75199   0.65621   0.85759   0.00000  Uiso   1.00
H849   H     0.74426   0.65290   0.76251   0.00000  Uiso   1.00
H850   H     0.75574   0.34710   0.90415   0.00000  Uiso   1.00
N851   N     0.73744   0.48547   0.67951   0.00000  Uiso   1.00
N852   N     0.76255   0.51453   0.98716   0.00000  Uiso   1.00
N853   N     0.53580   0.35378   0.76691   0.00000  Uiso   1.00
O854   O     0.51594   0.65087   0.72209   0.00000  Uiso   1.00
O855   O     0.56725   0.34017   0.80182   0.00000  Uiso   1.00
N856   N     0.96420   0.64622   0.89975   0.00000  Uiso   1.00
O857   O     0.98406   0.34913   0.94458   0.00000  Uiso   1.00
O858   O     0.93275   0.65983   0.86485   0.00000  Uiso   1.00
N859   N     0.69393   0.47429   0.98640   0.00000  Uiso   1.00
O860   O     0.68020   0.42538   0.96189   0.00000  Uiso   1.00
O861   O     0.66435   0.50970   0.99925   0.00000  Uiso   1.00
N862   N     0.80607   0.52571   0.68027   0.00000  Uiso   1.00
O863   O     0.81981   0.57462   0.70474   0.00000  Uiso   1.00
O864   O     0.83564   0.49030   0.66743   0.00000  Uiso   1.00
O865   O     0.25325   0.76204   0.87326   0.00000  Uiso   1.00
O866   O     0.24674   0.90462   0.79341   0.00000  Uiso   1.00
O867   O     0.24480   0.75226   0.76945   0.00000  Uiso   1.00
O868   O     0.25520   0.91441   0.89721   0.00000  Uiso   1.00
C869   C     0.24864   0.73328   0.81767   0.00000  Uiso   1.00
C870   C     0.25136   0.93339   0.84900   0.00000  Uiso   1.00
O871   O     0.18935   0.83821   0.88524   0.00000  Uiso   1.00
O872   O     0.31064   0.82845   0.78143   0.00000  Uiso   1.00
O873   O     0.18090   0.82843   0.78143   0.00000  Uiso   1.00
O874   O     0.31910   0.83824   0.88523   0.00000  Uiso   1.00
C875   C     0.16467   0.83318   0.83438   0.00000  Uiso   1.00
C876   C     0.33533   0.83349   0.83229   0.00000  Uiso   1.00
Cu877  Cu    0.25500   0.83913   0.89479   0.00000  Uiso   1.00
Cu878  Cu    0.24499   0.82754   0.77187   0.00000  Uiso   1.00
C879   C     0.40930   0.88053   0.85697   0.00000  Uiso   1.00
C880   C     0.09070   0.78614   0.80970   0.00000  Uiso   1.00
C881   C     0.38340   0.83412   0.82995   0.00000  Uiso   1.00
C882   C     0.11660   0.83255   0.83671   0.00000  Uiso   1.00
C883   C     0.40323   0.78797   0.80274   0.00000  Uiso   1.00
C884   C     0.09677   0.87869   0.86393   0.00000  Uiso   1.00
C885   C     0.44986   0.78718   0.80472   0.00000  Uiso   1.00
C886   C     0.05014   0.87948   0.86195   0.00000  Uiso   1.00
C887   C     0.47653   0.83395   0.83192   0.00000  Uiso   1.00
C888   C     0.02347   0.83272   0.83475   0.00000  Uiso   1.00
C889   C     0.45616   0.88182   0.85633   0.00000  Uiso   1.00
C890   C     0.04384   0.78485   0.81034   0.00000  Uiso   1.00
C891   C     0.46998   0.73989   0.78158   0.00000  Uiso   1.00
C892   C     0.03002   0.92678   0.88509   0.00000  Uiso   1.00
C893   C     0.01676   0.73769   0.78556   0.00000  Uiso   1.00
C894   C     0.48324   0.92898   0.88111   0.00000  Uiso   1.00
H895   H     0.39238   0.91494   0.87906   0.00000  Uiso   1.00
H896   H     0.10762   0.75172   0.78761   0.00000  Uiso   1.00
H897   H     0.38230   0.75228   0.78237   0.00000  Uiso   1.00
H898   H     0.11770   0.91438   0.88430   0.00000  Uiso   1.00
H899   H     0.44909   0.70400   0.76228   0.00000  Uiso   1.00
H900   H     0.05091   0.96267   0.90439   0.00000  Uiso   1.00
C901   C     0.24800   0.67712   0.80908   0.00000  Uiso   1.00
C902   C     0.25199   0.98955   0.85759   0.00000  Uiso   1.00
H903   H     0.24426   0.98624   0.76251   0.00000  Uiso   1.00
H904   H     0.25574   0.68043   0.90415   0.00000  Uiso   1.00
N905   N     0.23744   0.81881   0.67951   0.00000  Uiso   1.00
N906   N     0.26255   0.84786   0.98716   0.00000  Uiso   1.00
N907   N     0.03580   0.68711   0.76691   0.00000  Uiso   1.00
O908   O     0.01594   0.98421   0.72209   0.00000  Uiso   1.00
O909   O     0.06725   0.67350   0.80182   0.00000  Uiso   1.00
N910   N     0.46420   0.97956   0.89975   0.00000  Uiso   1.00
O911   O     0.48406   0.68246   0.94458   0.00000  Uiso   1.00
O912   O     0.43275   0.99317   0.86485   0.00000  Uiso   1.00
N913   N     0.19393   0.80762   0.98640   0.00000  Uiso   1.00
O914   O     0.18020   0.75872   0.96189   0.00000  Uiso   1.00
O915   O     0.16435   0.84303   0.99925   0.00000  Uiso   1.00
N916   N     0.30607   0.85904   0.68027   0.00000  Uiso   1.00
O917   O     0.31981   0.90795   0.70474   0.00000  Uiso   1.00
O918   O     0.33564   0.82363   0.66743   0.00000  Uiso   1.00
O919   O     0.75325   0.76204   0.87326   0.00000  Uiso   1.00
O920   O     0.74674   0.90462   0.79341   0.00000  Uiso   1.00
O921   O     0.74480   0.75226   0.76945   0.00000  Uiso   1.00
O922   O     0.75520   0.91441   0.89721   0.00000  Uiso   1.00
C923   C     0.74864   0.73328   0.81767   0.00000  Uiso   1.00
C924   C     0.75136   0.93339   0.84900   0.00000  Uiso   1.00
O925   O     0.68935   0.83821   0.88524   0.00000  Uiso   1.00
O926   O     0.81064   0.82845   0.78143   0.00000  Uiso   1.00
O927   O     0.68090   0.82843   0.78143   0.00000  Uiso   1.00
O928   O     0.81910   0.83824   0.88523   0.00000  Uiso   1.00
C929   C     0.66467   0.83318   0.83438   0.00000  Uiso   1.00
C930   C     0.83533   0.83349   0.83229   0.00000  Uiso   1.00
Cu931  Cu    0.75500   0.83913   0.89479   0.00000  Uiso   1.00
Cu932  Cu    0.74499   0.82754   0.77187   0.00000  Uiso   1.00
C933   C     0.90930   0.88053   0.85697   0.00000  Uiso   1.00
C934   C     0.59070   0.78614   0.80970   0.00000  Uiso   1.00
C935   C     0.88340   0.83412   0.82995   0.00000  Uiso   1.00
C936   C     0.61660   0.83255   0.83671   0.00000  Uiso   1.00
C937   C     0.90323   0.78797   0.80274   0.00000  Uiso   1.00
C938   C     0.59677   0.87869   0.86393   0.00000  Uiso   1.00
C939   C     0.94986   0.78718   0.80472   0.00000  Uiso   1.00
C940   C     0.55014   0.87948   0.86195   0.00000  Uiso   1.00
C941   C     0.97653   0.83395   0.83192   0.00000  Uiso   1.00
C942   C     0.52347   0.83272   0.83475   0.00000  Uiso   1.00
C943   C     0.95616   0.88182   0.85633   0.00000  Uiso   1.00
C944   C     0.54384   0.78485   0.81034   0.00000  Uiso   1.00
C945   C     0.96998   0.73989   0.78158   0.00000  Uiso   1.00
C946   C     0.53002   0.92678   0.88509   0.00000  Uiso   1.00
C947   C     0.51676   0.73769   0.78556   0.00000  Uiso   1.00
C948   C     0.98324   0.92898   0.88111   0.00000  Uiso   1.00
H949   H     0.89238   0.91494   0.87906   0.00000  Uiso   1.00
H950   H     0.60762   0.75172   0.78761   0.00000  Uiso   1.00
H951   H     0.88230   0.75228   0.78237   0.00000  Uiso   1.00
H952   H     0.61770   0.91438   0.88430   0.00000  Uiso   1.00
H953   H     0.94909   0.70400   0.76228   0.00000  Uiso   1.00
H954   H     0.55091   0.96267   0.90439   0.00000  Uiso   1.00
C955   C     0.74800   0.67712   0.80908   0.00000  Uiso   1.00
C956   C     0.75199   0.98955   0.85759   0.00000  Uiso   1.00
H957   H     0.74426   0.98624   0.76251   0.00000  Uiso   1.00
H958   H     0.75574   0.68043   0.90415   0.00000  Uiso   1.00
N959   N     0.73744   0.81881   0.67951   0.00000  Uiso   1.00
N960   N     0.76255   0.84786   0.98716   0.00000  Uiso   1.00
N961   N     0.53580   0.68711   0.76691   0.00000  Uiso   1.00
O962   O     0.51594   0.98421   0.72209   0.00000  Uiso   1.00
O963   O     0.56725   0.67350   0.80182   0.00000  Uiso   1.00
N964   N     0.96420   0.97956   0.89975   0.00000  Uiso   1.00
O965   O     0.98406   0.68246   0.94458   0.00000  Uiso   1.00
O966   O     0.93275   0.99317   0.86485   0.00000  Uiso   1.00
N967   N     0.69393   0.80762   0.98640   0.00000  Uiso   1.00
O968   O     0.68020   0.75872   0.96189   0.00000  Uiso   1.00
O969   O     0.66435   0.84303   0.99925   0.00000  Uiso   1.00
N970   N     0.80607   0.85904   0.68027   0.00000  Uiso   1.00
O971   O     0.81981   0.90795   0.70474   0.00000  Uiso   1.00
O972   O     0.83564   0.82363   0.66743   0.00000  Uiso   1.00
loop_
_geom_bond_atom_site_label_1
_geom_bond_atom_site_label_2
_geom_bond_distance
_geom_bond_site_symmetry_2
_ccdc_geom_bond_type
O1     C5      1.297   .     A
O1     Cu13    1.949   .     S
O2     C6      1.297   .     A
O2     Cu14    1.949   .     S
O3     Cu14    1.948   .     S
O3     C5      1.295   .     A
O4     C6      1.295   .     A
O4     Cu13    1.948   .     S
C5     C37     1.428   .     S
C6     C38     1.428   .     S
O7     C11     1.300   .     A
O7     Cu13    1.957   .     S
O8     C12     1.300   .     A
O8     Cu14    1.957   .     S
O9     Cu14    1.940   .     S
O9     C11     1.298   .     A
O10    C12     1.298   .     A
O10    Cu13    1.940   .     S
C11    C18     1.439   .     S
C12    C17     1.439   .     S
Cu13   Cu14    2.712   .     S
Cu13   N42     2.038   .     S
Cu14   N41     2.038   .     S
C15    H31     1.082   .     S
C15    C25     1.400   .     A
C15    C17     1.394   .     A
C16    C18     1.394   .     A
C16    C26     1.400   .     A
C16    H32     1.082   .     S
C17    C19     1.392   .     A
C18    C20     1.392   .     A
C19    C21     1.392   .     A
C19    H33     1.085   .     S
C20    H34     1.085   .     S
C20    C22     1.392   .     A
C21    C27     1.399   .     A
C21    C23     1.413   .     A
C22    C28     1.399   .     A
C22    C24     1.413   .     A
C23    C25     1.420   .     A
C23    C78     1.401   .     S
C24    C26     1.420   .     A
C24    C77     1.401   1_455 S
C25    C30     1.417   .     A
C26    C29     1.417   .     A
C27    H35     1.084   .     S
C27    C83     1.399   .     S
C28    H36     1.084   .     S
C28    C84     1.399   1_455 S
C29    N43     1.440   .     S
C29    C81     1.399   1_455 S
C30    N46     1.440   .     S
C30    C82     1.399   .     S
C37    C254    1.332   1_545 S
C37    H255    1.088   1_545 S
C38    C145    1.332   .     S
C38    H148    1.088   .     S
H39    C145    1.088   .     S
H40    C254    1.088   1_545 S
N41    N690    1.295   1_554 S
N41    N697    1.384   1_554 S
N42    N365    1.295   .     S
N42    N376    1.384   .     S
N43    O45     1.301   .     A
N43    O260    1.301   1_545 S
O44    N151    1.301   .     S
N46    O48     1.301   .     A
N46    O155    1.301   .     S
O47    N262    1.301   1_545 S
N49    O51     1.302   .     A
N49    O50     1.301   .     A
N49    N365    1.384   .     S
N52    O54     1.302   .     A
N52    O53     1.301   .     A
N52    N690    1.384   1_554 S
O55    C59     1.297   .     A
O55    Cu67    1.949   .     S
O56    C60     1.297   .     A
O56    Cu68    1.949   .     S
O57    Cu68    1.948   .     S
O57    C59     1.295   .     A
O58    C60     1.295   .     A
O58    Cu67    1.948   .     S
C59    C91     1.428   .     S
C60    C92     1.428   .     S
O61    C65     1.300   .     A
O61    Cu67    1.957   .     S
O62    C66     1.300   .     A
O62    Cu68    1.957   .     S
O63    Cu68    1.940   .     S
O63    C65     1.298   .     A
O64    C66     1.298   .     A
O64    Cu67    1.940   .     S
C65    C72     1.439   .     S
C66    C71     1.439   .     S
Cu67   Cu68    2.712   .     S
Cu67   N96     2.038   .     S
Cu68   N95     2.038   .     S
C69    H85     1.082   .     S
C69    C79     1.400   .     A
C69    C71     1.394   .     A
C70    C72     1.394   .     A
C70    C80     1.400   .     A
C70    H86     1.082   .     S
C71    C73     1.392   .     A
C72    C74     1.392   .     A
C73    C75     1.392   .     A
C73    H87     1.085   .     S
C74    H88     1.085   .     S
C74    C76     1.392   .     A
C75    C81     1.399   .     A
C75    C77     1.413   .     A
C76    C82     1.399   .     A
C76    C78     1.413   .     A
C77    C79     1.420   .     A
C77    C24     1.401   1_655 S
C78    C80     1.420   .     A
C79    C84     1.417   .     A
C80    C83     1.417   .     A
C81    H89     1.084   .     S
C81    C29     1.399   1_655 S
C82    H90     1.084   .     S
C83    N97     1.440   .     S
C84    N100    1.440   .     S
C84    C28     1.399   1_655 S
C91    C308    1.332   1_545 S
C91    H309    1.088   1_545 S
C92    C199    1.332   .     S
C92    H202    1.088   .     S
H93    C199    1.088   .     S
H94    C308    1.088   1_545 S
N95    N744    1.295   1_554 S
N95    N751    1.384   1_554 S
N96    N419    1.295   .     S
N96    N430    1.384   .     S
N97    O99     1.301   .     A
N97    O314    1.301   1_545 S
O98    N205    1.301   .     S
N100   O102    1.301   .     A
N100   O209    1.301   .     S
O101   N316    1.301   1_545 S
N103   O105    1.302   .     A
N103   O104    1.301   .     A
N103   N419    1.384   .     S
N106   O108    1.302   .     A
N106   O107    1.301   .     A
N106   N744    1.384   1_554 S
O109   C113    1.297   .     A
O109   Cu121   1.949   .     S
O110   C114    1.297   .     A
O110   Cu122   1.949   .     S
O111   Cu122   1.948   .     S
O111   C113    1.295   .     A
O112   C114    1.295   .     A
O112   Cu121   1.948   .     S
C113   C145    1.428   .     S
C114   C146    1.428   .     S
O115   C119    1.300   .     A
O115   Cu121   1.957   .     S
O116   C120    1.300   .     A
O116   Cu122   1.957   .     S
O117   Cu122   1.940   .     S
O117   C119    1.298   .     A
O118   C120    1.298   .     A
O118   Cu121   1.940   .     S
C119   C126    1.439   .     S
C120   C125    1.439   .     S
Cu121  Cu122   2.712   .     S
Cu121  N150    2.038   .     S
Cu122  N149    2.038   .     S
C123   H139    1.082   .     S
C123   C133    1.400   .     A
C123   C125    1.394   .     A
C124   C126    1.394   .     A
C124   C134    1.400   .     A
C124   H140    1.082   .     S
C125   C127    1.392   .     A
C126   C128    1.392   .     A
C127   C129    1.392   .     A
C127   H141    1.085   .     S
C128   H142    1.085   .     S
C128   C130    1.392   .     A
C129   C135    1.399   .     A
C129   C131    1.413   .     A
C130   C136    1.399   .     A
C130   C132    1.413   .     A
C131   C133    1.420   .     A
C131   C186    1.401   .     S
C132   C134    1.420   .     A
C132   C185    1.401   1_455 S
C133   C138    1.417   .     A
C134   C137    1.417   .     A
C135   H143    1.084   .     S
C135   C191    1.399   .     S
C136   H144    1.084   .     S
C136   C192    1.399   1_455 S
C137   N151    1.440   .     S
C137   C189    1.399   1_455 S
C138   N154    1.440   .     S
C138   C190    1.399   .     S
C146   C253    1.332   .     S
C146   H256    1.088   .     S
H147   C253    1.088   .     S
N149   N798    1.295   1_554 S
N149   N805    1.384   1_554 S
N150   N473    1.295   .     S
N150   N484    1.384   .     S
N151   O153    1.301   .     A
O152   N259    1.301   .     S
N154   O156    1.301   .     A
N154   O263    1.301   .     S
N157   O159    1.302   .     A
N157   O158    1.301   .     A
N157   N473    1.384   .     S
N160   O162    1.302   .     A
N160   O161    1.301   .     A
N160   N798    1.384   1_554 S
O163   C167    1.297   .     A
O163   Cu175   1.949   .     S
O164   C168    1.297   .     A
O164   Cu176   1.949   .     S
O165   Cu176   1.948   .     S
O165   C167    1.295   .     A
O166   C168    1.295   .     A
O166   Cu175   1.948   .     S
C167   C199    1.428   .     S
C168   C200    1.428   .     S
O169   C173    1.300   .     A
O169   Cu175   1.957   .     S
O170   C174    1.300   .     A
O170   Cu176   1.957   .     S
O171   Cu176   1.940   .     S
O171   C173    1.298   .     A
O172   C174    1.298   .     A
O172   Cu175   1.940   .     S
C173   C180    1.439   .     S
C174   C179    1.439   .     S
Cu175  Cu176   2.712   .     S
Cu175  N204    2.038   .     S
Cu176  N203    2.038   .     S
C177   H193    1.082   .     S
C177   C187    1.400   .     A
C177   C179    1.394   .     A
C178   C180    1.394   .     A
C178   C188    1.400   .     A
C178   H194    1.082   .     S
C179   C181    1.392   .     A
C180   C182    1.392   .     A
C181   C183    1.392   .     A
C181   H195    1.085   .     S
C182   H196    1.085   .     S
C182   C184    1.392   .     A
C183   C189    1.399   .     A
C183   C185    1.413   .     A
C184   C190    1.399   .     A
C184   C186    1.413   .     A
C185   C187    1.420   .     A
C185   C132    1.401   1_655 S
C186   C188    1.420   .     A
C187   C192    1.417   .     A
C188   C191    1.417   .     A
C189   H197    1.084   .     S
C189   C137    1.399   1_655 S
C190   H198    1.084   .     S
C191   N205    1.440   .     S
C192   N208    1.440   .     S
C192   C136    1.399   1_655 S
C200   C307    1.332   .     S
C200   H310    1.088   .     S
H201   C307    1.088   .     S
N203   N852    1.295   1_554 S
N203   N859    1.384   1_554 S
N204   N527    1.295   .     S
N204   N538    1.384   .     S
N205   O207    1.301   .     A
O206   N313    1.301   .     S
N208   O210    1.301   .     A
N208   O317    1.301   .     S
N211   O213    1.302   .     A
N211   O212    1.301   .     A
N211   N527    1.384   .     S
N214   O216    1.302   .     A
N214   O215    1.301   .     A
N214   N852    1.384   1_554 S
O217   C221    1.297   .     A
O217   Cu229   1.949   .     S
O218   C222    1.297   .     A
O218   Cu230   1.949   .     S
O219   Cu230   1.948   .     S
O219   C221    1.295   .     A
O220   C222    1.295   .     A
O220   Cu229   1.948   .     S
C221   C253    1.428   .     S
C222   C254    1.428   .     S
O223   C227    1.300   .     A
O223   Cu229   1.957   .     S
O224   C228    1.300   .     A
O224   Cu230   1.957   .     S
O225   Cu230   1.940   .     S
O225   C227    1.298   .     A
O226   C228    1.298   .     A
O226   Cu229   1.940   .     S
C227   C234    1.439   .     S
C228   C233    1.439   .     S
Cu229  Cu230   2.712   .     S
Cu229  N258    2.038   .     S
Cu230  N257    2.038   .     S
C231   H247    1.082   .     S
C231   C241    1.400   .     A
C231   C233    1.394   .     A
C232   C234    1.394   .     A
C232   C242    1.400   .     A
C232   H248    1.082   .     S
C233   C235    1.392   .     A
C234   C236    1.392   .     A
C235   C237    1.392   .     A
C235   H249    1.085   .     S
C236   H250    1.085   .     S
C236   C238    1.392   .     A
C237   C243    1.399   .     A
C237   C239    1.413   .     A
C238   C244    1.399   .     A
C238   C240    1.413   .     A
C239   C241    1.420   .     A
C239   C294    1.401   .     S
C240   C242    1.420   .     A
C240   C293    1.401   1_455 S
C241   C246    1.417   .     A
C242   C245    1.417   .     A
C243   H251    1.084   .     S
C243   C299    1.399   .     S
C244   H252    1.084   .     S
C244   C300    1.399   1_455 S
C245   N259    1.440   .     S
C245   C297    1.399   1_455 S
C246   N262    1.440   .     S
C246   C298    1.399   .     S
C254   C37     1.332   1_565 S
C254   H40     1.088   1_565 S
H255   C37     1.088   1_565 S
N257   N906    1.295   1_554 S
N257   N913    1.384   1_554 S
N258   N581    1.295   .     S
N258   N592    1.384   .     S
N259   O261    1.301   .     A
O260   N43     1.301   1_565 S
N262   O264    1.301   .     A
N262   O47     1.301   1_565 S
N265   O267    1.302   .     A
N265   O266    1.301   .     A
N265   N581    1.384   .     S
N268   O270    1.302   .     A
N268   O269    1.301   .     A
N268   N906    1.384   1_554 S
O271   C275    1.297   .     A
O271   Cu283   1.949   .     S
O272   C276    1.297   .     A
O272   Cu284   1.949   .     S
O273   Cu284   1.948   .     S
O273   C275    1.295   .     A
O274   C276    1.295   .     A
O274   Cu283   1.948   .     S
C275   C307    1.428   .     S
C276   C308    1.428   .     S
O277   C281    1.300   .     A
O277   Cu283   1.957   .     S
O278   C282    1.300   .     A
O278   Cu284   1.957   .     S
O279   Cu284   1.940   .     S
O279   C281    1.298   .     A
O280   C282    1.298   .     A
O280   Cu283   1.940   .     S
C281   C288    1.439   .     S
C282   C287    1.439   .     S
Cu283  Cu284   2.712   .     S
Cu283  N312    2.038   .     S
Cu284  N311    2.038   .     S
C285   H301    1.082   .     S
C285   C295    1.400   .     A
C285   C287    1.394   .     A
C286   C288    1.394   .     A
C286   C296    1.400   .     A
C286   H302    1.082   .     S
C287   C289    1.392   .     A
C288   C290    1.392   .     A
C289   C291    1.392   .     A
C289   H303    1.085   .     S
C290   H304    1.085   .     S
C290   C292    1.392   .     A
C291   C297    1.399   .     A
C291   C293    1.413   .     A
C292   C298    1.399   .     A
C292   C294    1.413   .     A
C293   C295    1.420   .     A
C293   C240    1.401   1_655 S
C294   C296    1.420   .     A
C295   C300    1.417   .     A
C296   C299    1.417   .     A
C297   H305    1.084   .     S
C297   C245    1.399   1_655 S
C298   H306    1.084   .     S
C299   N313    1.440   .     S
C300   N316    1.440   .     S
C300   C244    1.399   1_655 S
C308   C91     1.332   1_565 S
C308   H94     1.088   1_565 S
H309   C91     1.088   1_565 S
N311   N960    1.295   1_554 S
N311   N967    1.384   1_554 S
N312   N635    1.295   .     S
N312   N646    1.384   .     S
N313   O315    1.301   .     A
O314   N97     1.301   1_565 S
N316   O318    1.301   .     A
N316   O101    1.301   1_565 S
N319   O321    1.302   .     A
N319   O320    1.301   .     A
N319   N635    1.384   .     S
N322   O324    1.302   .     A
N322   O323    1.301   .     A
N322   N960    1.384   1_554 S
O325   C329    1.297   .     A
O325   Cu337   1.949   .     S
O326   C330    1.297   .     A
O326   Cu338   1.949   .     S
O327   Cu338   1.948   .     S
O327   C329    1.295   .     A
O328   C330    1.295   .     A
O328   Cu337   1.948   .     S
C329   C361    1.428   .     S
C330   C362    1.428   .     S
O331   C335    1.300   .     A
O331   Cu337   1.957   .     S
O332   C336    1.300   .     A
O332   Cu338   1.957   .     S
O333   Cu338   1.940   .     S
O333   C335    1.298   .     A
O334   C336    1.298   .     A
O334   Cu337   1.940   .     S
C335   C342    1.439   .     S
C336   C341    1.439   .     S
Cu337  Cu338   2.712   .     S
Cu337  N366    2.038   .     S
Cu338  N365    2.038   .     S
C339   H355    1.082   .     S
C339   C349    1.400   .     A
C339   C341    1.394   .     A
C340   C342    1.394   .     A
C340   C350    1.400   .     A
C340   H356    1.082   .     S
C341   C343    1.392   .     A
C342   C344    1.392   .     A
C343   C345    1.392   .     A
C343   H357    1.085   .     S
C344   H358    1.085   .     S
C344   C346    1.392   .     A
C345   C351    1.399   .     A
C345   C347    1.413   .     A
C346   C352    1.399   .     A
C346   C348    1.413   .     A
C347   C349    1.420   .     A
C347   C402    1.401   .     S
C348   C350    1.420   .     A
C348   C401    1.401   1_455 S
C349   C354    1.417   .     A
C350   C353    1.417   .     A
C351   H359    1.084   .     S
C351   C407    1.399   .     S
C352   H360    1.084   .     S
C352   C408    1.399   1_455 S
C353   N367    1.440   .     S
C353   C405    1.399   1_455 S
C354   N370    1.440   .     S
C354   C406    1.399   .     S
C361   C578    1.332   1_545 S
C361   H579    1.088   1_545 S
C362   C469    1.332   .     S
C362   H472    1.088   .     S
H363   C469    1.088   .     S
H364   C578    1.088   1_545 S
N366   N689    1.295   .     S
N366   N700    1.384   .     S
N367   O369    1.301   .     A
N367   O584    1.301   1_545 S
O368   N475    1.301   .     S
N370   O372    1.301   .     A
N370   O479    1.301   .     S
O371   N586    1.301   1_545 S
N373   O375    1.302   .     A
N373   O374    1.301   .     A
N373   N689    1.384   .     S
N376   O378    1.302   .     A
N376   O377    1.301   .     A
O379   C383    1.297   .     A
O379   Cu391   1.949   .     S
O380   C384    1.297   .     A
O380   Cu392   1.949   .     S
O381   Cu392   1.948   .     S
O381   C383    1.295   .     A
O382   C384    1.295   .     A
O382   Cu391   1.948   .     S
C383   C415    1.428   .     S
C384   C416    1.428   .     S
O385   C389    1.300   .     A
O385   Cu391   1.957   .     S
O386   C390    1.300   .     A
O386   Cu392   1.957   .     S
O387   Cu392   1.940   .     S
O387   C389    1.298   .     A
O388   C390    1.298   .     A
O388   Cu391   1.940   .     S
C389   C396    1.439   .     S
C390   C395    1.439   .     S
Cu391  Cu392   2.712   .     S
Cu391  N420    2.038   .     S
Cu392  N419    2.038   .     S
C393   H409    1.082   .     S
C393   C403    1.400   .     A
C393   C395    1.394   .     A
C394   C396    1.394   .     A
C394   C404    1.400   .     A
C394   H410    1.082   .     S
C395   C397    1.392   .     A
C396   C398    1.392   .     A
C397   C399    1.392   .     A
C397   H411    1.085   .     S
C398   H412    1.085   .     S
C398   C400    1.392   .     A
C399   C405    1.399   .     A
C399   C401    1.413   .     A
C400   C406    1.399   .     A
C400   C402    1.413   .     A
C401   C403    1.420   .     A
C401   C348    1.401   1_655 S
C402   C404    1.420   .     A
C403   C408    1.417   .     A
C404   C407    1.417   .     A
C405   H413    1.084   .     S
C405   C353    1.399   1_655 S
C406   H414    1.084   .     S
C407   N421    1.440   .     S
C408   N424    1.440   .     S
C408   C352    1.399   1_655 S
C415   C632    1.332   1_545 S
C415   H633    1.088   1_545 S
C416   C523    1.332   .     S
C416   H526    1.088   .     S
H417   C523    1.088   .     S
H418   C632    1.088   1_545 S
N420   N743    1.295   .     S
N420   N754    1.384   .     S
N421   O423    1.301   .     A
N421   O638    1.301   1_545 S
O422   N529    1.301   .     S
N424   O426    1.301   .     A
N424   O533    1.301   .     S
O425   N640    1.301   1_545 S
N427   O429    1.302   .     A
N427   O428    1.301   .     A
N427   N743    1.384   .     S
N430   O432    1.302   .     A
N430   O431    1.301   .     A
O433   C437    1.297   .     A
O433   Cu445   1.949   .     S
O434   C438    1.297   .     A
O434   Cu446   1.949   .     S
O435   Cu446   1.948   .     S
O435   C437    1.295   .     A
O436   C438    1.295   .     A
O436   Cu445   1.948   .     S
C437   C469    1.428   .     S
C438   C470    1.428   .     S
O439   C443    1.300   .     A
O439   Cu445   1.957   .     S
O440   C444    1.300   .     A
O440   Cu446   1.957   .     S
O441   Cu446   1.940   .     S
O441   C443    1.298   .     A
O442   C444    1.298   .     A
O442   Cu445   1.940   .     S
C443   C450    1.439   .     S
C444   C449    1.439   .     S
Cu445  Cu446   2.712   .     S
Cu445  N474    2.038   .     S
Cu446  N473    2.038   .     S
C447   H463    1.082   .     S
C447   C457    1.400   .     A
C447   C449    1.394   .     A
C448   C450    1.394   .     A
C448   C458    1.400   .     A
C448   H464    1.082   .     S
C449   C451    1.392   .     A
C450   C452    1.392   .     A
C451   C453    1.392   .     A
C451   H465    1.085   .     S
C452   H466    1.085   .     S
C452   C454    1.392   .     A
C453   C459    1.399   .     A
C453   C455    1.413   .     A
C454   C460    1.399   .     A
C454   C456    1.413   .     A
C455   C457    1.420   .     A
C455   C510    1.401   .     S
C456   C458    1.420   .     A
C456   C509    1.401   1_455 S
C457   C462    1.417   .     A
C458   C461    1.417   .     A
C459   H467    1.084   .     S
C459   C515    1.399   .     S
C460   H468    1.084   .     S
C460   C516    1.399   1_455 S
C461   N475    1.440   .     S
C461   C513    1.399   1_455 S
C462   N478    1.440   .     S
C462   C514    1.399   .     S
C470   C577    1.332   .     S
C470   H580    1.088   .     S
H471   C577    1.088   .     S
N474   N797    1.295   .     S
N474   N808    1.384   .     S
N475   O477    1.301   .     A
O476   N583    1.301   .     S
N478   O480    1.301   .     A
N478   O587    1.301   .     S
N481   O483    1.302   .     A
N481   O482    1.301   .     A
N481   N797    1.384   .     S
N484   O486    1.302   .     A
N484   O485    1.301   .     A
O487   C491    1.297   .     A
O487   Cu499   1.949   .     S
O488   C492    1.297   .     A
O488   Cu500   1.949   .     S
O489   Cu500   1.948   .     S
O489   C491    1.295   .     A
O490   C492    1.295   .     A
O490   Cu499   1.948   .     S
C491   C523    1.428   .     S
C492   C524    1.428   .     S
O493   C497    1.300   .     A
O493   Cu499   1.957   .     S
O494   C498    1.300   .     A
O494   Cu500   1.957   .     S
O495   Cu500   1.940   .     S
O495   C497    1.298   .     A
O496   C498    1.298   .     A
O496   Cu499   1.940   .     S
C497   C504    1.439   .     S
C498   C503    1.439   .     S
Cu499  Cu500   2.712   .     S
Cu499  N528    2.038   .     S
Cu500  N527    2.038   .     S
C501   H517    1.082   .     S
C501   C511    1.400   .     A
C501   C503    1.394   .     A
C502   C504    1.394   .     A
C502   C512    1.400   .     A
C502   H518    1.082   .     S
C503   C505    1.392   .     A
C504   C506    1.392   .     A
C505   C507    1.392   .     A
C505   H519    1.085   .     S
C506   H520    1.085   .     S
C506   C508    1.392   .     A
C507   C513    1.399   .     A
C507   C509    1.413   .     A
C508   C514    1.399   .     A
C508   C510    1.413   .     A
C509   C511    1.420   .     A
C509   C456    1.401   1_655 S
C510   C512    1.420   .     A
C511   C516    1.417   .     A
C512   C515    1.417   .     A
C513   H521    1.084   .     S
C513   C461    1.399   1_655 S
C514   H522    1.084   .     S
C515   N529    1.440   .     S
C516   N532    1.440   .     S
C516   C460    1.399   1_655 S
C524   C631    1.332   .     S
C524   H634    1.088   .     S
H525   C631    1.088   .     S
N528   N851    1.295   .     S
N528   N862    1.384   .     S
N529   O531    1.301   .     A
O530   N637    1.301   .     S
N532   O534    1.301   .     A
N532   O641    1.301   .     S
N535   O537    1.302   .     A
N535   O536    1.301   .     A
N535   N851    1.384   .     S
N538   O540    1.302   .     A
N538   O539    1.301   .     A
O541   C545    1.297   .     A
O541   Cu553   1.949   .     S
O542   C546    1.297   .     A
O542   Cu554   1.949   .     S
O543   Cu554   1.948   .     S
O543   C545    1.295   .     A
O544   C546    1.295   .     A
O544   Cu553   1.948   .     S
C545   C577    1.428   .     S
C546   C578    1.428   .     S
O547   C551    1.300   .     A
O547   Cu553   1.957   .     S
O548   C552    1.300   .     A
O548   Cu554   1.957   .     S
O549   Cu554   1.940   .     S
O549   C551    1.298   .     A
O550   C552    1.298   .     A
O550   Cu553   1.940   .     S
C551   C558    1.439   .     S
C552   C557    1.439   .     S
Cu553  Cu554   2.712   .     S
Cu553  N582    2.038   .     S
Cu554  N581    2.038   .     S
C555   H571    1.082   .     S
C555   C565    1.400   .     A
C555   C557    1.394   .     A
C556   C558    1.394   .     A
C556   C566    1.400   .     A
C556   H572    1.082   .     S
C557   C559    1.392   .     A
C558   C560    1.392   .     A
C559   C561    1.392   .     A
C559   H573    1.085   .     S
C560   H574    1.085   .     S
C560   C562    1.392   .     A
C561   C567    1.399   .     A
C561   C563    1.413   .     A
C562   C568    1.399   .     A
C562   C564    1.413   .     A
C563   C565    1.420   .     A
C563   C618    1.401   .     S
C564   C566    1.420   .     A
C564   C617    1.401   1_455 S
C565   C570    1.417   .     A
C566   C569    1.417   .     A
C567   H575    1.084   .     S
C567   C623    1.399   .     S
C568   H576    1.084   .     S
C568   C624    1.399   1_455 S
C569   N583    1.440   .     S
C569   C621    1.399   1_455 S
C570   N586    1.440   .     S
C570   C622    1.399   .     S
C578   C361    1.332   1_565 S
C578   H364    1.088   1_565 S
H579   C361    1.088   1_565 S
N582   N905    1.295   .     S
N582   N916    1.384   .     S
N583   O585    1.301   .     A
O584   N367    1.301   1_565 S
N586   O588    1.301   .     A
N586   O371    1.301   1_565 S
N589   O591    1.302   .     A
N589   O590    1.301   .     A
N589   N905    1.384   .     S
N592   O594    1.302   .     A
N592   O593    1.301   .     A
O595   C599    1.297   .     A
O595   Cu607   1.949   .     S
O596   C600    1.297   .     A
O596   Cu608   1.949   .     S
O597   Cu608   1.948   .     S
O597   C599    1.295   .     A
O598   C600    1.295   .     A
O598   Cu607   1.948   .     S
C599   C631    1.428   .     S
C600   C632    1.428   .     S
O601   C605    1.300   .     A
O601   Cu607   1.957   .     S
O602   C606    1.300   .     A
O602   Cu608   1.957   .     S
O603   Cu608   1.940   .     S
O603   C605    1.298   .     A
O604   C606    1.298   .     A
O604   Cu607   1.940   .     S
C605   C612    1.439   .     S
C606   C611    1.439   .     S
Cu607  Cu608   2.712   .     S
Cu607  N636    2.038   .     S
Cu608  N635    2.038   .     S
C609   H625    1.082   .     S
C609   C619    1.400   .     A
C609   C611    1.394   .     A
C610   C612    1.394   .     A
C610   C620    1.400   .     A
C610   H626    1.082   .     S
C611   C613    1.392   .     A
C612   C614    1.392   .     A
C613   C615    1.392   .     A
C613   H627    1.085   .     S
C614   H628    1.085   .     S
C614   C616    1.392   .     A
C615   C621    1.399   .     A
C615   C617    1.413   .     A
C616   C622    1.399   .     A
C616   C618    1.413   .     A
C617   C619    1.420   .     A
C617   C564    1.401   1_655 S
C618   C620    1.420   .     A
C619   C624    1.417   .     A
C620   C623    1.417   .     A
C621   H629    1.084   .     S
C621   C569    1.399   1_655 S
C622   H630    1.084   .     S
C623   N637    1.440   .     S
C624   N640    1.440   .     S
C624   C568    1.399   1_655 S
C632   C415    1.332   1_565 S
C632   H418    1.088   1_565 S
H633   C415    1.088   1_565 S
N636   N959    1.295   .     S
N636   N970    1.384   .     S
N637   O639    1.301   .     A
O638   N421    1.301   1_565 S
N640   O642    1.301   .     A
N640   O425    1.301   1_565 S
N643   O645    1.302   .     A
N643   O644    1.301   .     A
N643   N959    1.384   .     S
N646   O648    1.302   .     A
N646   O647    1.301   .     A
O649   C653    1.297   .     A
O649   Cu661   1.949   .     S
O650   C654    1.297   .     A
O650   Cu662   1.949   .     S
O651   Cu662   1.948   .     S
O651   C653    1.295   .     A
O652   C654    1.295   .     A
O652   Cu661   1.948   .     S
C653   C685    1.428   .     S
C654   C686    1.428   .     S
O655   C659    1.300   .     A
O655   Cu661   1.957   .     S
O656   C660    1.300   .     A
O656   Cu662   1.957   .     S
O657   Cu662   1.940   .     S
O657   C659    1.298   .     A
O658   C660    1.298   .     A
O658   Cu661   1.940   .     S
C659   C666    1.439   .     S
C660   C665    1.439   .     S
Cu661  Cu662   2.712   .     S
Cu661  N690    2.038   .     S
Cu662  N689    2.038   .     S
C663   H679    1.082   .     S
C663   C673    1.400   .     A
C663   C665    1.394   .     A
C664   C666    1.394   .     A
C664   C674    1.400   .     A
C664   H680    1.082   .     S
C665   C667    1.392   .     A
C666   C668    1.392   .     A
C667   C669    1.392   .     A
C667   H681    1.085   .     S
C668   H682    1.085   .     S
C668   C670    1.392   .     A
C669   C675    1.399   .     A
C669   C671    1.413   .     A
C670   C676    1.399   .     A
C670   C672    1.413   .     A
C671   C673    1.420   .     A
C671   C726    1.401   .     S
C672   C674    1.420   .     A
C672   C725    1.401   1_455 S
C673   C678    1.417   .     A
C674   C677    1.417   .     A
C675   H683    1.084   .     S
C675   C731    1.399   .     S
C676   H684    1.084   .     S
C676   C732    1.399   1_455 S
C677   N691    1.440   .     S
C677   C729    1.399   1_455 S
C678   N694    1.440   .     S
C678   C730    1.399   .     S
C685   C902    1.332   1_545 S
C685   H903    1.088   1_545 S
C686   C793    1.332   .     S
C686   H796    1.088   .     S
H687   C793    1.088   .     S
H688   C902    1.088   1_545 S
N690   N41     1.295   1_556 S
N690   N52     1.384   1_556 S
N691   O693    1.301   .     A
N691   O908    1.301   1_545 S
O692   N799    1.301   .     S
N694   O696    1.301   .     A
N694   O803    1.301   .     S
O695   N910    1.301   1_545 S
N697   O699    1.302   .     A
N697   O698    1.301   .     A
N697   N41     1.384   1_556 S
N700   O702    1.302   .     A
N700   O701    1.301   .     A
O703   C707    1.297   .     A
O703   Cu715   1.949   .     S
O704   C708    1.297   .     A
O704   Cu716   1.949   .     S
O705   Cu716   1.948   .     S
O705   C707    1.295   .     A
O706   C708    1.295   .     A
O706   Cu715   1.948   .     S
C707   C739    1.428   .     S
C708   C740    1.428   .     S
O709   C713    1.300   .     A
O709   Cu715   1.957   .     S
O710   C714    1.300   .     A
O710   Cu716   1.957   .     S
O711   Cu716   1.940   .     S
O711   C713    1.298   .     A
O712   C714    1.298   .     A
O712   Cu715   1.940   .     S
C713   C720    1.439   .     S
C714   C719    1.439   .     S
Cu715  Cu716   2.712   .     S
Cu715  N744    2.038   .     S
Cu716  N743    2.038   .     S
C717   H733    1.082   .     S
C717   C727    1.400   .     A
C717   C719    1.394   .     A
C718   C720    1.394   .     A
C718   C728    1.400   .     A
C718   H734    1.082   .     S
C719   C721    1.392   .     A
C720   C722    1.392   .     A
C721   C723    1.392   .     A
C721   H735    1.085   .     S
C722   H736    1.085   .     S
C722   C724    1.392   .     A
C723   C729    1.399   .     A
C723   C725    1.413   .     A
C724   C730    1.399   .     A
C724   C726    1.413   .     A
C725   C727    1.420   .     A
C725   C672    1.401   1_655 S
C726   C728    1.420   .     A
C727   C732    1.417   .     A
C728   C731    1.417   .     A
C729   H737    1.084   .     S
C729   C677    1.399   1_655 S
C730   H738    1.084   .     S
C731   N745    1.440   .     S
C732   N748    1.440   .     S
C732   C676    1.399   1_655 S
C739   C956    1.332   1_545 S
C739   H957    1.088   1_545 S
C740   C847    1.332   .     S
C740   H850    1.088   .     S
H741   C847    1.088   .     S
H742   C956    1.088   1_545 S
N744   N95     1.295   1_556 S
N744   N106    1.384   1_556 S
N745   O747    1.301   .     A
N745   O962    1.301   1_545 S
O746   N853    1.301   .     S
N748   O750    1.301   .     A
N748   O857    1.301   .     S
O749   N964    1.301   1_545 S
N751   O753    1.302   .     A
N751   O752    1.301   .     A
N751   N95     1.384   1_556 S
N754   O756    1.302   .     A
N754   O755    1.301   .     A
O757   C761    1.297   .     A
O757   Cu769   1.949   .     S
O758   C762    1.297   .     A
O758   Cu770   1.949   .     S
O759   Cu770   1.948   .     S
O759   C761    1.295   .     A
O760   C762    1.295   .     A
O760   Cu769   1.948   .     S
C761   C793    1.428   .     S
C762   C794    1.428   .     S
O763   C767    1.300   .     A
O763   Cu769   1.957   .     S
O764   C768    1.300   .     A
O764   Cu770   1.957   .     S
O765   Cu770   1.940   .     S
O765   C767    1.298   .     A
O766   C768    1.298   .     A
O766   Cu769   1.940   .     S
C767   C774    1.439   .     S
C768   C773    1.439   .     S
Cu769  Cu770   2.712   .     S
Cu769  N798    2.038   .     S
Cu770  N797    2.038   .     S
C771   H787    1.082   .     S
C771   C781    1.400   .     A
C771   C773    1.394   .     A
C772   C774    1.394   .     A
C772   C782    1.400   .     A
C772   H788    1.082   .     S
C773   C775    1.392   .     A
C774   C776    1.392   .     A
C775   C777    1.392   .     A
C775   H789    1.085   .     S
C776   H790    1.085   .     S
C776   C778    1.392   .     A
C777   C783    1.399   .     A
C777   C779    1.413   .     A
C778   C784    1.399   .     A
C778   C780    1.413   .     A
C779   C781    1.420   .     A
C779   C834    1.401   .     S
C780   C782    1.420   .     A
C780   C833    1.401   1_455 S
C781   C786    1.417   .     A
C782   C785    1.417   .     A
C783   H791    1.084   .     S
C783   C839    1.399   .     S
C784   H792    1.084   .     S
C784   C840    1.399   1_455 S
C785   N799    1.440   .     S
C785   C837    1.399   1_455 S
C786   N802    1.440   .     S
C786   C838    1.399   .     S
C794   C901    1.332   .     S
C794   H904    1.088   .     S
H795   C901    1.088   .     S
N798   N149    1.295   1_556 S
N798   N160    1.384   1_556 S
N799   O801    1.301   .     A
O800   N907    1.301   .     S
N802   O804    1.301   .     A
N802   O911    1.301   .     S
N805   O807    1.302   .     A
N805   O806    1.301   .     A
N805   N149    1.384   1_556 S
N808   O810    1.302   .     A
N808   O809    1.301   .     A
O811   C815    1.297   .     A
O811   Cu823   1.949   .     S
O812   C816    1.297   .     A
O812   Cu824   1.949   .     S
O813   Cu824   1.948   .     S
O813   C815    1.295   .     A
O814   C816    1.295   .     A
O814   Cu823   1.948   .     S
C815   C847    1.428   .     S
C816   C848    1.428   .     S
O817   C821    1.300   .     A
O817   Cu823   1.957   .     S
O818   C822    1.300   .     A
O818   Cu824   1.957   .     S
O819   Cu824   1.940   .     S
O819   C821    1.298   .     A
O820   C822    1.298   .     A
O820   Cu823   1.940   .     S
C821   C828    1.439   .     S
C822   C827    1.439   .     S
Cu823  Cu824   2.712   .     S
Cu823  N852    2.038   .     S
Cu824  N851    2.038   .     S
C825   H841    1.082   .     S
C825   C835    1.400   .     A
C825   C827    1.394   .     A
C826   C828    1.394   .     A
C826   C836    1.400   .     A
C826   H842    1.082   .     S
C827   C829    1.392   .     A
C828   C830    1.392   .     A
C829   C831    1.392   .     A
C829   H843    1.085   .     S
C830   H844    1.085   .     S
C830   C832    1.392   .     A
C831   C837    1.399   .     A
C831   C833    1.413   .     A
C832   C838    1.399   .     A
C832   C834    1.413   .     A
C833   C835    1.420   .     A
C833   C780    1.401   1_655 S
C834   C836    1.420   .     A
C835   C840    1.417   .     A
C836   C839    1.417   .     A
C837   H845    1.084   .     S
C837   C785    1.399   1_655 S
C838   H846    1.084   .     S
C839   N853    1.440   .     S
C840   N856    1.440   .     S
C840   C784    1.399   1_655 S
C848   C955    1.332   .     S
C848   H958    1.088   .     S
H849   C955    1.088   .     S
N852   N203    1.295   1_556 S
N852   N214    1.384   1_556 S
N853   O855    1.301   .     A
O854   N961    1.301   .     S
N856   O858    1.301   .     A
N856   O965    1.301   .     S
N859   O861    1.302   .     A
N859   O860    1.301   .     A
N859   N203    1.384   1_556 S
N862   O864    1.302   .     A
N862   O863    1.301   .     A
O865   C869    1.297   .     A
O865   Cu877   1.949   .     S
O866   C870    1.297   .     A
O866   Cu878   1.949   .     S
O867   Cu878   1.948   .     S
O867   C869    1.295   .     A
O868   C870    1.295   .     A
O868   Cu877   1.948   .     S
C869   C901    1.428   .     S
C870   C902    1.428   .     S
O871   C875    1.300   .     A
O871   Cu877   1.957   .     S
O872   C876    1.300   .     A
O872   Cu878   1.957   .     S
O873   Cu878   1.940   .     S
O873   C875    1.298   .     A
O874   C876    1.298   .     A
O874   Cu877   1.940   .     S
C875   C882    1.439   .     S
C876   C881    1.439   .     S
Cu877  Cu878   2.712   .     S
Cu877  N906    2.038   .     S
Cu878  N905    2.038   .     S
C879   H895    1.082   .     S
C879   C889    1.400   .     A
C879   C881    1.394   .     A
C880   C882    1.394   .     A
C880   C890    1.400   .     A
C880   H896    1.082   .     S
C881   C883    1.392   .     A
C882   C884    1.392   .     A
C883   C885    1.392   .     A
C883   H897    1.085   .     S
C884   H898    1.085   .     S
C884   C886    1.392   .     A
C885   C891    1.399   .     A
C885   C887    1.413   .     A
C886   C892    1.399   .     A
C886   C888    1.413   .     A
C887   C889    1.420   .     A
C887   C942    1.401   .     S
C888   C890    1.420   .     A
C888   C941    1.401   1_455 S
C889   C894    1.417   .     A
C890   C893    1.417   .     A
C891   H899    1.084   .     S
C891   C947    1.399   .     S
C892   H900    1.084   .     S
C892   C948    1.399   1_455 S
C893   N907    1.440   .     S
C893   C945    1.399   1_455 S
C894   N910    1.440   .     S
C894   C946    1.399   .     S
C902   C685    1.332   1_565 S
C902   H688    1.088   1_565 S
H903   C685    1.088   1_565 S
N906   N257    1.295   1_556 S
N906   N268    1.384   1_556 S
N907   O909    1.301   .     A
O908   N691    1.301   1_565 S
N910   O912    1.301   .     A
N910   O695    1.301   1_565 S
N913   O915    1.302   .     A
N913   O914    1.301   .     A
N913   N257    1.384   1_556 S
N916   O918    1.302   .     A
N916   O917    1.301   .     A
O919   C923    1.297   .     A
O919   Cu931   1.949   .     S
O920   C924    1.297   .     A
O920   Cu932   1.949   .     S
O921   Cu932   1.948   .     S
O921   C923    1.295   .     A
O922   C924    1.295   .     A
O922   Cu931   1.948   .     S
C923   C955    1.428   .     S
C924   C956    1.428   .     S
O925   C929    1.300   .     A
O925   Cu931   1.957   .     S
O926   C930    1.300   .     A
O926   Cu932   1.957   .     S
O927   Cu932   1.940   .     S
O927   C929    1.298   .     A
O928   C930    1.298   .     A
O928   Cu931   1.940   .     S
C929   C936    1.439   .     S
C930   C935    1.439   .     S
Cu931  Cu932   2.712   .     S
Cu931  N960    2.038   .     S
Cu932  N959    2.038   .     S
C933   H949    1.082   .     S
C933   C943    1.400   .     A
C933   C935    1.394   .     A
C934   C936    1.394   .     A
C934   C944    1.400   .     A
C934   H950    1.082   .     S
C935   C937    1.392   .     A
C936   C938    1.392   .     A
C937   C939    1.392   .     A
C937   H951    1.085   .     S
C938   H952    1.085   .     S
C938   C940    1.392   .     A
C939   C945    1.399   .     A
C939   C941    1.413   .     A
C940   C946    1.399   .     A
C940   C942    1.413   .     A
C941   C943    1.420   .     A
C941   C888    1.401   1_655 S
C942   C944    1.420   .     A
C943   C948    1.417   .     A
C944   C947    1.417   .     A
C945   H953    1.084   .     S
C945   C893    1.399   1_655 S
C946   H954    1.084   .     S
C947   N961    1.440   .     S
C948   N964    1.440   .     S
C948   C892    1.399   1_655 S
C956   C739    1.332   1_565 S
C956   H742    1.088   1_565 S
H957   C739    1.088   1_565 S
N960   N311    1.295   1_556 S
N960   N322    1.384   1_556 S
N961   O963    1.301   .     A
O962   N745    1.301   1_565 S
N964   O966    1.301   .     A
N964   O749    1.301   1_565 S
N967   O969    1.302   .     A
N967   O968    1.301   .     A
N967   N311    1.384   1_556 S
N970   O972    1.302   .     A
N970   O971    1.301   .     A
