data_str_m2_o1_o17_pcu_sym.233
_audit_creation_date              2020-01-03
_audit_creation_method            'Materials Studio'
_symmetry_space_group_name_H-M    'P1'
_symmetry_Int_Tables_number       1
_symmetry_cell_setting            triclinic
loop_
_symmetry_equiv_pos_as_xyz
  x,y,z
_cell_length_a                    32.4529
_cell_length_b                    28.7831
_cell_length_c                    30.1573
_cell_angle_alpha                 90.1378
_cell_angle_beta                  91.2714
_cell_angle_gamma                 90.0019
loop_
_atom_site_label
_atom_site_type_symbol
_atom_site_fract_x
_atom_site_fract_y
_atom_site_fract_z
_atom_site_U_iso_or_equiv
_atom_site_adp_type
_atom_site_occupancy
C1     C     0.08743   0.16666   0.24981   0.00000  Uiso   1.00
C2     C     0.24590   0.16667   0.25019   0.00000  Uiso   1.00
C3     C     0.09144   0.17858   0.02014   0.00000  Uiso   1.00
C4     C     0.24190   0.15476   0.47986   0.00000  Uiso   1.00
C5     C     0.02130   0.12445   0.25003   0.00000  Uiso   1.00
C6     C     0.31203   0.20889   0.24997   0.00000  Uiso   1.00
C7     C     0.31204   0.12445   0.25029   0.00000  Uiso   1.00
C8     C     0.02130   0.20888   0.24971   0.00000  Uiso   1.00
C9     C     0.29056   0.16667   0.25026   0.00000  Uiso   1.00
C10    C     0.04278   0.16666   0.24974   0.00000  Uiso   1.00
C11    C     0.14065   0.02474   0.22219   0.00000  Uiso   1.00
C12    C     0.19269   0.30859   0.27781   0.00000  Uiso   1.00
C13    C     0.19272   0.02483   0.27778   0.00000  Uiso   1.00
C14    C     0.14062   0.30850   0.22222   0.00000  Uiso   1.00
C15    C     0.16657   0.16658   0.16474   0.00000  Uiso   1.00
C16    C     0.16676   0.16675   0.33525   0.00000  Uiso   1.00
C17    C     0.20514   0.16245   0.40720   0.00000  Uiso   1.00
C18    C     0.12819   0.17089   0.09280   0.00000  Uiso   1.00
C19    C     0.16740   0.16718   0.38342   0.00000  Uiso   1.00
C20    C     0.16593   0.16615   0.11658   0.00000  Uiso   1.00
C21    C     0.13004   0.17245   0.40528   0.00000  Uiso   1.00
C22    C     0.20329   0.16089   0.09472   0.00000  Uiso   1.00
C23    C     0.12979   0.17265   0.45186   0.00000  Uiso   1.00
C24    C     0.20354   0.16069   0.04814   0.00000  Uiso   1.00
C25    C     0.16708   0.16675   0.47647   0.00000  Uiso   1.00
C26    C     0.16626   0.16658   0.02353   0.00000  Uiso   1.00
C27    C     0.20510   0.16114   0.45416   0.00000  Uiso   1.00
C28    C     0.12823   0.17219   0.04584   0.00000  Uiso   1.00
C29    C     0.09273   0.17864   0.47420   0.00000  Uiso   1.00
C30    C     0.24060   0.15469   0.02580   0.00000  Uiso   1.00
Cu31   Cu    0.16667   0.21355   0.25000   0.00000  Uiso   1.00
Cu32   Cu    0.16667   0.11978   0.25000   0.00000  Uiso   1.00
H33    H     0.06399   0.18365   0.45584   0.00000  Uiso   1.00
H34    H     0.26935   0.14968   0.04416   0.00000  Uiso   1.00
H35    H     0.03731   0.09143   0.25013   0.00000  Uiso   1.00
H36    H     0.29603   0.24191   0.24987   0.00000  Uiso   1.00
H37    H     0.29603   0.09143   0.25042   0.00000  Uiso   1.00
H38    H     0.03730   0.24190   0.24958   0.00000  Uiso   1.00
N39    N     0.16667   0.28402   0.25000   0.00000  Uiso   1.00
N40    N     0.16667   0.04931   0.25000   0.00000  Uiso   1.00
O41    O     0.10655   0.20625   0.24999   0.00000  Uiso   1.00
O42    O     0.22679   0.12709   0.25000   0.00000  Uiso   1.00
O43    O     0.22679   0.20625   0.25000   0.00000  Uiso   1.00
O44    O     0.10655   0.12709   0.24999   0.00000  Uiso   1.00
O45    O     0.16666   0.20627   0.18513   0.00000  Uiso   1.00
O46    O     0.16668   0.12707   0.31487   0.00000  Uiso   1.00
O47    O     0.16668   0.20627   0.31487   0.00000  Uiso   1.00
O48    O     0.16666   0.12707   0.18513   0.00000  Uiso   1.00
O49    O     0.24229   0.15924   0.38555   0.00000  Uiso   1.00
H50    H     0.23916   0.16703   0.35378   0.00000  Uiso   1.00
O51    O     0.09104   0.17409   0.11445   0.00000  Uiso   1.00
H52    H     0.09417   0.16630   0.14622   0.00000  Uiso   1.00
C53    C     0.09193   0.17745   0.37935   0.00000  Uiso   1.00
N54    N     0.06159   0.18145   0.35882   0.00000  Uiso   1.00
C55    C     0.24140   0.15588   0.12065   0.00000  Uiso   1.00
N56    N     0.27174   0.15189   0.14118   0.00000  Uiso   1.00
C57    C     0.05123   0.18584   0.03886   0.00000  Uiso   1.00
N58    N     0.01900   0.19170   0.05358   0.00000  Uiso   1.00
C59    C     0.28210   0.14749   0.46114   0.00000  Uiso   1.00
N60    N     0.31433   0.14164   0.44642   0.00000  Uiso   1.00
C61    C     0.11291   0.04928   0.19235   0.00000  Uiso   1.00
N62    N     0.09053   0.06849   0.16825   0.00000  Uiso   1.00
C63    C     0.22042   0.28406   0.30765   0.00000  Uiso   1.00
N64    N     0.24281   0.26484   0.33174   0.00000  Uiso   1.00
C65    C     0.22072   0.04939   0.30739   0.00000  Uiso   1.00
N66    N     0.24340   0.06854   0.33129   0.00000  Uiso   1.00
C67    C     0.11261   0.28394   0.19261   0.00000  Uiso   1.00
N68    N     0.08994   0.26479   0.16871   0.00000  Uiso   1.00
C69    C     0.42077   0.16666   0.24981   0.00000  Uiso   1.00
C70    C     0.57923   0.16667   0.25019   0.00000  Uiso   1.00
C71    C     0.42477   0.17858   0.02014   0.00000  Uiso   1.00
C72    C     0.57523   0.15476   0.47986   0.00000  Uiso   1.00
C73    C     0.35464   0.12445   0.25003   0.00000  Uiso   1.00
C74    C     0.64536   0.20889   0.24997   0.00000  Uiso   1.00
C75    C     0.64537   0.12445   0.25029   0.00000  Uiso   1.00
C76    C     0.35463   0.20888   0.24971   0.00000  Uiso   1.00
C77    C     0.62389   0.16667   0.25026   0.00000  Uiso   1.00
C78    C     0.37611   0.16666   0.24974   0.00000  Uiso   1.00
C79    C     0.47398   0.02474   0.22219   0.00000  Uiso   1.00
C80    C     0.52602   0.30859   0.27781   0.00000  Uiso   1.00
C81    C     0.52605   0.02483   0.27778   0.00000  Uiso   1.00
C82    C     0.47395   0.30850   0.22222   0.00000  Uiso   1.00
C83    C     0.49990   0.16658   0.16474   0.00000  Uiso   1.00
C84    C     0.50010   0.16675   0.33525   0.00000  Uiso   1.00
C85    C     0.53848   0.16245   0.40720   0.00000  Uiso   1.00
C86    C     0.46152   0.17089   0.09280   0.00000  Uiso   1.00
C87    C     0.50073   0.16718   0.38342   0.00000  Uiso   1.00
C88    C     0.49927   0.16615   0.11658   0.00000  Uiso   1.00
C89    C     0.46337   0.17245   0.40528   0.00000  Uiso   1.00
C90    C     0.53663   0.16089   0.09472   0.00000  Uiso   1.00
C91    C     0.46312   0.17265   0.45186   0.00000  Uiso   1.00
C92    C     0.53688   0.16069   0.04814   0.00000  Uiso   1.00
C93    C     0.50041   0.16675   0.47647   0.00000  Uiso   1.00
C94    C     0.49959   0.16658   0.02353   0.00000  Uiso   1.00
C95    C     0.53843   0.16114   0.45416   0.00000  Uiso   1.00
C96    C     0.46157   0.17219   0.04584   0.00000  Uiso   1.00
C97    C     0.42606   0.17864   0.47420   0.00000  Uiso   1.00
C98    C     0.57394   0.15469   0.02580   0.00000  Uiso   1.00
Cu99   Cu    0.50000   0.21355   0.25000   0.00000  Uiso   1.00
Cu100  Cu    0.50000   0.11978   0.25000   0.00000  Uiso   1.00
H101   H     0.39732   0.18365   0.45584   0.00000  Uiso   1.00
H102   H     0.60268   0.14968   0.04416   0.00000  Uiso   1.00
H103   H     0.37064   0.09143   0.25013   0.00000  Uiso   1.00
H104   H     0.62936   0.24191   0.24987   0.00000  Uiso   1.00
H105   H     0.62937   0.09143   0.25042   0.00000  Uiso   1.00
H106   H     0.37063   0.24190   0.24958   0.00000  Uiso   1.00
N107   N     0.50000   0.28402   0.25000   0.00000  Uiso   1.00
N108   N     0.50000   0.04931   0.25000   0.00000  Uiso   1.00
O109   O     0.43988   0.20625   0.24999   0.00000  Uiso   1.00
O110   O     0.56012   0.12709   0.25000   0.00000  Uiso   1.00
O111   O     0.56012   0.20625   0.25000   0.00000  Uiso   1.00
O112   O     0.43988   0.12709   0.24999   0.00000  Uiso   1.00
O113   O     0.49999   0.20627   0.18513   0.00000  Uiso   1.00
O114   O     0.50001   0.12707   0.31487   0.00000  Uiso   1.00
O115   O     0.50001   0.20627   0.31487   0.00000  Uiso   1.00
O116   O     0.49999   0.12707   0.18513   0.00000  Uiso   1.00
O117   O     0.57562   0.15924   0.38555   0.00000  Uiso   1.00
H118   H     0.57250   0.16703   0.35378   0.00000  Uiso   1.00
O119   O     0.42438   0.17409   0.11445   0.00000  Uiso   1.00
H120   H     0.42750   0.16630   0.14622   0.00000  Uiso   1.00
C121   C     0.42526   0.17745   0.37935   0.00000  Uiso   1.00
N122   N     0.39492   0.18145   0.35882   0.00000  Uiso   1.00
C123   C     0.57474   0.15588   0.12065   0.00000  Uiso   1.00
N124   N     0.60508   0.15189   0.14118   0.00000  Uiso   1.00
C125   C     0.38457   0.18584   0.03886   0.00000  Uiso   1.00
N126   N     0.35234   0.19170   0.05358   0.00000  Uiso   1.00
C127   C     0.61543   0.14749   0.46114   0.00000  Uiso   1.00
N128   N     0.64767   0.14164   0.44642   0.00000  Uiso   1.00
C129   C     0.44624   0.04928   0.19235   0.00000  Uiso   1.00
N130   N     0.42386   0.06849   0.16825   0.00000  Uiso   1.00
C131   C     0.55376   0.28406   0.30765   0.00000  Uiso   1.00
N132   N     0.57614   0.26484   0.33174   0.00000  Uiso   1.00
C133   C     0.55406   0.04939   0.30739   0.00000  Uiso   1.00
N134   N     0.57673   0.06854   0.33129   0.00000  Uiso   1.00
C135   C     0.44594   0.28394   0.19261   0.00000  Uiso   1.00
N136   N     0.42327   0.26479   0.16871   0.00000  Uiso   1.00
C137   C     0.75410   0.16666   0.24981   0.00000  Uiso   1.00
C138   C     0.91257   0.16667   0.25019   0.00000  Uiso   1.00
C139   C     0.75810   0.17858   0.02014   0.00000  Uiso   1.00
C140   C     0.90856   0.15476   0.47986   0.00000  Uiso   1.00
C141   C     0.68797   0.12445   0.25003   0.00000  Uiso   1.00
C142   C     0.97870   0.20889   0.24997   0.00000  Uiso   1.00
C143   C     0.97870   0.12445   0.25029   0.00000  Uiso   1.00
C144   C     0.68796   0.20888   0.24971   0.00000  Uiso   1.00
C145   C     0.95723   0.16667   0.25026   0.00000  Uiso   1.00
C146   C     0.70944   0.16666   0.24974   0.00000  Uiso   1.00
C147   C     0.80731   0.02474   0.22219   0.00000  Uiso   1.00
C148   C     0.85935   0.30859   0.27781   0.00000  Uiso   1.00
C149   C     0.85939   0.02483   0.27778   0.00000  Uiso   1.00
C150   C     0.80728   0.30850   0.22222   0.00000  Uiso   1.00
C151   C     0.83324   0.16658   0.16474   0.00000  Uiso   1.00
C152   C     0.83343   0.16675   0.33525   0.00000  Uiso   1.00
C153   C     0.87181   0.16245   0.40720   0.00000  Uiso   1.00
C154   C     0.79486   0.17089   0.09280   0.00000  Uiso   1.00
C155   C     0.83407   0.16718   0.38342   0.00000  Uiso   1.00
C156   C     0.83260   0.16615   0.11658   0.00000  Uiso   1.00
C157   C     0.79671   0.17245   0.40528   0.00000  Uiso   1.00
C158   C     0.86996   0.16089   0.09472   0.00000  Uiso   1.00
C159   C     0.79646   0.17265   0.45186   0.00000  Uiso   1.00
C160   C     0.87021   0.16069   0.04814   0.00000  Uiso   1.00
C161   C     0.83374   0.16675   0.47647   0.00000  Uiso   1.00
C162   C     0.83292   0.16658   0.02353   0.00000  Uiso   1.00
C163   C     0.87177   0.16114   0.45416   0.00000  Uiso   1.00
C164   C     0.79490   0.17219   0.04584   0.00000  Uiso   1.00
C165   C     0.75940   0.17864   0.47420   0.00000  Uiso   1.00
C166   C     0.90727   0.15469   0.02580   0.00000  Uiso   1.00
Cu167  Cu    0.83333   0.21355   0.25000   0.00000  Uiso   1.00
Cu168  Cu    0.83333   0.11978   0.25000   0.00000  Uiso   1.00
H169   H     0.73065   0.18365   0.45584   0.00000  Uiso   1.00
H170   H     0.93602   0.14968   0.04416   0.00000  Uiso   1.00
H171   H     0.70398   0.09143   0.25013   0.00000  Uiso   1.00
H172   H     0.96269   0.24191   0.24987   0.00000  Uiso   1.00
H173   H     0.96270   0.09143   0.25042   0.00000  Uiso   1.00
H174   H     0.70397   0.24190   0.24958   0.00000  Uiso   1.00
N175   N     0.83333   0.28402   0.25000   0.00000  Uiso   1.00
N176   N     0.83333   0.04931   0.25000   0.00000  Uiso   1.00
O177   O     0.77321   0.20625   0.24999   0.00000  Uiso   1.00
O178   O     0.89345   0.12709   0.25000   0.00000  Uiso   1.00
O179   O     0.89345   0.20625   0.25000   0.00000  Uiso   1.00
O180   O     0.77321   0.12709   0.24999   0.00000  Uiso   1.00
O181   O     0.83332   0.20627   0.18513   0.00000  Uiso   1.00
O182   O     0.83334   0.12707   0.31487   0.00000  Uiso   1.00
O183   O     0.83334   0.20627   0.31487   0.00000  Uiso   1.00
O184   O     0.83332   0.12707   0.18513   0.00000  Uiso   1.00
O185   O     0.90896   0.15924   0.38555   0.00000  Uiso   1.00
H186   H     0.90583   0.16703   0.35378   0.00000  Uiso   1.00
O187   O     0.75771   0.17409   0.11445   0.00000  Uiso   1.00
H188   H     0.76084   0.16630   0.14622   0.00000  Uiso   1.00
C189   C     0.75860   0.17745   0.37935   0.00000  Uiso   1.00
N190   N     0.72826   0.18145   0.35882   0.00000  Uiso   1.00
C191   C     0.90807   0.15588   0.12065   0.00000  Uiso   1.00
N192   N     0.93841   0.15189   0.14118   0.00000  Uiso   1.00
C193   C     0.71790   0.18584   0.03886   0.00000  Uiso   1.00
N194   N     0.68567   0.19170   0.05358   0.00000  Uiso   1.00
C195   C     0.94877   0.14749   0.46114   0.00000  Uiso   1.00
N196   N     0.98100   0.14164   0.44642   0.00000  Uiso   1.00
C197   C     0.77958   0.04928   0.19235   0.00000  Uiso   1.00
N198   N     0.75719   0.06849   0.16825   0.00000  Uiso   1.00
C199   C     0.88709   0.28406   0.30765   0.00000  Uiso   1.00
N200   N     0.90948   0.26484   0.33174   0.00000  Uiso   1.00
C201   C     0.88739   0.04939   0.30739   0.00000  Uiso   1.00
N202   N     0.91006   0.06854   0.33129   0.00000  Uiso   1.00
C203   C     0.77928   0.28394   0.19261   0.00000  Uiso   1.00
N204   N     0.75660   0.26479   0.16871   0.00000  Uiso   1.00
C205   C     0.08743   0.50000   0.24981   0.00000  Uiso   1.00
C206   C     0.24590   0.50000   0.25019   0.00000  Uiso   1.00
C207   C     0.09144   0.51191   0.02014   0.00000  Uiso   1.00
C208   C     0.24190   0.48809   0.47986   0.00000  Uiso   1.00
C209   C     0.02130   0.45778   0.25003   0.00000  Uiso   1.00
C210   C     0.31203   0.54222   0.24997   0.00000  Uiso   1.00
C211   C     0.31204   0.45778   0.25029   0.00000  Uiso   1.00
C212   C     0.02130   0.54222   0.24971   0.00000  Uiso   1.00
C213   C     0.29056   0.50000   0.25026   0.00000  Uiso   1.00
C214   C     0.04278   0.50000   0.24974   0.00000  Uiso   1.00
C215   C     0.14065   0.35807   0.22219   0.00000  Uiso   1.00
C216   C     0.19269   0.64192   0.27781   0.00000  Uiso   1.00
C217   C     0.19272   0.35816   0.27778   0.00000  Uiso   1.00
C218   C     0.14062   0.64184   0.22222   0.00000  Uiso   1.00
C219   C     0.16657   0.49991   0.16474   0.00000  Uiso   1.00
C220   C     0.16676   0.50009   0.33525   0.00000  Uiso   1.00
C221   C     0.20514   0.49578   0.40720   0.00000  Uiso   1.00
C222   C     0.12819   0.50422   0.09280   0.00000  Uiso   1.00
C223   C     0.16740   0.50052   0.38342   0.00000  Uiso   1.00
C224   C     0.16593   0.49948   0.11658   0.00000  Uiso   1.00
C225   C     0.13004   0.50578   0.40528   0.00000  Uiso   1.00
C226   C     0.20329   0.49422   0.09472   0.00000  Uiso   1.00
C227   C     0.12979   0.50598   0.45186   0.00000  Uiso   1.00
C228   C     0.20354   0.49402   0.04814   0.00000  Uiso   1.00
C229   C     0.16708   0.50009   0.47647   0.00000  Uiso   1.00
C230   C     0.16626   0.49991   0.02353   0.00000  Uiso   1.00
C231   C     0.20510   0.49447   0.45416   0.00000  Uiso   1.00
C232   C     0.12823   0.50552   0.04584   0.00000  Uiso   1.00
C233   C     0.09273   0.51197   0.47420   0.00000  Uiso   1.00
C234   C     0.24060   0.48803   0.02580   0.00000  Uiso   1.00
Cu235  Cu    0.16667   0.54689   0.25000   0.00000  Uiso   1.00
Cu236  Cu    0.16667   0.45311   0.25000   0.00000  Uiso   1.00
H237   H     0.06399   0.51699   0.45584   0.00000  Uiso   1.00
H238   H     0.26935   0.48301   0.04416   0.00000  Uiso   1.00
H239   H     0.03731   0.42476   0.25013   0.00000  Uiso   1.00
H240   H     0.29603   0.57524   0.24987   0.00000  Uiso   1.00
H241   H     0.29603   0.42476   0.25042   0.00000  Uiso   1.00
H242   H     0.03730   0.57524   0.24958   0.00000  Uiso   1.00
N243   N     0.16667   0.61736   0.25000   0.00000  Uiso   1.00
N244   N     0.16667   0.38264   0.25000   0.00000  Uiso   1.00
O245   O     0.10655   0.53958   0.24999   0.00000  Uiso   1.00
O246   O     0.22679   0.46042   0.25000   0.00000  Uiso   1.00
O247   O     0.22679   0.53958   0.25000   0.00000  Uiso   1.00
O248   O     0.10655   0.46042   0.24999   0.00000  Uiso   1.00
O249   O     0.16666   0.53960   0.18513   0.00000  Uiso   1.00
O250   O     0.16668   0.46040   0.31487   0.00000  Uiso   1.00
O251   O     0.16668   0.53960   0.31487   0.00000  Uiso   1.00
O252   O     0.16666   0.46040   0.18513   0.00000  Uiso   1.00
O253   O     0.24229   0.49258   0.38555   0.00000  Uiso   1.00
H254   H     0.23916   0.50037   0.35378   0.00000  Uiso   1.00
O255   O     0.09104   0.50742   0.11445   0.00000  Uiso   1.00
H256   H     0.09417   0.49963   0.14622   0.00000  Uiso   1.00
C257   C     0.09193   0.51079   0.37935   0.00000  Uiso   1.00
N258   N     0.06159   0.51478   0.35882   0.00000  Uiso   1.00
C259   C     0.24140   0.48921   0.12065   0.00000  Uiso   1.00
N260   N     0.27174   0.48522   0.14118   0.00000  Uiso   1.00
C261   C     0.05123   0.51917   0.03886   0.00000  Uiso   1.00
N262   N     0.01900   0.52503   0.05358   0.00000  Uiso   1.00
C263   C     0.28210   0.48083   0.46114   0.00000  Uiso   1.00
N264   N     0.31433   0.47497   0.44642   0.00000  Uiso   1.00
C265   C     0.11291   0.38261   0.19235   0.00000  Uiso   1.00
N266   N     0.09053   0.40182   0.16825   0.00000  Uiso   1.00
C267   C     0.22042   0.61739   0.30765   0.00000  Uiso   1.00
N268   N     0.24281   0.59818   0.33174   0.00000  Uiso   1.00
C269   C     0.22072   0.38273   0.30739   0.00000  Uiso   1.00
N270   N     0.24340   0.40188   0.33129   0.00000  Uiso   1.00
C271   C     0.11261   0.61727   0.19261   0.00000  Uiso   1.00
N272   N     0.08994   0.59812   0.16871   0.00000  Uiso   1.00
C273   C     0.42077   0.50000   0.24981   0.00000  Uiso   1.00
C274   C     0.57923   0.50000   0.25019   0.00000  Uiso   1.00
C275   C     0.42477   0.51191   0.02014   0.00000  Uiso   1.00
C276   C     0.57523   0.48809   0.47986   0.00000  Uiso   1.00
C277   C     0.35464   0.45778   0.25003   0.00000  Uiso   1.00
C278   C     0.64536   0.54222   0.24997   0.00000  Uiso   1.00
C279   C     0.64537   0.45778   0.25029   0.00000  Uiso   1.00
C280   C     0.35463   0.54222   0.24971   0.00000  Uiso   1.00
C281   C     0.62389   0.50000   0.25026   0.00000  Uiso   1.00
C282   C     0.37611   0.50000   0.24974   0.00000  Uiso   1.00
C283   C     0.47398   0.35807   0.22219   0.00000  Uiso   1.00
C284   C     0.52602   0.64192   0.27781   0.00000  Uiso   1.00
C285   C     0.52605   0.35816   0.27778   0.00000  Uiso   1.00
C286   C     0.47395   0.64184   0.22222   0.00000  Uiso   1.00
C287   C     0.49990   0.49991   0.16474   0.00000  Uiso   1.00
C288   C     0.50010   0.50009   0.33525   0.00000  Uiso   1.00
C289   C     0.53848   0.49578   0.40720   0.00000  Uiso   1.00
C290   C     0.46152   0.50422   0.09280   0.00000  Uiso   1.00
C291   C     0.50073   0.50052   0.38342   0.00000  Uiso   1.00
C292   C     0.49927   0.49948   0.11658   0.00000  Uiso   1.00
C293   C     0.46337   0.50578   0.40528   0.00000  Uiso   1.00
C294   C     0.53663   0.49422   0.09472   0.00000  Uiso   1.00
C295   C     0.46312   0.50598   0.45186   0.00000  Uiso   1.00
C296   C     0.53688   0.49402   0.04814   0.00000  Uiso   1.00
C297   C     0.50041   0.50009   0.47647   0.00000  Uiso   1.00
C298   C     0.49959   0.49991   0.02353   0.00000  Uiso   1.00
C299   C     0.53843   0.49447   0.45416   0.00000  Uiso   1.00
C300   C     0.46157   0.50552   0.04584   0.00000  Uiso   1.00
C301   C     0.42606   0.51197   0.47420   0.00000  Uiso   1.00
C302   C     0.57394   0.48803   0.02580   0.00000  Uiso   1.00
Cu303  Cu    0.50000   0.54689   0.25000   0.00000  Uiso   1.00
Cu304  Cu    0.50000   0.45311   0.25000   0.00000  Uiso   1.00
H305   H     0.39732   0.51699   0.45584   0.00000  Uiso   1.00
H306   H     0.60268   0.48301   0.04416   0.00000  Uiso   1.00
H307   H     0.37064   0.42476   0.25013   0.00000  Uiso   1.00
H308   H     0.62936   0.57524   0.24987   0.00000  Uiso   1.00
H309   H     0.62937   0.42476   0.25042   0.00000  Uiso   1.00
H310   H     0.37063   0.57524   0.24958   0.00000  Uiso   1.00
N311   N     0.50000   0.61736   0.25000   0.00000  Uiso   1.00
N312   N     0.50000   0.38264   0.25000   0.00000  Uiso   1.00
O313   O     0.43988   0.53958   0.24999   0.00000  Uiso   1.00
O314   O     0.56012   0.46042   0.25000   0.00000  Uiso   1.00
O315   O     0.56012   0.53958   0.25000   0.00000  Uiso   1.00
O316   O     0.43988   0.46042   0.24999   0.00000  Uiso   1.00
O317   O     0.49999   0.53960   0.18513   0.00000  Uiso   1.00
O318   O     0.50001   0.46040   0.31487   0.00000  Uiso   1.00
O319   O     0.50001   0.53960   0.31487   0.00000  Uiso   1.00
O320   O     0.49999   0.46040   0.18513   0.00000  Uiso   1.00
O321   O     0.57562   0.49258   0.38555   0.00000  Uiso   1.00
H322   H     0.57250   0.50037   0.35378   0.00000  Uiso   1.00
O323   O     0.42438   0.50742   0.11445   0.00000  Uiso   1.00
H324   H     0.42750   0.49963   0.14622   0.00000  Uiso   1.00
C325   C     0.42526   0.51079   0.37935   0.00000  Uiso   1.00
N326   N     0.39492   0.51478   0.35882   0.00000  Uiso   1.00
C327   C     0.57474   0.48921   0.12065   0.00000  Uiso   1.00
N328   N     0.60508   0.48522   0.14118   0.00000  Uiso   1.00
C329   C     0.38457   0.51917   0.03886   0.00000  Uiso   1.00
N330   N     0.35234   0.52503   0.05358   0.00000  Uiso   1.00
C331   C     0.61543   0.48083   0.46114   0.00000  Uiso   1.00
N332   N     0.64767   0.47497   0.44642   0.00000  Uiso   1.00
C333   C     0.44624   0.38261   0.19235   0.00000  Uiso   1.00
N334   N     0.42386   0.40182   0.16825   0.00000  Uiso   1.00
C335   C     0.55376   0.61739   0.30765   0.00000  Uiso   1.00
N336   N     0.57614   0.59818   0.33174   0.00000  Uiso   1.00
C337   C     0.55406   0.38273   0.30739   0.00000  Uiso   1.00
N338   N     0.57673   0.40188   0.33129   0.00000  Uiso   1.00
C339   C     0.44594   0.61727   0.19261   0.00000  Uiso   1.00
N340   N     0.42327   0.59812   0.16871   0.00000  Uiso   1.00
C341   C     0.75410   0.50000   0.24981   0.00000  Uiso   1.00
C342   C     0.91257   0.50000   0.25019   0.00000  Uiso   1.00
C343   C     0.75810   0.51191   0.02014   0.00000  Uiso   1.00
C344   C     0.90856   0.48809   0.47986   0.00000  Uiso   1.00
C345   C     0.68797   0.45778   0.25003   0.00000  Uiso   1.00
C346   C     0.97870   0.54222   0.24997   0.00000  Uiso   1.00
C347   C     0.97870   0.45778   0.25029   0.00000  Uiso   1.00
C348   C     0.68796   0.54222   0.24971   0.00000  Uiso   1.00
C349   C     0.95723   0.50000   0.25026   0.00000  Uiso   1.00
C350   C     0.70944   0.50000   0.24974   0.00000  Uiso   1.00
C351   C     0.80731   0.35807   0.22219   0.00000  Uiso   1.00
C352   C     0.85935   0.64192   0.27781   0.00000  Uiso   1.00
C353   C     0.85939   0.35816   0.27778   0.00000  Uiso   1.00
C354   C     0.80728   0.64184   0.22222   0.00000  Uiso   1.00
C355   C     0.83324   0.49991   0.16474   0.00000  Uiso   1.00
C356   C     0.83343   0.50009   0.33525   0.00000  Uiso   1.00
C357   C     0.87181   0.49578   0.40720   0.00000  Uiso   1.00
C358   C     0.79486   0.50422   0.09280   0.00000  Uiso   1.00
C359   C     0.83407   0.50052   0.38342   0.00000  Uiso   1.00
C360   C     0.83260   0.49948   0.11658   0.00000  Uiso   1.00
C361   C     0.79671   0.50578   0.40528   0.00000  Uiso   1.00
C362   C     0.86996   0.49422   0.09472   0.00000  Uiso   1.00
C363   C     0.79646   0.50598   0.45186   0.00000  Uiso   1.00
C364   C     0.87021   0.49402   0.04814   0.00000  Uiso   1.00
C365   C     0.83374   0.50009   0.47647   0.00000  Uiso   1.00
C366   C     0.83292   0.49991   0.02353   0.00000  Uiso   1.00
C367   C     0.87177   0.49447   0.45416   0.00000  Uiso   1.00
C368   C     0.79490   0.50552   0.04584   0.00000  Uiso   1.00
C369   C     0.75940   0.51197   0.47420   0.00000  Uiso   1.00
C370   C     0.90727   0.48803   0.02580   0.00000  Uiso   1.00
Cu371  Cu    0.83333   0.54689   0.25000   0.00000  Uiso   1.00
Cu372  Cu    0.83333   0.45311   0.25000   0.00000  Uiso   1.00
H373   H     0.73065   0.51699   0.45584   0.00000  Uiso   1.00
H374   H     0.93602   0.48301   0.04416   0.00000  Uiso   1.00
H375   H     0.70398   0.42476   0.25013   0.00000  Uiso   1.00
H376   H     0.96269   0.57524   0.24987   0.00000  Uiso   1.00
H377   H     0.96270   0.42476   0.25042   0.00000  Uiso   1.00
H378   H     0.70397   0.57524   0.24958   0.00000  Uiso   1.00
N379   N     0.83333   0.61736   0.25000   0.00000  Uiso   1.00
N380   N     0.83333   0.38264   0.25000   0.00000  Uiso   1.00
O381   O     0.77321   0.53958   0.24999   0.00000  Uiso   1.00
O382   O     0.89345   0.46042   0.25000   0.00000  Uiso   1.00
O383   O     0.89345   0.53958   0.25000   0.00000  Uiso   1.00
O384   O     0.77321   0.46042   0.24999   0.00000  Uiso   1.00
O385   O     0.83332   0.53960   0.18513   0.00000  Uiso   1.00
O386   O     0.83334   0.46040   0.31487   0.00000  Uiso   1.00
O387   O     0.83334   0.53960   0.31487   0.00000  Uiso   1.00
O388   O     0.83332   0.46040   0.18513   0.00000  Uiso   1.00
O389   O     0.90896   0.49258   0.38555   0.00000  Uiso   1.00
H390   H     0.90583   0.50037   0.35378   0.00000  Uiso   1.00
O391   O     0.75771   0.50742   0.11445   0.00000  Uiso   1.00
H392   H     0.76084   0.49963   0.14622   0.00000  Uiso   1.00
C393   C     0.75860   0.51079   0.37935   0.00000  Uiso   1.00
N394   N     0.72826   0.51478   0.35882   0.00000  Uiso   1.00
C395   C     0.90807   0.48921   0.12065   0.00000  Uiso   1.00
N396   N     0.93841   0.48522   0.14118   0.00000  Uiso   1.00
C397   C     0.71790   0.51917   0.03886   0.00000  Uiso   1.00
N398   N     0.68567   0.52503   0.05358   0.00000  Uiso   1.00
C399   C     0.94877   0.48083   0.46114   0.00000  Uiso   1.00
N400   N     0.98100   0.47497   0.44642   0.00000  Uiso   1.00
C401   C     0.77958   0.38261   0.19235   0.00000  Uiso   1.00
N402   N     0.75719   0.40182   0.16825   0.00000  Uiso   1.00
C403   C     0.88709   0.61739   0.30765   0.00000  Uiso   1.00
N404   N     0.90948   0.59818   0.33174   0.00000  Uiso   1.00
C405   C     0.88739   0.38273   0.30739   0.00000  Uiso   1.00
N406   N     0.91006   0.40188   0.33129   0.00000  Uiso   1.00
C407   C     0.77928   0.61727   0.19261   0.00000  Uiso   1.00
N408   N     0.75660   0.59812   0.16871   0.00000  Uiso   1.00
C409   C     0.08743   0.83333   0.24981   0.00000  Uiso   1.00
C410   C     0.24590   0.83333   0.25019   0.00000  Uiso   1.00
C411   C     0.09144   0.84524   0.02014   0.00000  Uiso   1.00
C412   C     0.24190   0.82142   0.47986   0.00000  Uiso   1.00
C413   C     0.02130   0.79111   0.25003   0.00000  Uiso   1.00
C414   C     0.31203   0.87555   0.24997   0.00000  Uiso   1.00
C415   C     0.31204   0.79112   0.25029   0.00000  Uiso   1.00
C416   C     0.02130   0.87555   0.24971   0.00000  Uiso   1.00
C417   C     0.29056   0.83334   0.25026   0.00000  Uiso   1.00
C418   C     0.04278   0.83333   0.24974   0.00000  Uiso   1.00
C419   C     0.14065   0.69141   0.22219   0.00000  Uiso   1.00
C420   C     0.19269   0.97526   0.27781   0.00000  Uiso   1.00
C421   C     0.19272   0.69150   0.27778   0.00000  Uiso   1.00
C422   C     0.14062   0.97517   0.22222   0.00000  Uiso   1.00
C423   C     0.16657   0.83325   0.16474   0.00000  Uiso   1.00
C424   C     0.16676   0.83342   0.33525   0.00000  Uiso   1.00
C425   C     0.20514   0.82911   0.40720   0.00000  Uiso   1.00
C426   C     0.12819   0.83755   0.09280   0.00000  Uiso   1.00
C427   C     0.16740   0.83385   0.38342   0.00000  Uiso   1.00
C428   C     0.16593   0.83282   0.11658   0.00000  Uiso   1.00
C429   C     0.13004   0.83911   0.40528   0.00000  Uiso   1.00
C430   C     0.20329   0.82755   0.09472   0.00000  Uiso   1.00
C431   C     0.12979   0.83931   0.45186   0.00000  Uiso   1.00
C432   C     0.20354   0.82735   0.04814   0.00000  Uiso   1.00
C433   C     0.16708   0.83342   0.47647   0.00000  Uiso   1.00
C434   C     0.16626   0.83325   0.02353   0.00000  Uiso   1.00
C435   C     0.20510   0.82781   0.45416   0.00000  Uiso   1.00
C436   C     0.12823   0.83886   0.04584   0.00000  Uiso   1.00
C437   C     0.09273   0.84530   0.47420   0.00000  Uiso   1.00
C438   C     0.24060   0.82136   0.02580   0.00000  Uiso   1.00
Cu439  Cu    0.16667   0.88022   0.25000   0.00000  Uiso   1.00
Cu440  Cu    0.16667   0.78645   0.25000   0.00000  Uiso   1.00
H441   H     0.06399   0.85032   0.45584   0.00000  Uiso   1.00
H442   H     0.26935   0.81635   0.04416   0.00000  Uiso   1.00
H443   H     0.03731   0.75809   0.25013   0.00000  Uiso   1.00
H444   H     0.29603   0.90857   0.24987   0.00000  Uiso   1.00
H445   H     0.29603   0.75810   0.25042   0.00000  Uiso   1.00
H446   H     0.03730   0.90857   0.24958   0.00000  Uiso   1.00
N447   N     0.16667   0.95069   0.25000   0.00000  Uiso   1.00
N448   N     0.16667   0.71598   0.25000   0.00000  Uiso   1.00
O449   O     0.10655   0.87291   0.24999   0.00000  Uiso   1.00
O450   O     0.22679   0.79375   0.25000   0.00000  Uiso   1.00
O451   O     0.22679   0.87291   0.25000   0.00000  Uiso   1.00
O452   O     0.10655   0.79375   0.24999   0.00000  Uiso   1.00
O453   O     0.16666   0.87293   0.18513   0.00000  Uiso   1.00
O454   O     0.16668   0.79373   0.31487   0.00000  Uiso   1.00
O455   O     0.16668   0.87293   0.31487   0.00000  Uiso   1.00
O456   O     0.16666   0.79373   0.18513   0.00000  Uiso   1.00
O457   O     0.24229   0.82591   0.38555   0.00000  Uiso   1.00
H458   H     0.23916   0.83370   0.35378   0.00000  Uiso   1.00
O459   O     0.09104   0.84075   0.11445   0.00000  Uiso   1.00
H460   H     0.09417   0.83297   0.14622   0.00000  Uiso   1.00
C461   C     0.09193   0.84412   0.37935   0.00000  Uiso   1.00
N462   N     0.06159   0.84811   0.35882   0.00000  Uiso   1.00
C463   C     0.24140   0.82255   0.12065   0.00000  Uiso   1.00
N464   N     0.27174   0.81855   0.14118   0.00000  Uiso   1.00
C465   C     0.05123   0.85251   0.03886   0.00000  Uiso   1.00
N466   N     0.01900   0.85836   0.05358   0.00000  Uiso   1.00
C467   C     0.28210   0.81416   0.46114   0.00000  Uiso   1.00
N468   N     0.31433   0.80830   0.44642   0.00000  Uiso   1.00
C469   C     0.11291   0.71594   0.19235   0.00000  Uiso   1.00
N470   N     0.09053   0.73515   0.16825   0.00000  Uiso   1.00
C471   C     0.22042   0.95072   0.30765   0.00000  Uiso   1.00
N472   N     0.24281   0.93151   0.33174   0.00000  Uiso   1.00
C473   C     0.22072   0.71606   0.30739   0.00000  Uiso   1.00
N474   N     0.24340   0.73521   0.33129   0.00000  Uiso   1.00
C475   C     0.11261   0.95061   0.19261   0.00000  Uiso   1.00
N476   N     0.08994   0.93145   0.16871   0.00000  Uiso   1.00
C477   C     0.42077   0.83333   0.24981   0.00000  Uiso   1.00
C478   C     0.57923   0.83333   0.25019   0.00000  Uiso   1.00
C479   C     0.42477   0.84524   0.02014   0.00000  Uiso   1.00
C480   C     0.57523   0.82142   0.47986   0.00000  Uiso   1.00
C481   C     0.35464   0.79111   0.25003   0.00000  Uiso   1.00
C482   C     0.64536   0.87555   0.24997   0.00000  Uiso   1.00
C483   C     0.64537   0.79112   0.25029   0.00000  Uiso   1.00
C484   C     0.35463   0.87555   0.24971   0.00000  Uiso   1.00
C485   C     0.62389   0.83334   0.25026   0.00000  Uiso   1.00
C486   C     0.37611   0.83333   0.24974   0.00000  Uiso   1.00
C487   C     0.47398   0.69141   0.22219   0.00000  Uiso   1.00
C488   C     0.52602   0.97526   0.27781   0.00000  Uiso   1.00
C489   C     0.52605   0.69150   0.27778   0.00000  Uiso   1.00
C490   C     0.47395   0.97517   0.22222   0.00000  Uiso   1.00
C491   C     0.49990   0.83325   0.16474   0.00000  Uiso   1.00
C492   C     0.50010   0.83342   0.33525   0.00000  Uiso   1.00
C493   C     0.53848   0.82911   0.40720   0.00000  Uiso   1.00
C494   C     0.46152   0.83755   0.09280   0.00000  Uiso   1.00
C495   C     0.50073   0.83385   0.38342   0.00000  Uiso   1.00
C496   C     0.49927   0.83282   0.11658   0.00000  Uiso   1.00
C497   C     0.46337   0.83911   0.40528   0.00000  Uiso   1.00
C498   C     0.53663   0.82755   0.09472   0.00000  Uiso   1.00
C499   C     0.46312   0.83931   0.45186   0.00000  Uiso   1.00
C500   C     0.53688   0.82735   0.04814   0.00000  Uiso   1.00
C501   C     0.50041   0.83342   0.47647   0.00000  Uiso   1.00
C502   C     0.49959   0.83325   0.02353   0.00000  Uiso   1.00
C503   C     0.53843   0.82781   0.45416   0.00000  Uiso   1.00
C504   C     0.46157   0.83886   0.04584   0.00000  Uiso   1.00
C505   C     0.42606   0.84530   0.47420   0.00000  Uiso   1.00
C506   C     0.57394   0.82136   0.02580   0.00000  Uiso   1.00
Cu507  Cu    0.50000   0.88022   0.25000   0.00000  Uiso   1.00
Cu508  Cu    0.50000   0.78645   0.25000   0.00000  Uiso   1.00
H509   H     0.39732   0.85032   0.45584   0.00000  Uiso   1.00
H510   H     0.60268   0.81635   0.04416   0.00000  Uiso   1.00
H511   H     0.37064   0.75809   0.25013   0.00000  Uiso   1.00
H512   H     0.62936   0.90857   0.24987   0.00000  Uiso   1.00
H513   H     0.62937   0.75810   0.25042   0.00000  Uiso   1.00
H514   H     0.37063   0.90857   0.24958   0.00000  Uiso   1.00
N515   N     0.50000   0.95069   0.25000   0.00000  Uiso   1.00
N516   N     0.50000   0.71598   0.25000   0.00000  Uiso   1.00
O517   O     0.43988   0.87291   0.24999   0.00000  Uiso   1.00
O518   O     0.56012   0.79375   0.25000   0.00000  Uiso   1.00
O519   O     0.56012   0.87291   0.25000   0.00000  Uiso   1.00
O520   O     0.43988   0.79375   0.24999   0.00000  Uiso   1.00
O521   O     0.49999   0.87293   0.18513   0.00000  Uiso   1.00
O522   O     0.50001   0.79373   0.31487   0.00000  Uiso   1.00
O523   O     0.50001   0.87293   0.31487   0.00000  Uiso   1.00
O524   O     0.49999   0.79373   0.18513   0.00000  Uiso   1.00
O525   O     0.57562   0.82591   0.38555   0.00000  Uiso   1.00
H526   H     0.57250   0.83370   0.35378   0.00000  Uiso   1.00
O527   O     0.42438   0.84075   0.11445   0.00000  Uiso   1.00
H528   H     0.42750   0.83297   0.14622   0.00000  Uiso   1.00
C529   C     0.42526   0.84412   0.37935   0.00000  Uiso   1.00
N530   N     0.39492   0.84811   0.35882   0.00000  Uiso   1.00
C531   C     0.57474   0.82255   0.12065   0.00000  Uiso   1.00
N532   N     0.60508   0.81855   0.14118   0.00000  Uiso   1.00
C533   C     0.38457   0.85251   0.03886   0.00000  Uiso   1.00
N534   N     0.35234   0.85836   0.05358   0.00000  Uiso   1.00
C535   C     0.61543   0.81416   0.46114   0.00000  Uiso   1.00
N536   N     0.64767   0.80830   0.44642   0.00000  Uiso   1.00
C537   C     0.44624   0.71594   0.19235   0.00000  Uiso   1.00
N538   N     0.42386   0.73515   0.16825   0.00000  Uiso   1.00
C539   C     0.55376   0.95072   0.30765   0.00000  Uiso   1.00
N540   N     0.57614   0.93151   0.33174   0.00000  Uiso   1.00
C541   C     0.55406   0.71606   0.30739   0.00000  Uiso   1.00
N542   N     0.57673   0.73521   0.33129   0.00000  Uiso   1.00
C543   C     0.44594   0.95061   0.19261   0.00000  Uiso   1.00
N544   N     0.42327   0.93145   0.16871   0.00000  Uiso   1.00
C545   C     0.75410   0.83333   0.24981   0.00000  Uiso   1.00
C546   C     0.91257   0.83333   0.25019   0.00000  Uiso   1.00
C547   C     0.75810   0.84524   0.02014   0.00000  Uiso   1.00
C548   C     0.90856   0.82142   0.47986   0.00000  Uiso   1.00
C549   C     0.68797   0.79111   0.25003   0.00000  Uiso   1.00
C550   C     0.97870   0.87555   0.24997   0.00000  Uiso   1.00
C551   C     0.97870   0.79112   0.25029   0.00000  Uiso   1.00
C552   C     0.68796   0.87555   0.24971   0.00000  Uiso   1.00
C553   C     0.95723   0.83334   0.25026   0.00000  Uiso   1.00
C554   C     0.70944   0.83333   0.24974   0.00000  Uiso   1.00
C555   C     0.80731   0.69141   0.22219   0.00000  Uiso   1.00
C556   C     0.85935   0.97526   0.27781   0.00000  Uiso   1.00
C557   C     0.85939   0.69150   0.27778   0.00000  Uiso   1.00
C558   C     0.80728   0.97517   0.22222   0.00000  Uiso   1.00
C559   C     0.83324   0.83325   0.16474   0.00000  Uiso   1.00
C560   C     0.83343   0.83342   0.33525   0.00000  Uiso   1.00
C561   C     0.87181   0.82911   0.40720   0.00000  Uiso   1.00
C562   C     0.79486   0.83755   0.09280   0.00000  Uiso   1.00
C563   C     0.83407   0.83385   0.38342   0.00000  Uiso   1.00
C564   C     0.83260   0.83282   0.11658   0.00000  Uiso   1.00
C565   C     0.79671   0.83911   0.40528   0.00000  Uiso   1.00
C566   C     0.86996   0.82755   0.09472   0.00000  Uiso   1.00
C567   C     0.79646   0.83931   0.45186   0.00000  Uiso   1.00
C568   C     0.87021   0.82735   0.04814   0.00000  Uiso   1.00
C569   C     0.83374   0.83342   0.47647   0.00000  Uiso   1.00
C570   C     0.83292   0.83325   0.02353   0.00000  Uiso   1.00
C571   C     0.87177   0.82781   0.45416   0.00000  Uiso   1.00
C572   C     0.79490   0.83886   0.04584   0.00000  Uiso   1.00
C573   C     0.75940   0.84530   0.47420   0.00000  Uiso   1.00
C574   C     0.90727   0.82136   0.02580   0.00000  Uiso   1.00
Cu575  Cu    0.83333   0.88022   0.25000   0.00000  Uiso   1.00
Cu576  Cu    0.83333   0.78645   0.25000   0.00000  Uiso   1.00
H577   H     0.73065   0.85032   0.45584   0.00000  Uiso   1.00
H578   H     0.93602   0.81635   0.04416   0.00000  Uiso   1.00
H579   H     0.70398   0.75809   0.25013   0.00000  Uiso   1.00
H580   H     0.96269   0.90857   0.24987   0.00000  Uiso   1.00
H581   H     0.96270   0.75810   0.25042   0.00000  Uiso   1.00
H582   H     0.70397   0.90857   0.24958   0.00000  Uiso   1.00
N583   N     0.83333   0.95069   0.25000   0.00000  Uiso   1.00
N584   N     0.83333   0.71598   0.25000   0.00000  Uiso   1.00
O585   O     0.77321   0.87291   0.24999   0.00000  Uiso   1.00
O586   O     0.89345   0.79375   0.25000   0.00000  Uiso   1.00
O587   O     0.89345   0.87291   0.25000   0.00000  Uiso   1.00
O588   O     0.77321   0.79375   0.24999   0.00000  Uiso   1.00
O589   O     0.83332   0.87293   0.18513   0.00000  Uiso   1.00
O590   O     0.83334   0.79373   0.31487   0.00000  Uiso   1.00
O591   O     0.83334   0.87293   0.31487   0.00000  Uiso   1.00
O592   O     0.83332   0.79373   0.18513   0.00000  Uiso   1.00
O593   O     0.90896   0.82591   0.38555   0.00000  Uiso   1.00
H594   H     0.90583   0.83370   0.35378   0.00000  Uiso   1.00
O595   O     0.75771   0.84075   0.11445   0.00000  Uiso   1.00
H596   H     0.76084   0.83297   0.14622   0.00000  Uiso   1.00
C597   C     0.75860   0.84412   0.37935   0.00000  Uiso   1.00
N598   N     0.72826   0.84811   0.35882   0.00000  Uiso   1.00
C599   C     0.90807   0.82255   0.12065   0.00000  Uiso   1.00
N600   N     0.93841   0.81855   0.14118   0.00000  Uiso   1.00
C601   C     0.71790   0.85251   0.03886   0.00000  Uiso   1.00
N602   N     0.68567   0.85836   0.05358   0.00000  Uiso   1.00
C603   C     0.94877   0.81416   0.46114   0.00000  Uiso   1.00
N604   N     0.98100   0.80830   0.44642   0.00000  Uiso   1.00
C605   C     0.77958   0.71594   0.19235   0.00000  Uiso   1.00
N606   N     0.75719   0.73515   0.16825   0.00000  Uiso   1.00
C607   C     0.88709   0.95072   0.30765   0.00000  Uiso   1.00
N608   N     0.90948   0.93151   0.33174   0.00000  Uiso   1.00
C609   C     0.88739   0.71606   0.30739   0.00000  Uiso   1.00
N610   N     0.91006   0.73521   0.33129   0.00000  Uiso   1.00
C611   C     0.77928   0.95061   0.19261   0.00000  Uiso   1.00
N612   N     0.75660   0.93145   0.16871   0.00000  Uiso   1.00
C613   C     0.08743   0.16666   0.74981   0.00000  Uiso   1.00
C614   C     0.24590   0.16667   0.75019   0.00000  Uiso   1.00
C615   C     0.09144   0.17858   0.52014   0.00000  Uiso   1.00
C616   C     0.24190   0.15476   0.97986   0.00000  Uiso   1.00
C617   C     0.02130   0.12445   0.75003   0.00000  Uiso   1.00
C618   C     0.31203   0.20889   0.74997   0.00000  Uiso   1.00
C619   C     0.31204   0.12445   0.75029   0.00000  Uiso   1.00
C620   C     0.02130   0.20888   0.74971   0.00000  Uiso   1.00
C621   C     0.29056   0.16667   0.75026   0.00000  Uiso   1.00
C622   C     0.04278   0.16666   0.74974   0.00000  Uiso   1.00
C623   C     0.14065   0.02474   0.72219   0.00000  Uiso   1.00
C624   C     0.19269   0.30859   0.77781   0.00000  Uiso   1.00
C625   C     0.19272   0.02483   0.77778   0.00000  Uiso   1.00
C626   C     0.14062   0.30850   0.72222   0.00000  Uiso   1.00
C627   C     0.16657   0.16658   0.66474   0.00000  Uiso   1.00
C628   C     0.16676   0.16675   0.83525   0.00000  Uiso   1.00
C629   C     0.20514   0.16245   0.90720   0.00000  Uiso   1.00
C630   C     0.12819   0.17089   0.59280   0.00000  Uiso   1.00
C631   C     0.16740   0.16718   0.88342   0.00000  Uiso   1.00
C632   C     0.16593   0.16615   0.61658   0.00000  Uiso   1.00
C633   C     0.13004   0.17245   0.90528   0.00000  Uiso   1.00
C634   C     0.20329   0.16089   0.59472   0.00000  Uiso   1.00
C635   C     0.12979   0.17265   0.95186   0.00000  Uiso   1.00
C636   C     0.20354   0.16069   0.54814   0.00000  Uiso   1.00
C637   C     0.16708   0.16675   0.97647   0.00000  Uiso   1.00
C638   C     0.16626   0.16658   0.52353   0.00000  Uiso   1.00
C639   C     0.20510   0.16114   0.95416   0.00000  Uiso   1.00
C640   C     0.12823   0.17219   0.54584   0.00000  Uiso   1.00
C641   C     0.09273   0.17864   0.97420   0.00000  Uiso   1.00
C642   C     0.24060   0.15469   0.52580   0.00000  Uiso   1.00
Cu643  Cu    0.16667   0.21355   0.75000   0.00000  Uiso   1.00
Cu644  Cu    0.16667   0.11978   0.75000   0.00000  Uiso   1.00
H645   H     0.06399   0.18365   0.95584   0.00000  Uiso   1.00
H646   H     0.26935   0.14968   0.54416   0.00000  Uiso   1.00
H647   H     0.03731   0.09143   0.75013   0.00000  Uiso   1.00
H648   H     0.29603   0.24191   0.74987   0.00000  Uiso   1.00
H649   H     0.29603   0.09143   0.75042   0.00000  Uiso   1.00
H650   H     0.03730   0.24190   0.74958   0.00000  Uiso   1.00
N651   N     0.16667   0.28402   0.75000   0.00000  Uiso   1.00
N652   N     0.16667   0.04931   0.75000   0.00000  Uiso   1.00
O653   O     0.10655   0.20625   0.74999   0.00000  Uiso   1.00
O654   O     0.22679   0.12709   0.75000   0.00000  Uiso   1.00
O655   O     0.22679   0.20625   0.75000   0.00000  Uiso   1.00
O656   O     0.10655   0.12709   0.74999   0.00000  Uiso   1.00
O657   O     0.16666   0.20627   0.68513   0.00000  Uiso   1.00
O658   O     0.16668   0.12707   0.81487   0.00000  Uiso   1.00
O659   O     0.16668   0.20627   0.81487   0.00000  Uiso   1.00
O660   O     0.16666   0.12707   0.68513   0.00000  Uiso   1.00
O661   O     0.24229   0.15924   0.88555   0.00000  Uiso   1.00
H662   H     0.23916   0.16703   0.85378   0.00000  Uiso   1.00
O663   O     0.09104   0.17409   0.61445   0.00000  Uiso   1.00
H664   H     0.09417   0.16630   0.64622   0.00000  Uiso   1.00
C665   C     0.09193   0.17745   0.87935   0.00000  Uiso   1.00
N666   N     0.06159   0.18145   0.85882   0.00000  Uiso   1.00
C667   C     0.24140   0.15588   0.62065   0.00000  Uiso   1.00
N668   N     0.27174   0.15189   0.64118   0.00000  Uiso   1.00
C669   C     0.05123   0.18584   0.53886   0.00000  Uiso   1.00
N670   N     0.01900   0.19170   0.55358   0.00000  Uiso   1.00
C671   C     0.28210   0.14749   0.96114   0.00000  Uiso   1.00
N672   N     0.31433   0.14164   0.94642   0.00000  Uiso   1.00
C673   C     0.11291   0.04928   0.69235   0.00000  Uiso   1.00
N674   N     0.09053   0.06849   0.66825   0.00000  Uiso   1.00
C675   C     0.22042   0.28406   0.80765   0.00000  Uiso   1.00
N676   N     0.24281   0.26484   0.83174   0.00000  Uiso   1.00
C677   C     0.22072   0.04939   0.80739   0.00000  Uiso   1.00
N678   N     0.24340   0.06854   0.83129   0.00000  Uiso   1.00
C679   C     0.11261   0.28394   0.69261   0.00000  Uiso   1.00
N680   N     0.08994   0.26479   0.66871   0.00000  Uiso   1.00
C681   C     0.42077   0.16666   0.74981   0.00000  Uiso   1.00
C682   C     0.57923   0.16667   0.75019   0.00000  Uiso   1.00
C683   C     0.42477   0.17858   0.52014   0.00000  Uiso   1.00
C684   C     0.57523   0.15476   0.97986   0.00000  Uiso   1.00
C685   C     0.35464   0.12445   0.75003   0.00000  Uiso   1.00
C686   C     0.64536   0.20889   0.74997   0.00000  Uiso   1.00
C687   C     0.64537   0.12445   0.75029   0.00000  Uiso   1.00
C688   C     0.35463   0.20888   0.74971   0.00000  Uiso   1.00
C689   C     0.62389   0.16667   0.75026   0.00000  Uiso   1.00
C690   C     0.37611   0.16666   0.74974   0.00000  Uiso   1.00
C691   C     0.47398   0.02474   0.72219   0.00000  Uiso   1.00
C692   C     0.52602   0.30859   0.77781   0.00000  Uiso   1.00
C693   C     0.52605   0.02483   0.77778   0.00000  Uiso   1.00
C694   C     0.47395   0.30850   0.72222   0.00000  Uiso   1.00
C695   C     0.49990   0.16658   0.66474   0.00000  Uiso   1.00
C696   C     0.50010   0.16675   0.83525   0.00000  Uiso   1.00
C697   C     0.53848   0.16245   0.90720   0.00000  Uiso   1.00
C698   C     0.46152   0.17089   0.59280   0.00000  Uiso   1.00
C699   C     0.50073   0.16718   0.88342   0.00000  Uiso   1.00
C700   C     0.49927   0.16615   0.61658   0.00000  Uiso   1.00
C701   C     0.46337   0.17245   0.90528   0.00000  Uiso   1.00
C702   C     0.53663   0.16089   0.59472   0.00000  Uiso   1.00
C703   C     0.46312   0.17265   0.95186   0.00000  Uiso   1.00
C704   C     0.53688   0.16069   0.54814   0.00000  Uiso   1.00
C705   C     0.50041   0.16675   0.97647   0.00000  Uiso   1.00
C706   C     0.49959   0.16658   0.52353   0.00000  Uiso   1.00
C707   C     0.53843   0.16114   0.95416   0.00000  Uiso   1.00
C708   C     0.46157   0.17219   0.54584   0.00000  Uiso   1.00
C709   C     0.42606   0.17864   0.97420   0.00000  Uiso   1.00
C710   C     0.57394   0.15469   0.52580   0.00000  Uiso   1.00
Cu711  Cu    0.50000   0.21355   0.75000   0.00000  Uiso   1.00
Cu712  Cu    0.50000   0.11978   0.75000   0.00000  Uiso   1.00
H713   H     0.39732   0.18365   0.95584   0.00000  Uiso   1.00
H714   H     0.60268   0.14968   0.54416   0.00000  Uiso   1.00
H715   H     0.37064   0.09143   0.75013   0.00000  Uiso   1.00
H716   H     0.62936   0.24191   0.74987   0.00000  Uiso   1.00
H717   H     0.62937   0.09143   0.75042   0.00000  Uiso   1.00
H718   H     0.37063   0.24190   0.74958   0.00000  Uiso   1.00
N719   N     0.50000   0.28402   0.75000   0.00000  Uiso   1.00
N720   N     0.50000   0.04931   0.75000   0.00000  Uiso   1.00
O721   O     0.43988   0.20625   0.74999   0.00000  Uiso   1.00
O722   O     0.56012   0.12709   0.75000   0.00000  Uiso   1.00
O723   O     0.56012   0.20625   0.75000   0.00000  Uiso   1.00
O724   O     0.43988   0.12709   0.74999   0.00000  Uiso   1.00
O725   O     0.49999   0.20627   0.68513   0.00000  Uiso   1.00
O726   O     0.50001   0.12707   0.81487   0.00000  Uiso   1.00
O727   O     0.50001   0.20627   0.81487   0.00000  Uiso   1.00
O728   O     0.49999   0.12707   0.68513   0.00000  Uiso   1.00
O729   O     0.57562   0.15924   0.88555   0.00000  Uiso   1.00
H730   H     0.57250   0.16703   0.85378   0.00000  Uiso   1.00
O731   O     0.42438   0.17409   0.61445   0.00000  Uiso   1.00
H732   H     0.42750   0.16630   0.64622   0.00000  Uiso   1.00
C733   C     0.42526   0.17745   0.87935   0.00000  Uiso   1.00
N734   N     0.39492   0.18145   0.85882   0.00000  Uiso   1.00
C735   C     0.57474   0.15588   0.62065   0.00000  Uiso   1.00
N736   N     0.60508   0.15189   0.64118   0.00000  Uiso   1.00
C737   C     0.38457   0.18584   0.53886   0.00000  Uiso   1.00
N738   N     0.35234   0.19170   0.55358   0.00000  Uiso   1.00
C739   C     0.61543   0.14749   0.96114   0.00000  Uiso   1.00
N740   N     0.64767   0.14164   0.94642   0.00000  Uiso   1.00
C741   C     0.44624   0.04928   0.69235   0.00000  Uiso   1.00
N742   N     0.42386   0.06849   0.66825   0.00000  Uiso   1.00
C743   C     0.55376   0.28406   0.80765   0.00000  Uiso   1.00
N744   N     0.57614   0.26484   0.83174   0.00000  Uiso   1.00
C745   C     0.55406   0.04939   0.80739   0.00000  Uiso   1.00
N746   N     0.57673   0.06854   0.83129   0.00000  Uiso   1.00
C747   C     0.44594   0.28394   0.69261   0.00000  Uiso   1.00
N748   N     0.42327   0.26479   0.66871   0.00000  Uiso   1.00
C749   C     0.75410   0.16666   0.74981   0.00000  Uiso   1.00
C750   C     0.91257   0.16667   0.75019   0.00000  Uiso   1.00
C751   C     0.75810   0.17858   0.52014   0.00000  Uiso   1.00
C752   C     0.90856   0.15476   0.97986   0.00000  Uiso   1.00
C753   C     0.68797   0.12445   0.75003   0.00000  Uiso   1.00
C754   C     0.97870   0.20889   0.74997   0.00000  Uiso   1.00
C755   C     0.97870   0.12445   0.75029   0.00000  Uiso   1.00
C756   C     0.68796   0.20888   0.74971   0.00000  Uiso   1.00
C757   C     0.95723   0.16667   0.75026   0.00000  Uiso   1.00
C758   C     0.70944   0.16666   0.74974   0.00000  Uiso   1.00
C759   C     0.80731   0.02474   0.72219   0.00000  Uiso   1.00
C760   C     0.85935   0.30859   0.77781   0.00000  Uiso   1.00
C761   C     0.85939   0.02483   0.77778   0.00000  Uiso   1.00
C762   C     0.80728   0.30850   0.72222   0.00000  Uiso   1.00
C763   C     0.83324   0.16658   0.66474   0.00000  Uiso   1.00
C764   C     0.83343   0.16675   0.83525   0.00000  Uiso   1.00
C765   C     0.87181   0.16245   0.90720   0.00000  Uiso   1.00
C766   C     0.79486   0.17089   0.59280   0.00000  Uiso   1.00
C767   C     0.83407   0.16718   0.88342   0.00000  Uiso   1.00
C768   C     0.83260   0.16615   0.61658   0.00000  Uiso   1.00
C769   C     0.79671   0.17245   0.90528   0.00000  Uiso   1.00
C770   C     0.86996   0.16089   0.59472   0.00000  Uiso   1.00
C771   C     0.79646   0.17265   0.95186   0.00000  Uiso   1.00
C772   C     0.87021   0.16069   0.54814   0.00000  Uiso   1.00
C773   C     0.83374   0.16675   0.97647   0.00000  Uiso   1.00
C774   C     0.83292   0.16658   0.52353   0.00000  Uiso   1.00
C775   C     0.87177   0.16114   0.95416   0.00000  Uiso   1.00
C776   C     0.79490   0.17219   0.54584   0.00000  Uiso   1.00
C777   C     0.75940   0.17864   0.97420   0.00000  Uiso   1.00
C778   C     0.90727   0.15469   0.52580   0.00000  Uiso   1.00
Cu779  Cu    0.83333   0.21355   0.75000   0.00000  Uiso   1.00
Cu780  Cu    0.83333   0.11978   0.75000   0.00000  Uiso   1.00
H781   H     0.73065   0.18365   0.95584   0.00000  Uiso   1.00
H782   H     0.93602   0.14968   0.54416   0.00000  Uiso   1.00
H783   H     0.70398   0.09143   0.75013   0.00000  Uiso   1.00
H784   H     0.96269   0.24191   0.74987   0.00000  Uiso   1.00
H785   H     0.96270   0.09143   0.75042   0.00000  Uiso   1.00
H786   H     0.70397   0.24190   0.74958   0.00000  Uiso   1.00
N787   N     0.83333   0.28402   0.75000   0.00000  Uiso   1.00
N788   N     0.83333   0.04931   0.75000   0.00000  Uiso   1.00
O789   O     0.77321   0.20625   0.74999   0.00000  Uiso   1.00
O790   O     0.89345   0.12709   0.75000   0.00000  Uiso   1.00
O791   O     0.89345   0.20625   0.75000   0.00000  Uiso   1.00
O792   O     0.77321   0.12709   0.74999   0.00000  Uiso   1.00
O793   O     0.83332   0.20627   0.68513   0.00000  Uiso   1.00
O794   O     0.83334   0.12707   0.81487   0.00000  Uiso   1.00
O795   O     0.83334   0.20627   0.81487   0.00000  Uiso   1.00
O796   O     0.83332   0.12707   0.68513   0.00000  Uiso   1.00
O797   O     0.90896   0.15924   0.88555   0.00000  Uiso   1.00
H798   H     0.90583   0.16703   0.85378   0.00000  Uiso   1.00
O799   O     0.75771   0.17409   0.61445   0.00000  Uiso   1.00
H800   H     0.76084   0.16630   0.64622   0.00000  Uiso   1.00
C801   C     0.75860   0.17745   0.87935   0.00000  Uiso   1.00
N802   N     0.72826   0.18145   0.85882   0.00000  Uiso   1.00
C803   C     0.90807   0.15588   0.62065   0.00000  Uiso   1.00
N804   N     0.93841   0.15189   0.64118   0.00000  Uiso   1.00
C805   C     0.71790   0.18584   0.53886   0.00000  Uiso   1.00
N806   N     0.68567   0.19170   0.55358   0.00000  Uiso   1.00
C807   C     0.94877   0.14749   0.96114   0.00000  Uiso   1.00
N808   N     0.98100   0.14164   0.94642   0.00000  Uiso   1.00
C809   C     0.77958   0.04928   0.69235   0.00000  Uiso   1.00
N810   N     0.75719   0.06849   0.66825   0.00000  Uiso   1.00
C811   C     0.88709   0.28406   0.80765   0.00000  Uiso   1.00
N812   N     0.90948   0.26484   0.83174   0.00000  Uiso   1.00
C813   C     0.88739   0.04939   0.80739   0.00000  Uiso   1.00
N814   N     0.91006   0.06854   0.83129   0.00000  Uiso   1.00
C815   C     0.77928   0.28394   0.69261   0.00000  Uiso   1.00
N816   N     0.75660   0.26479   0.66871   0.00000  Uiso   1.00
C817   C     0.08743   0.50000   0.74981   0.00000  Uiso   1.00
C818   C     0.24590   0.50000   0.75019   0.00000  Uiso   1.00
C819   C     0.09144   0.51191   0.52014   0.00000  Uiso   1.00
C820   C     0.24190   0.48809   0.97986   0.00000  Uiso   1.00
C821   C     0.02130   0.45778   0.75003   0.00000  Uiso   1.00
C822   C     0.31203   0.54222   0.74997   0.00000  Uiso   1.00
C823   C     0.31204   0.45778   0.75029   0.00000  Uiso   1.00
C824   C     0.02130   0.54222   0.74971   0.00000  Uiso   1.00
C825   C     0.29056   0.50000   0.75026   0.00000  Uiso   1.00
C826   C     0.04278   0.50000   0.74974   0.00000  Uiso   1.00
C827   C     0.14065   0.35807   0.72219   0.00000  Uiso   1.00
C828   C     0.19269   0.64192   0.77781   0.00000  Uiso   1.00
C829   C     0.19272   0.35816   0.77778   0.00000  Uiso   1.00
C830   C     0.14062   0.64184   0.72222   0.00000  Uiso   1.00
C831   C     0.16657   0.49991   0.66474   0.00000  Uiso   1.00
C832   C     0.16676   0.50009   0.83525   0.00000  Uiso   1.00
C833   C     0.20514   0.49578   0.90720   0.00000  Uiso   1.00
C834   C     0.12819   0.50422   0.59280   0.00000  Uiso   1.00
C835   C     0.16740   0.50052   0.88342   0.00000  Uiso   1.00
C836   C     0.16593   0.49948   0.61658   0.00000  Uiso   1.00
C837   C     0.13004   0.50578   0.90528   0.00000  Uiso   1.00
C838   C     0.20329   0.49422   0.59472   0.00000  Uiso   1.00
C839   C     0.12979   0.50598   0.95186   0.00000  Uiso   1.00
C840   C     0.20354   0.49402   0.54814   0.00000  Uiso   1.00
C841   C     0.16708   0.50009   0.97647   0.00000  Uiso   1.00
C842   C     0.16626   0.49991   0.52353   0.00000  Uiso   1.00
C843   C     0.20510   0.49447   0.95416   0.00000  Uiso   1.00
C844   C     0.12823   0.50552   0.54584   0.00000  Uiso   1.00
C845   C     0.09273   0.51197   0.97420   0.00000  Uiso   1.00
C846   C     0.24060   0.48803   0.52580   0.00000  Uiso   1.00
Cu847  Cu    0.16667   0.54689   0.75000   0.00000  Uiso   1.00
Cu848  Cu    0.16667   0.45311   0.75000   0.00000  Uiso   1.00
H849   H     0.06399   0.51699   0.95584   0.00000  Uiso   1.00
H850   H     0.26935   0.48301   0.54416   0.00000  Uiso   1.00
H851   H     0.03731   0.42476   0.75013   0.00000  Uiso   1.00
H852   H     0.29603   0.57524   0.74987   0.00000  Uiso   1.00
H853   H     0.29603   0.42476   0.75042   0.00000  Uiso   1.00
H854   H     0.03730   0.57524   0.74958   0.00000  Uiso   1.00
N855   N     0.16667   0.61736   0.75000   0.00000  Uiso   1.00
N856   N     0.16667   0.38264   0.75000   0.00000  Uiso   1.00
O857   O     0.10655   0.53958   0.74999   0.00000  Uiso   1.00
O858   O     0.22679   0.46042   0.75000   0.00000  Uiso   1.00
O859   O     0.22679   0.53958   0.75000   0.00000  Uiso   1.00
O860   O     0.10655   0.46042   0.74999   0.00000  Uiso   1.00
O861   O     0.16666   0.53960   0.68513   0.00000  Uiso   1.00
O862   O     0.16668   0.46040   0.81487   0.00000  Uiso   1.00
O863   O     0.16668   0.53960   0.81487   0.00000  Uiso   1.00
O864   O     0.16666   0.46040   0.68513   0.00000  Uiso   1.00
O865   O     0.24229   0.49258   0.88555   0.00000  Uiso   1.00
H866   H     0.23916   0.50037   0.85378   0.00000  Uiso   1.00
O867   O     0.09104   0.50742   0.61445   0.00000  Uiso   1.00
H868   H     0.09417   0.49963   0.64622   0.00000  Uiso   1.00
C869   C     0.09193   0.51079   0.87935   0.00000  Uiso   1.00
N870   N     0.06159   0.51478   0.85882   0.00000  Uiso   1.00
C871   C     0.24140   0.48921   0.62065   0.00000  Uiso   1.00
N872   N     0.27174   0.48522   0.64118   0.00000  Uiso   1.00
C873   C     0.05123   0.51917   0.53886   0.00000  Uiso   1.00
N874   N     0.01900   0.52503   0.55358   0.00000  Uiso   1.00
C875   C     0.28210   0.48083   0.96114   0.00000  Uiso   1.00
N876   N     0.31433   0.47497   0.94642   0.00000  Uiso   1.00
C877   C     0.11291   0.38261   0.69235   0.00000  Uiso   1.00
N878   N     0.09053   0.40182   0.66825   0.00000  Uiso   1.00
C879   C     0.22042   0.61739   0.80765   0.00000  Uiso   1.00
N880   N     0.24281   0.59818   0.83174   0.00000  Uiso   1.00
C881   C     0.22072   0.38273   0.80739   0.00000  Uiso   1.00
N882   N     0.24340   0.40188   0.83129   0.00000  Uiso   1.00
C883   C     0.11261   0.61727   0.69261   0.00000  Uiso   1.00
N884   N     0.08994   0.59812   0.66871   0.00000  Uiso   1.00
C885   C     0.42077   0.50000   0.74981   0.00000  Uiso   1.00
C886   C     0.57923   0.50000   0.75019   0.00000  Uiso   1.00
C887   C     0.42477   0.51191   0.52014   0.00000  Uiso   1.00
C888   C     0.57523   0.48809   0.97986   0.00000  Uiso   1.00
C889   C     0.35464   0.45778   0.75003   0.00000  Uiso   1.00
C890   C     0.64536   0.54222   0.74997   0.00000  Uiso   1.00
C891   C     0.64537   0.45778   0.75029   0.00000  Uiso   1.00
C892   C     0.35463   0.54222   0.74971   0.00000  Uiso   1.00
C893   C     0.62389   0.50000   0.75026   0.00000  Uiso   1.00
C894   C     0.37611   0.50000   0.74974   0.00000  Uiso   1.00
C895   C     0.47398   0.35807   0.72219   0.00000  Uiso   1.00
C896   C     0.52602   0.64192   0.77781   0.00000  Uiso   1.00
C897   C     0.52605   0.35816   0.77778   0.00000  Uiso   1.00
C898   C     0.47395   0.64184   0.72222   0.00000  Uiso   1.00
C899   C     0.49990   0.49991   0.66474   0.00000  Uiso   1.00
C900   C     0.50010   0.50009   0.83525   0.00000  Uiso   1.00
C901   C     0.53848   0.49578   0.90720   0.00000  Uiso   1.00
C902   C     0.46152   0.50422   0.59280   0.00000  Uiso   1.00
C903   C     0.50073   0.50052   0.88342   0.00000  Uiso   1.00
C904   C     0.49927   0.49948   0.61658   0.00000  Uiso   1.00
C905   C     0.46337   0.50578   0.90528   0.00000  Uiso   1.00
C906   C     0.53663   0.49422   0.59472   0.00000  Uiso   1.00
C907   C     0.46312   0.50598   0.95186   0.00000  Uiso   1.00
C908   C     0.53688   0.49402   0.54814   0.00000  Uiso   1.00
C909   C     0.50041   0.50009   0.97647   0.00000  Uiso   1.00
C910   C     0.49959   0.49991   0.52353   0.00000  Uiso   1.00
C911   C     0.53843   0.49447   0.95416   0.00000  Uiso   1.00
C912   C     0.46157   0.50552   0.54584   0.00000  Uiso   1.00
C913   C     0.42606   0.51197   0.97420   0.00000  Uiso   1.00
C914   C     0.57394   0.48803   0.52580   0.00000  Uiso   1.00
Cu915  Cu    0.50000   0.54689   0.75000   0.00000  Uiso   1.00
Cu916  Cu    0.50000   0.45311   0.75000   0.00000  Uiso   1.00
H917   H     0.39732   0.51699   0.95584   0.00000  Uiso   1.00
H918   H     0.60268   0.48301   0.54416   0.00000  Uiso   1.00
H919   H     0.37064   0.42476   0.75013   0.00000  Uiso   1.00
H920   H     0.62936   0.57524   0.74987   0.00000  Uiso   1.00
H921   H     0.62937   0.42476   0.75042   0.00000  Uiso   1.00
H922   H     0.37063   0.57524   0.74958   0.00000  Uiso   1.00
N923   N     0.50000   0.61736   0.75000   0.00000  Uiso   1.00
N924   N     0.50000   0.38264   0.75000   0.00000  Uiso   1.00
O925   O     0.43988   0.53958   0.74999   0.00000  Uiso   1.00
O926   O     0.56012   0.46042   0.75000   0.00000  Uiso   1.00
O927   O     0.56012   0.53958   0.75000   0.00000  Uiso   1.00
O928   O     0.43988   0.46042   0.74999   0.00000  Uiso   1.00
O929   O     0.49999   0.53960   0.68513   0.00000  Uiso   1.00
O930   O     0.50001   0.46040   0.81487   0.00000  Uiso   1.00
O931   O     0.50001   0.53960   0.81487   0.00000  Uiso   1.00
O932   O     0.49999   0.46040   0.68513   0.00000  Uiso   1.00
O933   O     0.57562   0.49258   0.88555   0.00000  Uiso   1.00
H934   H     0.57250   0.50037   0.85378   0.00000  Uiso   1.00
O935   O     0.42438   0.50742   0.61445   0.00000  Uiso   1.00
H936   H     0.42750   0.49963   0.64622   0.00000  Uiso   1.00
C937   C     0.42526   0.51079   0.87935   0.00000  Uiso   1.00
N938   N     0.39492   0.51478   0.85882   0.00000  Uiso   1.00
C939   C     0.57474   0.48921   0.62065   0.00000  Uiso   1.00
N940   N     0.60508   0.48522   0.64118   0.00000  Uiso   1.00
C941   C     0.38457   0.51917   0.53886   0.00000  Uiso   1.00
N942   N     0.35234   0.52503   0.55358   0.00000  Uiso   1.00
C943   C     0.61543   0.48083   0.96114   0.00000  Uiso   1.00
N944   N     0.64767   0.47497   0.94642   0.00000  Uiso   1.00
C945   C     0.44624   0.38261   0.69235   0.00000  Uiso   1.00
N946   N     0.42386   0.40182   0.66825   0.00000  Uiso   1.00
C947   C     0.55376   0.61739   0.80765   0.00000  Uiso   1.00
N948   N     0.57614   0.59818   0.83174   0.00000  Uiso   1.00
C949   C     0.55406   0.38273   0.80739   0.00000  Uiso   1.00
N950   N     0.57673   0.40188   0.83129   0.00000  Uiso   1.00
C951   C     0.44594   0.61727   0.69261   0.00000  Uiso   1.00
N952   N     0.42327   0.59812   0.66871   0.00000  Uiso   1.00
C953   C     0.75410   0.50000   0.74981   0.00000  Uiso   1.00
C954   C     0.91257   0.50000   0.75019   0.00000  Uiso   1.00
C955   C     0.75810   0.51191   0.52014   0.00000  Uiso   1.00
C956   C     0.90856   0.48809   0.97986   0.00000  Uiso   1.00
C957   C     0.68797   0.45778   0.75003   0.00000  Uiso   1.00
C958   C     0.97870   0.54222   0.74997   0.00000  Uiso   1.00
C959   C     0.97870   0.45778   0.75029   0.00000  Uiso   1.00
C960   C     0.68796   0.54222   0.74971   0.00000  Uiso   1.00
C961   C     0.95723   0.50000   0.75026   0.00000  Uiso   1.00
C962   C     0.70944   0.50000   0.74974   0.00000  Uiso   1.00
C963   C     0.80731   0.35807   0.72219   0.00000  Uiso   1.00
C964   C     0.85935   0.64192   0.77781   0.00000  Uiso   1.00
C965   C     0.85939   0.35816   0.77778   0.00000  Uiso   1.00
C966   C     0.80728   0.64184   0.72222   0.00000  Uiso   1.00
C967   C     0.83324   0.49991   0.66474   0.00000  Uiso   1.00
C968   C     0.83343   0.50009   0.83525   0.00000  Uiso   1.00
C969   C     0.87181   0.49578   0.90720   0.00000  Uiso   1.00
C970   C     0.79486   0.50422   0.59280   0.00000  Uiso   1.00
C971   C     0.83407   0.50052   0.88342   0.00000  Uiso   1.00
C972   C     0.83260   0.49948   0.61658   0.00000  Uiso   1.00
C973   C     0.79671   0.50578   0.90528   0.00000  Uiso   1.00
C974   C     0.86996   0.49422   0.59472   0.00000  Uiso   1.00
C975   C     0.79646   0.50598   0.95186   0.00000  Uiso   1.00
C976   C     0.87021   0.49402   0.54814   0.00000  Uiso   1.00
C977   C     0.83374   0.50009   0.97647   0.00000  Uiso   1.00
C978   C     0.83292   0.49991   0.52353   0.00000  Uiso   1.00
C979   C     0.87177   0.49447   0.95416   0.00000  Uiso   1.00
C980   C     0.79490   0.50552   0.54584   0.00000  Uiso   1.00
C981   C     0.75940   0.51197   0.97420   0.00000  Uiso   1.00
C982   C     0.90727   0.48803   0.52580   0.00000  Uiso   1.00
Cu983  Cu    0.83333   0.54689   0.75000   0.00000  Uiso   1.00
Cu984  Cu    0.83333   0.45311   0.75000   0.00000  Uiso   1.00
H985   H     0.73065   0.51699   0.95584   0.00000  Uiso   1.00
H986   H     0.93602   0.48301   0.54416   0.00000  Uiso   1.00
H987   H     0.70398   0.42476   0.75013   0.00000  Uiso   1.00
H988   H     0.96269   0.57524   0.74987   0.00000  Uiso   1.00
H989   H     0.96270   0.42476   0.75042   0.00000  Uiso   1.00
H990   H     0.70397   0.57524   0.74958   0.00000  Uiso   1.00
N991   N     0.83333   0.61736   0.75000   0.00000  Uiso   1.00
N992   N     0.83333   0.38264   0.75000   0.00000  Uiso   1.00
O993   O     0.77321   0.53958   0.74999   0.00000  Uiso   1.00
O994   O     0.89345   0.46042   0.75000   0.00000  Uiso   1.00
O995   O     0.89345   0.53958   0.75000   0.00000  Uiso   1.00
O996   O     0.77321   0.46042   0.74999   0.00000  Uiso   1.00
O997   O     0.83332   0.53960   0.68513   0.00000  Uiso   1.00
O998   O     0.83334   0.46040   0.81487   0.00000  Uiso   1.00
O999   O     0.83334   0.53960   0.81487   0.00000  Uiso   1.00
O1000  O     0.83332   0.46040   0.68513   0.00000  Uiso   1.00
O1001  O     0.90896   0.49258   0.88555   0.00000  Uiso   1.00
H1002  H     0.90583   0.50037   0.85378   0.00000  Uiso   1.00
O1003  O     0.75771   0.50742   0.61445   0.00000  Uiso   1.00
H1004  H     0.76084   0.49963   0.64622   0.00000  Uiso   1.00
C1005  C     0.75860   0.51079   0.87935   0.00000  Uiso   1.00
N1006  N     0.72826   0.51478   0.85882   0.00000  Uiso   1.00
C1007  C     0.90807   0.48921   0.62065   0.00000  Uiso   1.00
N1008  N     0.93841   0.48522   0.64118   0.00000  Uiso   1.00
C1009  C     0.71790   0.51917   0.53886   0.00000  Uiso   1.00
N1010  N     0.68567   0.52503   0.55358   0.00000  Uiso   1.00
C1011  C     0.94877   0.48083   0.96114   0.00000  Uiso   1.00
N1012  N     0.98100   0.47497   0.94642   0.00000  Uiso   1.00
C1013  C     0.77958   0.38261   0.69235   0.00000  Uiso   1.00
N1014  N     0.75719   0.40182   0.66825   0.00000  Uiso   1.00
C1015  C     0.88709   0.61739   0.80765   0.00000  Uiso   1.00
N1016  N     0.90948   0.59818   0.83174   0.00000  Uiso   1.00
C1017  C     0.88739   0.38273   0.80739   0.00000  Uiso   1.00
N1018  N     0.91006   0.40188   0.83129   0.00000  Uiso   1.00
C1019  C     0.77928   0.61727   0.69261   0.00000  Uiso   1.00
N1020  N     0.75660   0.59812   0.66871   0.00000  Uiso   1.00
C1021  C     0.08743   0.83333   0.74981   0.00000  Uiso   1.00
C1022  C     0.24590   0.83333   0.75019   0.00000  Uiso   1.00
C1023  C     0.09144   0.84524   0.52014   0.00000  Uiso   1.00
C1024  C     0.24190   0.82142   0.97986   0.00000  Uiso   1.00
C1025  C     0.02130   0.79111   0.75003   0.00000  Uiso   1.00
C1026  C     0.31203   0.87555   0.74997   0.00000  Uiso   1.00
C1027  C     0.31204   0.79112   0.75029   0.00000  Uiso   1.00
C1028  C     0.02130   0.87555   0.74971   0.00000  Uiso   1.00
C1029  C     0.29056   0.83334   0.75026   0.00000  Uiso   1.00
C1030  C     0.04278   0.83333   0.74974   0.00000  Uiso   1.00
C1031  C     0.14065   0.69141   0.72219   0.00000  Uiso   1.00
C1032  C     0.19269   0.97526   0.77781   0.00000  Uiso   1.00
C1033  C     0.19272   0.69150   0.77778   0.00000  Uiso   1.00
C1034  C     0.14062   0.97517   0.72222   0.00000  Uiso   1.00
C1035  C     0.16657   0.83325   0.66474   0.00000  Uiso   1.00
C1036  C     0.16676   0.83342   0.83525   0.00000  Uiso   1.00
C1037  C     0.20514   0.82911   0.90720   0.00000  Uiso   1.00
C1038  C     0.12819   0.83755   0.59280   0.00000  Uiso   1.00
C1039  C     0.16740   0.83385   0.88342   0.00000  Uiso   1.00
C1040  C     0.16593   0.83282   0.61658   0.00000  Uiso   1.00
C1041  C     0.13004   0.83911   0.90528   0.00000  Uiso   1.00
C1042  C     0.20329   0.82755   0.59472   0.00000  Uiso   1.00
C1043  C     0.12979   0.83931   0.95186   0.00000  Uiso   1.00
C1044  C     0.20354   0.82735   0.54814   0.00000  Uiso   1.00
C1045  C     0.16708   0.83342   0.97647   0.00000  Uiso   1.00
C1046  C     0.16626   0.83325   0.52353   0.00000  Uiso   1.00
C1047  C     0.20510   0.82781   0.95416   0.00000  Uiso   1.00
C1048  C     0.12823   0.83886   0.54584   0.00000  Uiso   1.00
C1049  C     0.09273   0.84530   0.97420   0.00000  Uiso   1.00
C1050  C     0.24060   0.82136   0.52580   0.00000  Uiso   1.00
Cu1051 Cu    0.16667   0.88022   0.75000   0.00000  Uiso   1.00
Cu1052 Cu    0.16667   0.78645   0.75000   0.00000  Uiso   1.00
H1053  H     0.06399   0.85032   0.95584   0.00000  Uiso   1.00
H1054  H     0.26935   0.81635   0.54416   0.00000  Uiso   1.00
H1055  H     0.03731   0.75809   0.75013   0.00000  Uiso   1.00
H1056  H     0.29603   0.90857   0.74987   0.00000  Uiso   1.00
H1057  H     0.29603   0.75810   0.75042   0.00000  Uiso   1.00
H1058  H     0.03730   0.90857   0.74958   0.00000  Uiso   1.00
N1059  N     0.16667   0.95069   0.75000   0.00000  Uiso   1.00
N1060  N     0.16667   0.71598   0.75000   0.00000  Uiso   1.00
O1061  O     0.10655   0.87291   0.74999   0.00000  Uiso   1.00
O1062  O     0.22679   0.79375   0.75000   0.00000  Uiso   1.00
O1063  O     0.22679   0.87291   0.75000   0.00000  Uiso   1.00
O1064  O     0.10655   0.79375   0.74999   0.00000  Uiso   1.00
O1065  O     0.16666   0.87293   0.68513   0.00000  Uiso   1.00
O1066  O     0.16668   0.79373   0.81487   0.00000  Uiso   1.00
O1067  O     0.16668   0.87293   0.81487   0.00000  Uiso   1.00
O1068  O     0.16666   0.79373   0.68513   0.00000  Uiso   1.00
O1069  O     0.24229   0.82591   0.88555   0.00000  Uiso   1.00
H1070  H     0.23916   0.83370   0.85378   0.00000  Uiso   1.00
O1071  O     0.09104   0.84075   0.61445   0.00000  Uiso   1.00
H1072  H     0.09417   0.83297   0.64622   0.00000  Uiso   1.00
C1073  C     0.09193   0.84412   0.87935   0.00000  Uiso   1.00
N1074  N     0.06159   0.84811   0.85882   0.00000  Uiso   1.00
C1075  C     0.24140   0.82255   0.62065   0.00000  Uiso   1.00
N1076  N     0.27174   0.81855   0.64118   0.00000  Uiso   1.00
C1077  C     0.05123   0.85251   0.53886   0.00000  Uiso   1.00
N1078  N     0.01900   0.85836   0.55358   0.00000  Uiso   1.00
C1079  C     0.28210   0.81416   0.96114   0.00000  Uiso   1.00
N1080  N     0.31433   0.80830   0.94642   0.00000  Uiso   1.00
C1081  C     0.11291   0.71594   0.69235   0.00000  Uiso   1.00
N1082  N     0.09053   0.73515   0.66825   0.00000  Uiso   1.00
C1083  C     0.22042   0.95072   0.80765   0.00000  Uiso   1.00
N1084  N     0.24281   0.93151   0.83174   0.00000  Uiso   1.00
C1085  C     0.22072   0.71606   0.80739   0.00000  Uiso   1.00
N1086  N     0.24340   0.73521   0.83129   0.00000  Uiso   1.00
C1087  C     0.11261   0.95061   0.69261   0.00000  Uiso   1.00
N1088  N     0.08994   0.93145   0.66871   0.00000  Uiso   1.00
C1089  C     0.42077   0.83333   0.74981   0.00000  Uiso   1.00
C1090  C     0.57923   0.83333   0.75019   0.00000  Uiso   1.00
C1091  C     0.42477   0.84524   0.52014   0.00000  Uiso   1.00
C1092  C     0.57523   0.82142   0.97986   0.00000  Uiso   1.00
C1093  C     0.35464   0.79111   0.75003   0.00000  Uiso   1.00
C1094  C     0.64536   0.87555   0.74997   0.00000  Uiso   1.00
C1095  C     0.64537   0.79112   0.75029   0.00000  Uiso   1.00
C1096  C     0.35463   0.87555   0.74971   0.00000  Uiso   1.00
C1097  C     0.62389   0.83334   0.75026   0.00000  Uiso   1.00
C1098  C     0.37611   0.83333   0.74974   0.00000  Uiso   1.00
C1099  C     0.47398   0.69141   0.72219   0.00000  Uiso   1.00
C1100  C     0.52602   0.97526   0.77781   0.00000  Uiso   1.00
C1101  C     0.52605   0.69150   0.77778   0.00000  Uiso   1.00
C1102  C     0.47395   0.97517   0.72222   0.00000  Uiso   1.00
C1103  C     0.49990   0.83325   0.66474   0.00000  Uiso   1.00
C1104  C     0.50010   0.83342   0.83525   0.00000  Uiso   1.00
C1105  C     0.53848   0.82911   0.90720   0.00000  Uiso   1.00
C1106  C     0.46152   0.83755   0.59280   0.00000  Uiso   1.00
C1107  C     0.50073   0.83385   0.88342   0.00000  Uiso   1.00
C1108  C     0.49927   0.83282   0.61658   0.00000  Uiso   1.00
C1109  C     0.46337   0.83911   0.90528   0.00000  Uiso   1.00
C1110  C     0.53663   0.82755   0.59472   0.00000  Uiso   1.00
C1111  C     0.46312   0.83931   0.95186   0.00000  Uiso   1.00
C1112  C     0.53688   0.82735   0.54814   0.00000  Uiso   1.00
C1113  C     0.50041   0.83342   0.97647   0.00000  Uiso   1.00
C1114  C     0.49959   0.83325   0.52353   0.00000  Uiso   1.00
C1115  C     0.53843   0.82781   0.95416   0.00000  Uiso   1.00
C1116  C     0.46157   0.83886   0.54584   0.00000  Uiso   1.00
C1117  C     0.42606   0.84530   0.97420   0.00000  Uiso   1.00
C1118  C     0.57394   0.82136   0.52580   0.00000  Uiso   1.00
Cu1119 Cu    0.50000   0.88022   0.75000   0.00000  Uiso   1.00
Cu1120 Cu    0.50000   0.78645   0.75000   0.00000  Uiso   1.00
H1121  H     0.39732   0.85032   0.95584   0.00000  Uiso   1.00
H1122  H     0.60268   0.81635   0.54416   0.00000  Uiso   1.00
H1123  H     0.37064   0.75809   0.75013   0.00000  Uiso   1.00
H1124  H     0.62936   0.90857   0.74987   0.00000  Uiso   1.00
H1125  H     0.62937   0.75810   0.75042   0.00000  Uiso   1.00
H1126  H     0.37063   0.90857   0.74958   0.00000  Uiso   1.00
N1127  N     0.50000   0.95069   0.75000   0.00000  Uiso   1.00
N1128  N     0.50000   0.71598   0.75000   0.00000  Uiso   1.00
O1129  O     0.43988   0.87291   0.74999   0.00000  Uiso   1.00
O1130  O     0.56012   0.79375   0.75000   0.00000  Uiso   1.00
O1131  O     0.56012   0.87291   0.75000   0.00000  Uiso   1.00
O1132  O     0.43988   0.79375   0.74999   0.00000  Uiso   1.00
O1133  O     0.49999   0.87293   0.68513   0.00000  Uiso   1.00
O1134  O     0.50001   0.79373   0.81487   0.00000  Uiso   1.00
O1135  O     0.50001   0.87293   0.81487   0.00000  Uiso   1.00
O1136  O     0.49999   0.79373   0.68513   0.00000  Uiso   1.00
O1137  O     0.57562   0.82591   0.88555   0.00000  Uiso   1.00
H1138  H     0.57250   0.83370   0.85378   0.00000  Uiso   1.00
O1139  O     0.42438   0.84075   0.61445   0.00000  Uiso   1.00
H1140  H     0.42750   0.83297   0.64622   0.00000  Uiso   1.00
C1141  C     0.42526   0.84412   0.87935   0.00000  Uiso   1.00
N1142  N     0.39492   0.84811   0.85882   0.00000  Uiso   1.00
C1143  C     0.57474   0.82255   0.62065   0.00000  Uiso   1.00
N1144  N     0.60508   0.81855   0.64118   0.00000  Uiso   1.00
C1145  C     0.38457   0.85251   0.53886   0.00000  Uiso   1.00
N1146  N     0.35234   0.85836   0.55358   0.00000  Uiso   1.00
C1147  C     0.61543   0.81416   0.96114   0.00000  Uiso   1.00
N1148  N     0.64767   0.80830   0.94642   0.00000  Uiso   1.00
C1149  C     0.44624   0.71594   0.69235   0.00000  Uiso   1.00
N1150  N     0.42386   0.73515   0.66825   0.00000  Uiso   1.00
C1151  C     0.55376   0.95072   0.80765   0.00000  Uiso   1.00
N1152  N     0.57614   0.93151   0.83174   0.00000  Uiso   1.00
C1153  C     0.55406   0.71606   0.80739   0.00000  Uiso   1.00
N1154  N     0.57673   0.73521   0.83129   0.00000  Uiso   1.00
C1155  C     0.44594   0.95061   0.69261   0.00000  Uiso   1.00
N1156  N     0.42327   0.93145   0.66871   0.00000  Uiso   1.00
C1157  C     0.75410   0.83333   0.74981   0.00000  Uiso   1.00
C1158  C     0.91257   0.83333   0.75019   0.00000  Uiso   1.00
C1159  C     0.75810   0.84524   0.52014   0.00000  Uiso   1.00
C1160  C     0.90856   0.82142   0.97986   0.00000  Uiso   1.00
C1161  C     0.68797   0.79111   0.75003   0.00000  Uiso   1.00
C1162  C     0.97870   0.87555   0.74997   0.00000  Uiso   1.00
C1163  C     0.97870   0.79112   0.75029   0.00000  Uiso   1.00
C1164  C     0.68796   0.87555   0.74971   0.00000  Uiso   1.00
C1165  C     0.95723   0.83334   0.75026   0.00000  Uiso   1.00
C1166  C     0.70944   0.83333   0.74974   0.00000  Uiso   1.00
C1167  C     0.80731   0.69141   0.72219   0.00000  Uiso   1.00
C1168  C     0.85935   0.97526   0.77781   0.00000  Uiso   1.00
C1169  C     0.85939   0.69150   0.77778   0.00000  Uiso   1.00
C1170  C     0.80728   0.97517   0.72222   0.00000  Uiso   1.00
C1171  C     0.83324   0.83325   0.66474   0.00000  Uiso   1.00
C1172  C     0.83343   0.83342   0.83525   0.00000  Uiso   1.00
C1173  C     0.87181   0.82911   0.90720   0.00000  Uiso   1.00
C1174  C     0.79486   0.83755   0.59280   0.00000  Uiso   1.00
C1175  C     0.83407   0.83385   0.88342   0.00000  Uiso   1.00
C1176  C     0.83260   0.83282   0.61658   0.00000  Uiso   1.00
C1177  C     0.79671   0.83911   0.90528   0.00000  Uiso   1.00
C1178  C     0.86996   0.82755   0.59472   0.00000  Uiso   1.00
C1179  C     0.79646   0.83931   0.95186   0.00000  Uiso   1.00
C1180  C     0.87021   0.82735   0.54814   0.00000  Uiso   1.00
C1181  C     0.83374   0.83342   0.97647   0.00000  Uiso   1.00
C1182  C     0.83292   0.83325   0.52353   0.00000  Uiso   1.00
C1183  C     0.87177   0.82781   0.95416   0.00000  Uiso   1.00
C1184  C     0.79490   0.83886   0.54584   0.00000  Uiso   1.00
C1185  C     0.75940   0.84530   0.97420   0.00000  Uiso   1.00
C1186  C     0.90727   0.82136   0.52580   0.00000  Uiso   1.00
Cu1187 Cu    0.83333   0.88022   0.75000   0.00000  Uiso   1.00
Cu1188 Cu    0.83333   0.78645   0.75000   0.00000  Uiso   1.00
H1189  H     0.73065   0.85032   0.95584   0.00000  Uiso   1.00
H1190  H     0.93602   0.81635   0.54416   0.00000  Uiso   1.00
H1191  H     0.70398   0.75809   0.75013   0.00000  Uiso   1.00
H1192  H     0.96269   0.90857   0.74987   0.00000  Uiso   1.00
H1193  H     0.96270   0.75810   0.75042   0.00000  Uiso   1.00
H1194  H     0.70397   0.90857   0.74958   0.00000  Uiso   1.00
N1195  N     0.83333   0.95069   0.75000   0.00000  Uiso   1.00
N1196  N     0.83333   0.71598   0.75000   0.00000  Uiso   1.00
O1197  O     0.77321   0.87291   0.74999   0.00000  Uiso   1.00
O1198  O     0.89345   0.79375   0.75000   0.00000  Uiso   1.00
O1199  O     0.89345   0.87291   0.75000   0.00000  Uiso   1.00
O1200  O     0.77321   0.79375   0.74999   0.00000  Uiso   1.00
O1201  O     0.83332   0.87293   0.68513   0.00000  Uiso   1.00
O1202  O     0.83334   0.79373   0.81487   0.00000  Uiso   1.00
O1203  O     0.83334   0.87293   0.81487   0.00000  Uiso   1.00
O1204  O     0.83332   0.79373   0.68513   0.00000  Uiso   1.00
O1205  O     0.90896   0.82591   0.88555   0.00000  Uiso   1.00
H1206  H     0.90583   0.83370   0.85378   0.00000  Uiso   1.00
O1207  O     0.75771   0.84075   0.61445   0.00000  Uiso   1.00
H1208  H     0.76084   0.83297   0.64622   0.00000  Uiso   1.00
C1209  C     0.75860   0.84412   0.87935   0.00000  Uiso   1.00
N1210  N     0.72826   0.84811   0.85882   0.00000  Uiso   1.00
C1211  C     0.90807   0.82255   0.62065   0.00000  Uiso   1.00
N1212  N     0.93841   0.81855   0.64118   0.00000  Uiso   1.00
C1213  C     0.71790   0.85251   0.53886   0.00000  Uiso   1.00
N1214  N     0.68567   0.85836   0.55358   0.00000  Uiso   1.00
C1215  C     0.94877   0.81416   0.96114   0.00000  Uiso   1.00
N1216  N     0.98100   0.80830   0.94642   0.00000  Uiso   1.00
C1217  C     0.77958   0.71594   0.69235   0.00000  Uiso   1.00
N1218  N     0.75719   0.73515   0.66825   0.00000  Uiso   1.00
C1219  C     0.88709   0.95072   0.80765   0.00000  Uiso   1.00
N1220  N     0.90948   0.93151   0.83174   0.00000  Uiso   1.00
C1221  C     0.88739   0.71606   0.80739   0.00000  Uiso   1.00
N1222  N     0.91006   0.73521   0.83129   0.00000  Uiso   1.00
C1223  C     0.77928   0.95061   0.69261   0.00000  Uiso   1.00
N1224  N     0.75660   0.93145   0.66871   0.00000  Uiso   1.00
loop_
_geom_bond_atom_site_label_1
_geom_bond_atom_site_label_2
_geom_bond_distance
_geom_bond_site_symmetry_2
_ccdc_geom_bond_type
C1     O44     1.297   .     A
C1     O41     1.297   .     A
C1     C10     1.449   .     S
C2     O42     1.297   .     A
C2     O43     1.297   .     A
C2     C9      1.449   .     S
C3     C28     1.421   .     A
C3     C57     1.448   .     S
C3     C641    1.387   1_554 S
C4     C27     1.421   .     A
C4     C59     1.448   .     S
C4     C642    1.387   .     S
C5     H35     1.083   .     S
C5     C10     1.401   .     A
C5     C143    1.383   1_455 S
C6     C9      1.401   .     A
C6     H36     1.083   .     S
C6     C76     1.383   .     S
C7     C9      1.401   .     A
C7     H37     1.083   .     S
C7     C73     1.383   .     S
C8     H38     1.083   .     S
C8     C10     1.401   .     A
C8     C142    1.383   1_455 S
C11    C61     1.444   .     S
C11    N40     1.372   .     A
C11    C422    1.427   1_545 S
C12    N39     1.372   .     A
C12    C63     1.444   .     S
C12    C217    1.427   .     S
C13    N40     1.373   .     A
C13    C65     1.444   .     S
C13    C420    1.427   1_545 S
C14    C67     1.444   .     S
C14    N39     1.373   .     A
C14    C215    1.427   .     S
C15    O48     1.294   .     A
C15    O45     1.296   .     A
C15    C20     1.452   .     S
C16    C19     1.452   .     S
C16    O47     1.294   .     A
C16    O46     1.296   .     A
C17    C19     1.412   .     A
C17    O49     1.387   .     S
C17    C27     1.417   .     A
C18    O51     1.387   .     S
C18    C20     1.412   .     A
C18    C28     1.417   .     A
C19    C21     1.401   .     A
C20    C22     1.401   .     A
C21    C53     1.456   .     S
C21    C23     1.405   .     A
C22    C55     1.456   .     S
C22    C24     1.405   .     A
C23    C29     1.402   .     A
C23    C25     1.416   .     A
C24    C26     1.416   .     A
C24    C30     1.402   .     A
C25    C27     1.427   .     A
C25    C638    1.420   .     S
C26    C28     1.427   .     A
C26    C637    1.420   1_554 S
C29    H33     1.084   .     S
C29    C615    1.387   .     S
C30    H34     1.084   .     S
C30    C616    1.387   1_554 S
Cu31   O43     1.962   .     S
Cu31   Cu32    2.699   .     S
Cu31   N39     2.028   .     S
Cu31   O47     1.968   .     S
Cu31   O45     1.967   .     S
Cu31   O41     1.962   .     S
Cu32   N40     2.028   .     S
Cu32   O44     1.962   .     S
Cu32   O48     1.968   .     S
Cu32   O42     1.962   .     S
Cu32   O46     1.967   .     S
O49    H50     0.988   .     S
O51    H52     0.988   .     S
C53    N54     1.157   .     T
C55    N56     1.157   .     T
C57    N58     1.158   .     T
C59    N60     1.158   .     T
C61    N62     1.158   .     T
C63    N64     1.158   .     T
C65    N66     1.157   .     T
C67    N68     1.157   .     T
C69    O112    1.297   .     A
C69    O109    1.297   .     A
C69    C78     1.449   .     S
C70    O110    1.297   .     A
C70    O111    1.297   .     A
C70    C77     1.449   .     S
C71    C96     1.421   .     A
C71    C125    1.448   .     S
C71    C709    1.387   1_554 S
C72    C95     1.421   .     A
C72    C127    1.448   .     S
C72    C710    1.387   .     S
C73    H103    1.083   .     S
C73    C78     1.401   .     A
C74    C77     1.401   .     A
C74    H104    1.083   .     S
C74    C144    1.383   .     S
C75    C77     1.401   .     A
C75    H105    1.083   .     S
C75    C141    1.383   .     S
C76    H106    1.083   .     S
C76    C78     1.401   .     A
C79    C129    1.444   .     S
C79    N108    1.372   .     A
C79    C490    1.427   1_545 S
C80    N107    1.372   .     A
C80    C131    1.444   .     S
C80    C285    1.427   .     S
C81    N108    1.373   .     A
C81    C133    1.444   .     S
C81    C488    1.427   1_545 S
C82    C135    1.444   .     S
C82    N107    1.373   .     A
C82    C283    1.427   .     S
C83    O116    1.294   .     A
C83    O113    1.296   .     A
C83    C88     1.452   .     S
C84    C87     1.452   .     S
C84    O115    1.294   .     A
C84    O114    1.296   .     A
C85    C87     1.412   .     A
C85    O117    1.387   .     S
C85    C95     1.417   .     A
C86    O119    1.387   .     S
C86    C88     1.412   .     A
C86    C96     1.417   .     A
C87    C89     1.401   .     A
C88    C90     1.401   .     A
C89    C121    1.456   .     S
C89    C91     1.405   .     A
C90    C123    1.456   .     S
C90    C92     1.405   .     A
C91    C97     1.402   .     A
C91    C93     1.416   .     A
C92    C94     1.416   .     A
C92    C98     1.402   .     A
C93    C95     1.427   .     A
C93    C706    1.420   .     S
C94    C96     1.427   .     A
C94    C705    1.420   1_554 S
C97    H101    1.084   .     S
C97    C683    1.387   .     S
C98    H102    1.084   .     S
C98    C684    1.387   1_554 S
Cu99   O111    1.962   .     S
Cu99   Cu100   2.699   .     S
Cu99   N107    2.028   .     S
Cu99   O115    1.968   .     S
Cu99   O113    1.967   .     S
Cu99   O109    1.962   .     S
Cu100  N108    2.028   .     S
Cu100  O112    1.962   .     S
Cu100  O116    1.968   .     S
Cu100  O110    1.962   .     S
Cu100  O114    1.967   .     S
O117   H118    0.988   .     S
O119   H120    0.988   .     S
C121   N122    1.157   .     T
C123   N124    1.157   .     T
C125   N126    1.158   .     T
C127   N128    1.158   .     T
C129   N130    1.158   .     T
C131   N132    1.158   .     T
C133   N134    1.157   .     T
C135   N136    1.157   .     T
C137   O180    1.297   .     A
C137   O177    1.297   .     A
C137   C146    1.449   .     S
C138   O178    1.297   .     A
C138   O179    1.297   .     A
C138   C145    1.449   .     S
C139   C164    1.421   .     A
C139   C193    1.448   .     S
C139   C777    1.387   1_554 S
C140   C163    1.421   .     A
C140   C195    1.448   .     S
C140   C778    1.387   .     S
C141   H171    1.083   .     S
C141   C146    1.401   .     A
C142   C145    1.401   .     A
C142   H172    1.083   .     S
C142   C8      1.383   1_655 S
C143   C145    1.401   .     A
C143   H173    1.083   .     S
C143   C5      1.383   1_655 S
C144   H174    1.083   .     S
C144   C146    1.401   .     A
C147   C197    1.444   .     S
C147   N176    1.372   .     A
C147   C558    1.427   1_545 S
C148   N175    1.372   .     A
C148   C199    1.444   .     S
C148   C353    1.427   .     S
C149   N176    1.373   .     A
C149   C201    1.444   .     S
C149   C556    1.427   1_545 S
C150   C203    1.444   .     S
C150   N175    1.373   .     A
C150   C351    1.427   .     S
C151   O184    1.294   .     A
C151   O181    1.296   .     A
C151   C156    1.452   .     S
C152   C155    1.452   .     S
C152   O183    1.294   .     A
C152   O182    1.296   .     A
C153   C155    1.412   .     A
C153   O185    1.387   .     S
C153   C163    1.417   .     A
C154   O187    1.387   .     S
C154   C156    1.412   .     A
C154   C164    1.417   .     A
C155   C157    1.401   .     A
C156   C158    1.401   .     A
C157   C189    1.456   .     S
C157   C159    1.405   .     A
C158   C191    1.456   .     S
C158   C160    1.405   .     A
C159   C165    1.402   .     A
C159   C161    1.416   .     A
C160   C162    1.416   .     A
C160   C166    1.402   .     A
C161   C163    1.427   .     A
C161   C774    1.420   .     S
C162   C164    1.427   .     A
C162   C773    1.420   1_554 S
C165   H169    1.084   .     S
C165   C751    1.387   .     S
C166   H170    1.084   .     S
C166   C752    1.387   1_554 S
Cu167  O179    1.962   .     S
Cu167  Cu168   2.699   .     S
Cu167  N175    2.028   .     S
Cu167  O183    1.968   .     S
Cu167  O181    1.967   .     S
Cu167  O177    1.962   .     S
Cu168  N176    2.028   .     S
Cu168  O180    1.962   .     S
Cu168  O184    1.968   .     S
Cu168  O178    1.962   .     S
Cu168  O182    1.967   .     S
O185   H186    0.988   .     S
O187   H188    0.988   .     S
C189   N190    1.157   .     T
C191   N192    1.157   .     T
C193   N194    1.158   .     T
C195   N196    1.158   .     T
C197   N198    1.158   .     T
C199   N200    1.158   .     T
C201   N202    1.157   .     T
C203   N204    1.157   .     T
C205   O248    1.297   .     A
C205   O245    1.297   .     A
C205   C214    1.449   .     S
C206   O246    1.297   .     A
C206   O247    1.297   .     A
C206   C213    1.449   .     S
C207   C232    1.421   .     A
C207   C261    1.448   .     S
C207   C845    1.387   1_554 S
C208   C231    1.421   .     A
C208   C263    1.448   .     S
C208   C846    1.387   .     S
C209   H239    1.083   .     S
C209   C214    1.401   .     A
C209   C347    1.383   1_455 S
C210   C213    1.401   .     A
C210   H240    1.083   .     S
C210   C280    1.383   .     S
C211   C213    1.401   .     A
C211   H241    1.083   .     S
C211   C277    1.383   .     S
C212   H242    1.083   .     S
C212   C214    1.401   .     A
C212   C346    1.383   1_455 S
C215   C265    1.444   .     S
C215   N244    1.372   .     A
C216   N243    1.372   .     A
C216   C267    1.444   .     S
C216   C421    1.427   .     S
C217   N244    1.373   .     A
C217   C269    1.444   .     S
C218   C271    1.444   .     S
C218   N243    1.373   .     A
C218   C419    1.427   .     S
C219   O252    1.294   .     A
C219   O249    1.296   .     A
C219   C224    1.452   .     S
C220   C223    1.452   .     S
C220   O251    1.294   .     A
C220   O250    1.296   .     A
C221   C223    1.412   .     A
C221   O253    1.387   .     S
C221   C231    1.417   .     A
C222   O255    1.387   .     S
C222   C224    1.412   .     A
C222   C232    1.417   .     A
C223   C225    1.401   .     A
C224   C226    1.401   .     A
C225   C257    1.456   .     S
C225   C227    1.405   .     A
C226   C259    1.456   .     S
C226   C228    1.405   .     A
C227   C233    1.402   .     A
C227   C229    1.416   .     A
C228   C230    1.416   .     A
C228   C234    1.402   .     A
C229   C231    1.427   .     A
C229   C842    1.420   .     S
C230   C232    1.427   .     A
C230   C841    1.420   1_554 S
C233   H237    1.084   .     S
C233   C819    1.387   .     S
C234   H238    1.084   .     S
C234   C820    1.387   1_554 S
Cu235  O247    1.962   .     S
Cu235  Cu236   2.699   .     S
Cu235  N243    2.028   .     S
Cu235  O251    1.968   .     S
Cu235  O249    1.967   .     S
Cu235  O245    1.962   .     S
Cu236  N244    2.028   .     S
Cu236  O248    1.962   .     S
Cu236  O252    1.968   .     S
Cu236  O246    1.962   .     S
Cu236  O250    1.967   .     S
O253   H254    0.988   .     S
O255   H256    0.988   .     S
C257   N258    1.157   .     T
C259   N260    1.157   .     T
C261   N262    1.158   .     T
C263   N264    1.158   .     T
C265   N266    1.158   .     T
C267   N268    1.158   .     T
C269   N270    1.157   .     T
C271   N272    1.157   .     T
C273   O316    1.297   .     A
C273   O313    1.297   .     A
C273   C282    1.449   .     S
C274   O314    1.297   .     A
C274   O315    1.297   .     A
C274   C281    1.449   .     S
C275   C300    1.421   .     A
C275   C329    1.448   .     S
C275   C913    1.387   1_554 S
C276   C299    1.421   .     A
C276   C331    1.448   .     S
C276   C914    1.387   .     S
C277   H307    1.083   .     S
C277   C282    1.401   .     A
C278   C281    1.401   .     A
C278   H308    1.083   .     S
C278   C348    1.383   .     S
C279   C281    1.401   .     A
C279   H309    1.083   .     S
C279   C345    1.383   .     S
C280   H310    1.083   .     S
C280   C282    1.401   .     A
C283   C333    1.444   .     S
C283   N312    1.372   .     A
C284   N311    1.372   .     A
C284   C335    1.444   .     S
C284   C489    1.427   .     S
C285   N312    1.373   .     A
C285   C337    1.444   .     S
C286   C339    1.444   .     S
C286   N311    1.373   .     A
C286   C487    1.427   .     S
C287   O320    1.294   .     A
C287   O317    1.296   .     A
C287   C292    1.452   .     S
C288   C291    1.452   .     S
C288   O319    1.294   .     A
C288   O318    1.296   .     A
C289   C291    1.412   .     A
C289   O321    1.387   .     S
C289   C299    1.417   .     A
C290   O323    1.387   .     S
C290   C292    1.412   .     A
C290   C300    1.417   .     A
C291   C293    1.401   .     A
C292   C294    1.401   .     A
C293   C325    1.456   .     S
C293   C295    1.405   .     A
C294   C327    1.456   .     S
C294   C296    1.405   .     A
C295   C301    1.402   .     A
C295   C297    1.416   .     A
C296   C298    1.416   .     A
C296   C302    1.402   .     A
C297   C299    1.427   .     A
C297   C910    1.420   .     S
C298   C300    1.427   .     A
C298   C909    1.420   1_554 S
C301   H305    1.084   .     S
C301   C887    1.387   .     S
C302   H306    1.084   .     S
C302   C888    1.387   1_554 S
Cu303  O315    1.962   .     S
Cu303  Cu304   2.699   .     S
Cu303  N311    2.028   .     S
Cu303  O319    1.968   .     S
Cu303  O317    1.967   .     S
Cu303  O313    1.962   .     S
Cu304  N312    2.028   .     S
Cu304  O316    1.962   .     S
Cu304  O320    1.968   .     S
Cu304  O314    1.962   .     S
Cu304  O318    1.967   .     S
O321   H322    0.988   .     S
O323   H324    0.988   .     S
C325   N326    1.157   .     T
C327   N328    1.157   .     T
C329   N330    1.158   .     T
C331   N332    1.158   .     T
C333   N334    1.158   .     T
C335   N336    1.158   .     T
C337   N338    1.157   .     T
C339   N340    1.157   .     T
C341   O384    1.297   .     A
C341   O381    1.297   .     A
C341   C350    1.449   .     S
C342   O382    1.297   .     A
C342   O383    1.297   .     A
C342   C349    1.449   .     S
C343   C368    1.421   .     A
C343   C397    1.448   .     S
C343   C981    1.387   1_554 S
C344   C367    1.421   .     A
C344   C399    1.448   .     S
C344   C982    1.387   .     S
C345   H375    1.083   .     S
C345   C350    1.401   .     A
C346   C349    1.401   .     A
C346   H376    1.083   .     S
C346   C212    1.383   1_655 S
C347   C349    1.401   .     A
C347   H377    1.083   .     S
C347   C209    1.383   1_655 S
C348   H378    1.083   .     S
C348   C350    1.401   .     A
C351   C401    1.444   .     S
C351   N380    1.372   .     A
C352   N379    1.372   .     A
C352   C403    1.444   .     S
C352   C557    1.427   .     S
C353   N380    1.373   .     A
C353   C405    1.444   .     S
C354   C407    1.444   .     S
C354   N379    1.373   .     A
C354   C555    1.427   .     S
C355   O388    1.294   .     A
C355   O385    1.296   .     A
C355   C360    1.452   .     S
C356   C359    1.452   .     S
C356   O387    1.294   .     A
C356   O386    1.296   .     A
C357   C359    1.412   .     A
C357   O389    1.387   .     S
C357   C367    1.417   .     A
C358   O391    1.387   .     S
C358   C360    1.412   .     A
C358   C368    1.417   .     A
C359   C361    1.401   .     A
C360   C362    1.401   .     A
C361   C393    1.456   .     S
C361   C363    1.405   .     A
C362   C395    1.456   .     S
C362   C364    1.405   .     A
C363   C369    1.402   .     A
C363   C365    1.416   .     A
C364   C366    1.416   .     A
C364   C370    1.402   .     A
C365   C367    1.427   .     A
C365   C978    1.420   .     S
C366   C368    1.427   .     A
C366   C977    1.420   1_554 S
C369   H373    1.084   .     S
C369   C955    1.387   .     S
C370   H374    1.084   .     S
C370   C956    1.387   1_554 S
Cu371  O383    1.962   .     S
Cu371  Cu372   2.699   .     S
Cu371  N379    2.028   .     S
Cu371  O387    1.968   .     S
Cu371  O385    1.967   .     S
Cu371  O381    1.962   .     S
Cu372  N380    2.028   .     S
Cu372  O384    1.962   .     S
Cu372  O388    1.968   .     S
Cu372  O382    1.962   .     S
Cu372  O386    1.967   .     S
O389   H390    0.988   .     S
O391   H392    0.988   .     S
C393   N394    1.157   .     T
C395   N396    1.157   .     T
C397   N398    1.158   .     T
C399   N400    1.158   .     T
C401   N402    1.158   .     T
C403   N404    1.158   .     T
C405   N406    1.157   .     T
C407   N408    1.157   .     T
C409   O452    1.297   .     A
C409   O449    1.297   .     A
C409   C418    1.449   .     S
C410   O450    1.297   .     A
C410   O451    1.297   .     A
C410   C417    1.449   .     S
C411   C436    1.421   .     A
C411   C465    1.448   .     S
C411   C1049   1.387   1_554 S
C412   C435    1.421   .     A
C412   C467    1.448   .     S
C412   C1050   1.387   .     S
C413   H443    1.083   .     S
C413   C418    1.401   .     A
C413   C551    1.383   1_455 S
C414   C417    1.401   .     A
C414   H444    1.083   .     S
C414   C484    1.383   .     S
C415   C417    1.401   .     A
C415   H445    1.083   .     S
C415   C481    1.383   .     S
C416   H446    1.083   .     S
C416   C418    1.401   .     A
C416   C550    1.383   1_455 S
C419   C469    1.444   .     S
C419   N448    1.372   .     A
C420   N447    1.372   .     A
C420   C471    1.444   .     S
C420   C13     1.427   1_565 S
C421   N448    1.373   .     A
C421   C473    1.444   .     S
C422   C475    1.444   .     S
C422   N447    1.373   .     A
C422   C11     1.427   1_565 S
C423   O456    1.294   .     A
C423   O453    1.296   .     A
C423   C428    1.452   .     S
C424   C427    1.452   .     S
C424   O455    1.294   .     A
C424   O454    1.296   .     A
C425   C427    1.412   .     A
C425   O457    1.387   .     S
C425   C435    1.417   .     A
C426   O459    1.387   .     S
C426   C428    1.412   .     A
C426   C436    1.417   .     A
C427   C429    1.401   .     A
C428   C430    1.401   .     A
C429   C461    1.456   .     S
C429   C431    1.405   .     A
C430   C463    1.456   .     S
C430   C432    1.405   .     A
C431   C437    1.402   .     A
C431   C433    1.416   .     A
C432   C434    1.416   .     A
C432   C438    1.402   .     A
C433   C435    1.427   .     A
C433   C1046   1.420   .     S
C434   C436    1.427   .     A
C434   C1045   1.420   1_554 S
C437   H441    1.084   .     S
C437   C1023   1.387   .     S
C438   H442    1.084   .     S
C438   C1024   1.387   1_554 S
Cu439  O451    1.962   .     S
Cu439  Cu440   2.699   .     S
Cu439  N447    2.028   .     S
Cu439  O455    1.968   .     S
Cu439  O453    1.967   .     S
Cu439  O449    1.962   .     S
Cu440  N448    2.028   .     S
Cu440  O452    1.962   .     S
Cu440  O456    1.968   .     S
Cu440  O450    1.962   .     S
Cu440  O454    1.967   .     S
O457   H458    0.988   .     S
O459   H460    0.988   .     S
C461   N462    1.157   .     T
C463   N464    1.157   .     T
C465   N466    1.158   .     T
C467   N468    1.158   .     T
C469   N470    1.158   .     T
C471   N472    1.158   .     T
C473   N474    1.157   .     T
C475   N476    1.157   .     T
C477   O520    1.297   .     A
C477   O517    1.297   .     A
C477   C486    1.449   .     S
C478   O518    1.297   .     A
C478   O519    1.297   .     A
C478   C485    1.449   .     S
C479   C504    1.421   .     A
C479   C533    1.448   .     S
C479   C1117   1.387   1_554 S
C480   C503    1.421   .     A
C480   C535    1.448   .     S
C480   C1118   1.387   .     S
C481   H511    1.083   .     S
C481   C486    1.401   .     A
C482   C485    1.401   .     A
C482   H512    1.083   .     S
C482   C552    1.383   .     S
C483   C485    1.401   .     A
C483   H513    1.083   .     S
C483   C549    1.383   .     S
C484   H514    1.083   .     S
C484   C486    1.401   .     A
C487   C537    1.444   .     S
C487   N516    1.372   .     A
C488   N515    1.372   .     A
C488   C539    1.444   .     S
C488   C81     1.427   1_565 S
C489   N516    1.373   .     A
C489   C541    1.444   .     S
C490   C543    1.444   .     S
C490   N515    1.373   .     A
C490   C79     1.427   1_565 S
C491   O524    1.294   .     A
C491   O521    1.296   .     A
C491   C496    1.452   .     S
C492   C495    1.452   .     S
C492   O523    1.294   .     A
C492   O522    1.296   .     A
C493   C495    1.412   .     A
C493   O525    1.387   .     S
C493   C503    1.417   .     A
C494   O527    1.387   .     S
C494   C496    1.412   .     A
C494   C504    1.417   .     A
C495   C497    1.401   .     A
C496   C498    1.401   .     A
C497   C529    1.456   .     S
C497   C499    1.405   .     A
C498   C531    1.456   .     S
C498   C500    1.405   .     A
C499   C505    1.402   .     A
C499   C501    1.416   .     A
C500   C502    1.416   .     A
C500   C506    1.402   .     A
C501   C503    1.427   .     A
C501   C1114   1.420   .     S
C502   C504    1.427   .     A
C502   C1113   1.420   1_554 S
C505   H509    1.084   .     S
C505   C1091   1.387   .     S
C506   H510    1.084   .     S
C506   C1092   1.387   1_554 S
Cu507  O519    1.962   .     S
Cu507  Cu508   2.699   .     S
Cu507  N515    2.028   .     S
Cu507  O523    1.968   .     S
Cu507  O521    1.967   .     S
Cu507  O517    1.962   .     S
Cu508  N516    2.028   .     S
Cu508  O520    1.962   .     S
Cu508  O524    1.968   .     S
Cu508  O518    1.962   .     S
Cu508  O522    1.967   .     S
O525   H526    0.988   .     S
O527   H528    0.988   .     S
C529   N530    1.157   .     T
C531   N532    1.157   .     T
C533   N534    1.158   .     T
C535   N536    1.158   .     T
C537   N538    1.158   .     T
C539   N540    1.158   .     T
C541   N542    1.157   .     T
C543   N544    1.157   .     T
C545   O588    1.297   .     A
C545   O585    1.297   .     A
C545   C554    1.449   .     S
C546   O586    1.297   .     A
C546   O587    1.297   .     A
C546   C553    1.449   .     S
C547   C572    1.421   .     A
C547   C601    1.448   .     S
C547   C1185   1.387   1_554 S
C548   C571    1.421   .     A
C548   C603    1.448   .     S
C548   C1186   1.387   .     S
C549   H579    1.083   .     S
C549   C554    1.401   .     A
C550   C553    1.401   .     A
C550   H580    1.083   .     S
C550   C416    1.383   1_655 S
C551   C553    1.401   .     A
C551   H581    1.083   .     S
C551   C413    1.383   1_655 S
C552   H582    1.083   .     S
C552   C554    1.401   .     A
C555   C605    1.444   .     S
C555   N584    1.372   .     A
C556   N583    1.372   .     A
C556   C607    1.444   .     S
C556   C149    1.427   1_565 S
C557   N584    1.373   .     A
C557   C609    1.444   .     S
C558   C611    1.444   .     S
C558   N583    1.373   .     A
C558   C147    1.427   1_565 S
C559   O592    1.294   .     A
C559   O589    1.296   .     A
C559   C564    1.452   .     S
C560   C563    1.452   .     S
C560   O591    1.294   .     A
C560   O590    1.296   .     A
C561   C563    1.412   .     A
C561   O593    1.387   .     S
C561   C571    1.417   .     A
C562   O595    1.387   .     S
C562   C564    1.412   .     A
C562   C572    1.417   .     A
C563   C565    1.401   .     A
C564   C566    1.401   .     A
C565   C597    1.456   .     S
C565   C567    1.405   .     A
C566   C599    1.456   .     S
C566   C568    1.405   .     A
C567   C573    1.402   .     A
C567   C569    1.416   .     A
C568   C570    1.416   .     A
C568   C574    1.402   .     A
C569   C571    1.427   .     A
C569   C1182   1.420   .     S
C570   C572    1.427   .     A
C570   C1181   1.420   1_554 S
C573   H577    1.084   .     S
C573   C1159   1.387   .     S
C574   H578    1.084   .     S
C574   C1160   1.387   1_554 S
Cu575  O587    1.962   .     S
Cu575  Cu576   2.699   .     S
Cu575  N583    2.028   .     S
Cu575  O591    1.968   .     S
Cu575  O589    1.967   .     S
Cu575  O585    1.962   .     S
Cu576  N584    2.028   .     S
Cu576  O588    1.962   .     S
Cu576  O592    1.968   .     S
Cu576  O586    1.962   .     S
Cu576  O590    1.967   .     S
O593   H594    0.988   .     S
O595   H596    0.988   .     S
C597   N598    1.157   .     T
C599   N600    1.157   .     T
C601   N602    1.158   .     T
C603   N604    1.158   .     T
C605   N606    1.158   .     T
C607   N608    1.158   .     T
C609   N610    1.157   .     T
C611   N612    1.157   .     T
C613   O656    1.297   .     A
C613   O653    1.297   .     A
C613   C622    1.449   .     S
C614   O654    1.297   .     A
C614   O655    1.297   .     A
C614   C621    1.449   .     S
C615   C640    1.421   .     A
C615   C669    1.448   .     S
C616   C639    1.421   .     A
C616   C671    1.448   .     S
C616   C30     1.387   1_556 S
C617   H647    1.083   .     S
C617   C622    1.401   .     A
C617   C755    1.383   1_455 S
C618   C621    1.401   .     A
C618   H648    1.083   .     S
C618   C688    1.383   .     S
C619   C621    1.401   .     A
C619   H649    1.083   .     S
C619   C685    1.383   .     S
C620   H650    1.083   .     S
C620   C622    1.401   .     A
C620   C754    1.383   1_455 S
C623   C673    1.444   .     S
C623   N652    1.372   .     A
C623   C1034   1.427   1_545 S
C624   N651    1.372   .     A
C624   C675    1.444   .     S
C624   C829    1.427   .     S
C625   N652    1.373   .     A
C625   C677    1.444   .     S
C625   C1032   1.427   1_545 S
C626   C679    1.444   .     S
C626   N651    1.373   .     A
C626   C827    1.427   .     S
C627   O660    1.294   .     A
C627   O657    1.296   .     A
C627   C632    1.452   .     S
C628   C631    1.452   .     S
C628   O659    1.294   .     A
C628   O658    1.296   .     A
C629   C631    1.412   .     A
C629   O661    1.387   .     S
C629   C639    1.417   .     A
C630   O663    1.387   .     S
C630   C632    1.412   .     A
C630   C640    1.417   .     A
C631   C633    1.401   .     A
C632   C634    1.401   .     A
C633   C665    1.456   .     S
C633   C635    1.405   .     A
C634   C667    1.456   .     S
C634   C636    1.405   .     A
C635   C641    1.402   .     A
C635   C637    1.416   .     A
C636   C638    1.416   .     A
C636   C642    1.402   .     A
C637   C639    1.427   .     A
C637   C26     1.420   1_556 S
C638   C640    1.427   .     A
C641   H645    1.084   .     S
C641   C3      1.387   1_556 S
C642   H646    1.084   .     S
Cu643  O655    1.962   .     S
Cu643  Cu644   2.699   .     S
Cu643  N651    2.028   .     S
Cu643  O659    1.968   .     S
Cu643  O657    1.967   .     S
Cu643  O653    1.962   .     S
Cu644  N652    2.028   .     S
Cu644  O656    1.962   .     S
Cu644  O660    1.968   .     S
Cu644  O654    1.962   .     S
Cu644  O658    1.967   .     S
O661   H662    0.988   .     S
O663   H664    0.988   .     S
C665   N666    1.157   .     T
C667   N668    1.157   .     T
C669   N670    1.158   .     T
C671   N672    1.158   .     T
C673   N674    1.158   .     T
C675   N676    1.158   .     T
C677   N678    1.157   .     T
C679   N680    1.157   .     T
C681   O724    1.297   .     A
C681   O721    1.297   .     A
C681   C690    1.449   .     S
C682   O722    1.297   .     A
C682   O723    1.297   .     A
C682   C689    1.449   .     S
C683   C708    1.421   .     A
C683   C737    1.448   .     S
C684   C707    1.421   .     A
C684   C739    1.448   .     S
C684   C98     1.387   1_556 S
C685   H715    1.083   .     S
C685   C690    1.401   .     A
C686   C689    1.401   .     A
C686   H716    1.083   .     S
C686   C756    1.383   .     S
C687   C689    1.401   .     A
C687   H717    1.083   .     S
C687   C753    1.383   .     S
C688   H718    1.083   .     S
C688   C690    1.401   .     A
C691   C741    1.444   .     S
C691   N720    1.372   .     A
C691   C1102   1.427   1_545 S
C692   N719    1.372   .     A
C692   C743    1.444   .     S
C692   C897    1.427   .     S
C693   N720    1.373   .     A
C693   C745    1.444   .     S
C693   C1100   1.427   1_545 S
C694   C747    1.444   .     S
C694   N719    1.373   .     A
C694   C895    1.427   .     S
C695   O728    1.294   .     A
C695   O725    1.296   .     A
C695   C700    1.452   .     S
C696   C699    1.452   .     S
C696   O727    1.294   .     A
C696   O726    1.296   .     A
C697   C699    1.412   .     A
C697   O729    1.387   .     S
C697   C707    1.417   .     A
C698   O731    1.387   .     S
C698   C700    1.412   .     A
C698   C708    1.417   .     A
C699   C701    1.401   .     A
C700   C702    1.401   .     A
C701   C733    1.456   .     S
C701   C703    1.405   .     A
C702   C735    1.456   .     S
C702   C704    1.405   .     A
C703   C709    1.402   .     A
C703   C705    1.416   .     A
C704   C706    1.416   .     A
C704   C710    1.402   .     A
C705   C707    1.427   .     A
C705   C94     1.420   1_556 S
C706   C708    1.427   .     A
C709   H713    1.084   .     S
C709   C71     1.387   1_556 S
C710   H714    1.084   .     S
Cu711  O723    1.962   .     S
Cu711  Cu712   2.699   .     S
Cu711  N719    2.028   .     S
Cu711  O727    1.968   .     S
Cu711  O725    1.967   .     S
Cu711  O721    1.962   .     S
Cu712  N720    2.028   .     S
Cu712  O724    1.962   .     S
Cu712  O728    1.968   .     S
Cu712  O722    1.962   .     S
Cu712  O726    1.967   .     S
O729   H730    0.988   .     S
O731   H732    0.988   .     S
C733   N734    1.157   .     T
C735   N736    1.157   .     T
C737   N738    1.158   .     T
C739   N740    1.158   .     T
C741   N742    1.158   .     T
C743   N744    1.158   .     T
C745   N746    1.157   .     T
C747   N748    1.157   .     T
C749   O792    1.297   .     A
C749   O789    1.297   .     A
C749   C758    1.449   .     S
C750   O790    1.297   .     A
C750   O791    1.297   .     A
C750   C757    1.449   .     S
C751   C776    1.421   .     A
C751   C805    1.448   .     S
C752   C775    1.421   .     A
C752   C807    1.448   .     S
C752   C166    1.387   1_556 S
C753   H783    1.083   .     S
C753   C758    1.401   .     A
C754   C757    1.401   .     A
C754   H784    1.083   .     S
C754   C620    1.383   1_655 S
C755   C757    1.401   .     A
C755   H785    1.083   .     S
C755   C617    1.383   1_655 S
C756   H786    1.083   .     S
C756   C758    1.401   .     A
C759   C809    1.444   .     S
C759   N788    1.372   .     A
C759   C1170   1.427   1_545 S
C760   N787    1.372   .     A
C760   C811    1.444   .     S
C760   C965    1.427   .     S
C761   N788    1.373   .     A
C761   C813    1.444   .     S
C761   C1168   1.427   1_545 S
C762   C815    1.444   .     S
C762   N787    1.373   .     A
C762   C963    1.427   .     S
C763   O796    1.294   .     A
C763   O793    1.296   .     A
C763   C768    1.452   .     S
C764   C767    1.452   .     S
C764   O795    1.294   .     A
C764   O794    1.296   .     A
C765   C767    1.412   .     A
C765   O797    1.387   .     S
C765   C775    1.417   .     A
C766   O799    1.387   .     S
C766   C768    1.412   .     A
C766   C776    1.417   .     A
C767   C769    1.401   .     A
C768   C770    1.401   .     A
C769   C801    1.456   .     S
C769   C771    1.405   .     A
C770   C803    1.456   .     S
C770   C772    1.405   .     A
C771   C777    1.402   .     A
C771   C773    1.416   .     A
C772   C774    1.416   .     A
C772   C778    1.402   .     A
C773   C775    1.427   .     A
C773   C162    1.420   1_556 S
C774   C776    1.427   .     A
C777   H781    1.084   .     S
C777   C139    1.387   1_556 S
C778   H782    1.084   .     S
Cu779  O791    1.962   .     S
Cu779  Cu780   2.699   .     S
Cu779  N787    2.028   .     S
Cu779  O795    1.968   .     S
Cu779  O793    1.967   .     S
Cu779  O789    1.962   .     S
Cu780  N788    2.028   .     S
Cu780  O792    1.962   .     S
Cu780  O796    1.968   .     S
Cu780  O790    1.962   .     S
Cu780  O794    1.967   .     S
O797   H798    0.988   .     S
O799   H800    0.988   .     S
C801   N802    1.157   .     T
C803   N804    1.157   .     T
C805   N806    1.158   .     T
C807   N808    1.158   .     T
C809   N810    1.158   .     T
C811   N812    1.158   .     T
C813   N814    1.157   .     T
C815   N816    1.157   .     T
C817   O860    1.297   .     A
C817   O857    1.297   .     A
C817   C826    1.449   .     S
C818   O858    1.297   .     A
C818   O859    1.297   .     A
C818   C825    1.449   .     S
C819   C844    1.421   .     A
C819   C873    1.448   .     S
C820   C843    1.421   .     A
C820   C875    1.448   .     S
C820   C234    1.387   1_556 S
C821   H851    1.083   .     S
C821   C826    1.401   .     A
C821   C959    1.383   1_455 S
C822   C825    1.401   .     A
C822   H852    1.083   .     S
C822   C892    1.383   .     S
C823   C825    1.401   .     A
C823   H853    1.083   .     S
C823   C889    1.383   .     S
C824   H854    1.083   .     S
C824   C826    1.401   .     A
C824   C958    1.383   1_455 S
C827   C877    1.444   .     S
C827   N856    1.372   .     A
C828   N855    1.372   .     A
C828   C879    1.444   .     S
C828   C1033   1.427   .     S
C829   N856    1.373   .     A
C829   C881    1.444   .     S
C830   C883    1.444   .     S
C830   N855    1.373   .     A
C830   C1031   1.427   .     S
C831   O864    1.294   .     A
C831   O861    1.296   .     A
C831   C836    1.452   .     S
C832   C835    1.452   .     S
C832   O863    1.294   .     A
C832   O862    1.296   .     A
C833   C835    1.412   .     A
C833   O865    1.387   .     S
C833   C843    1.417   .     A
C834   O867    1.387   .     S
C834   C836    1.412   .     A
C834   C844    1.417   .     A
C835   C837    1.401   .     A
C836   C838    1.401   .     A
C837   C869    1.456   .     S
C837   C839    1.405   .     A
C838   C871    1.456   .     S
C838   C840    1.405   .     A
C839   C845    1.402   .     A
C839   C841    1.416   .     A
C840   C842    1.416   .     A
C840   C846    1.402   .     A
C841   C843    1.427   .     A
C841   C230    1.420   1_556 S
C842   C844    1.427   .     A
C845   H849    1.084   .     S
C845   C207    1.387   1_556 S
C846   H850    1.084   .     S
Cu847  O859    1.962   .     S
Cu847  Cu848   2.699   .     S
Cu847  N855    2.028   .     S
Cu847  O863    1.968   .     S
Cu847  O861    1.967   .     S
Cu847  O857    1.962   .     S
Cu848  N856    2.028   .     S
Cu848  O860    1.962   .     S
Cu848  O864    1.968   .     S
Cu848  O858    1.962   .     S
Cu848  O862    1.967   .     S
O865   H866    0.988   .     S
O867   H868    0.988   .     S
C869   N870    1.157   .     T
C871   N872    1.157   .     T
C873   N874    1.158   .     T
C875   N876    1.158   .     T
C877   N878    1.158   .     T
C879   N880    1.158   .     T
C881   N882    1.157   .     T
C883   N884    1.157   .     T
C885   O928    1.297   .     A
C885   O925    1.297   .     A
C885   C894    1.449   .     S
C886   O926    1.297   .     A
C886   O927    1.297   .     A
C886   C893    1.449   .     S
C887   C912    1.421   .     A
C887   C941    1.448   .     S
C888   C911    1.421   .     A
C888   C943    1.448   .     S
C888   C302    1.387   1_556 S
C889   H919    1.083   .     S
C889   C894    1.401   .     A
C890   C893    1.401   .     A
C890   H920    1.083   .     S
C890   C960    1.383   .     S
C891   C893    1.401   .     A
C891   H921    1.083   .     S
C891   C957    1.383   .     S
C892   H922    1.083   .     S
C892   C894    1.401   .     A
C895   C945    1.444   .     S
C895   N924    1.372   .     A
C896   N923    1.372   .     A
C896   C947    1.444   .     S
C896   C1101   1.427   .     S
C897   N924    1.373   .     A
C897   C949    1.444   .     S
C898   C951    1.444   .     S
C898   N923    1.373   .     A
C898   C1099   1.427   .     S
C899   O932    1.294   .     A
C899   O929    1.296   .     A
C899   C904    1.452   .     S
C900   C903    1.452   .     S
C900   O931    1.294   .     A
C900   O930    1.296   .     A
C901   C903    1.412   .     A
C901   O933    1.387   .     S
C901   C911    1.417   .     A
C902   O935    1.387   .     S
C902   C904    1.412   .     A
C902   C912    1.417   .     A
C903   C905    1.401   .     A
C904   C906    1.401   .     A
C905   C937    1.456   .     S
C905   C907    1.405   .     A
C906   C939    1.456   .     S
C906   C908    1.405   .     A
C907   C913    1.402   .     A
C907   C909    1.416   .     A
C908   C910    1.416   .     A
C908   C914    1.402   .     A
C909   C911    1.427   .     A
C909   C298    1.420   1_556 S
C910   C912    1.427   .     A
C913   H917    1.084   .     S
C913   C275    1.387   1_556 S
C914   H918    1.084   .     S
Cu915  O927    1.962   .     S
Cu915  Cu916   2.699   .     S
Cu915  N923    2.028   .     S
Cu915  O931    1.968   .     S
Cu915  O929    1.967   .     S
Cu915  O925    1.962   .     S
Cu916  N924    2.028   .     S
Cu916  O928    1.962   .     S
Cu916  O932    1.968   .     S
Cu916  O926    1.962   .     S
Cu916  O930    1.967   .     S
O933   H934    0.988   .     S
O935   H936    0.988   .     S
C937   N938    1.157   .     T
C939   N940    1.157   .     T
C941   N942    1.158   .     T
C943   N944    1.158   .     T
C945   N946    1.158   .     T
C947   N948    1.158   .     T
C949   N950    1.157   .     T
C951   N952    1.157   .     T
C953   O996    1.297   .     A
C953   O993    1.297   .     A
C953   C962    1.449   .     S
C954   O994    1.297   .     A
C954   O995    1.297   .     A
C954   C961    1.449   .     S
C955   C980    1.421   .     A
C955   C1009   1.448   .     S
C956   C979    1.421   .     A
C956   C1011   1.448   .     S
C956   C370    1.387   1_556 S
C957   H987    1.083   .     S
C957   C962    1.401   .     A
C958   C961    1.401   .     A
C958   H988    1.083   .     S
C958   C824    1.383   1_655 S
C959   C961    1.401   .     A
C959   H989    1.083   .     S
C959   C821    1.383   1_655 S
C960   H990    1.083   .     S
C960   C962    1.401   .     A
C963   C1013   1.444   .     S
C963   N992    1.372   .     A
C964   N991    1.372   .     A
C964   C1015   1.444   .     S
C964   C1169   1.427   .     S
C965   N992    1.373   .     A
C965   C1017   1.444   .     S
C966   C1019   1.444   .     S
C966   N991    1.373   .     A
C966   C1167   1.427   .     S
C967   O1000   1.294   .     A
C967   O997    1.296   .     A
C967   C972    1.452   .     S
C968   C971    1.452   .     S
C968   O999    1.294   .     A
C968   O998    1.296   .     A
C969   C971    1.412   .     A
C969   O1001   1.387   .     S
C969   C979    1.417   .     A
C970   O1003   1.387   .     S
C970   C972    1.412   .     A
C970   C980    1.417   .     A
C971   C973    1.401   .     A
C972   C974    1.401   .     A
C973   C1005   1.456   .     S
C973   C975    1.405   .     A
C974   C1007   1.456   .     S
C974   C976    1.405   .     A
C975   C981    1.402   .     A
C975   C977    1.416   .     A
C976   C978    1.416   .     A
C976   C982    1.402   .     A
C977   C979    1.427   .     A
C977   C366    1.420   1_556 S
C978   C980    1.427   .     A
C981   H985    1.084   .     S
C981   C343    1.387   1_556 S
C982   H986    1.084   .     S
Cu983  O995    1.962   .     S
Cu983  Cu984   2.699   .     S
Cu983  N991    2.028   .     S
Cu983  O999    1.968   .     S
Cu983  O997    1.967   .     S
Cu983  O993    1.962   .     S
Cu984  N992    2.028   .     S
Cu984  O996    1.962   .     S
Cu984  O1000   1.968   .     S
Cu984  O994    1.962   .     S
Cu984  O998    1.967   .     S
O1001  H1002   0.988   .     S
O1003  H1004   0.988   .     S
C1005  N1006   1.157   .     T
C1007  N1008   1.157   .     T
C1009  N1010   1.158   .     T
C1011  N1012   1.158   .     T
C1013  N1014   1.158   .     T
C1015  N1016   1.158   .     T
C1017  N1018   1.157   .     T
C1019  N1020   1.157   .     T
C1021  O1064   1.297   .     A
C1021  O1061   1.297   .     A
C1021  C1030   1.449   .     S
C1022  O1062   1.297   .     A
C1022  O1063   1.297   .     A
C1022  C1029   1.449   .     S
C1023  C1048   1.421   .     A
C1023  C1077   1.448   .     S
C1024  C1047   1.421   .     A
C1024  C1079   1.448   .     S
C1024  C438    1.387   1_556 S
C1025  H1055   1.083   .     S
C1025  C1030   1.401   .     A
C1025  C1163   1.383   1_455 S
C1026  C1029   1.401   .     A
C1026  H1056   1.083   .     S
C1026  C1096   1.383   .     S
C1027  C1029   1.401   .     A
C1027  H1057   1.083   .     S
C1027  C1093   1.383   .     S
C1028  H1058   1.083   .     S
C1028  C1030   1.401   .     A
C1028  C1162   1.383   1_455 S
C1031  C1081   1.444   .     S
C1031  N1060   1.372   .     A
C1032  N1059   1.372   .     A
C1032  C1083   1.444   .     S
C1032  C625    1.427   1_565 S
C1033  N1060   1.373   .     A
C1033  C1085   1.444   .     S
C1034  C1087   1.444   .     S
C1034  N1059   1.373   .     A
C1034  C623    1.427   1_565 S
C1035  O1068   1.294   .     A
C1035  O1065   1.296   .     A
C1035  C1040   1.452   .     S
C1036  C1039   1.452   .     S
C1036  O1067   1.294   .     A
C1036  O1066   1.296   .     A
C1037  C1039   1.412   .     A
C1037  O1069   1.387   .     S
C1037  C1047   1.417   .     A
C1038  O1071   1.387   .     S
C1038  C1040   1.412   .     A
C1038  C1048   1.417   .     A
C1039  C1041   1.401   .     A
C1040  C1042   1.401   .     A
C1041  C1073   1.456   .     S
C1041  C1043   1.405   .     A
C1042  C1075   1.456   .     S
C1042  C1044   1.405   .     A
C1043  C1049   1.402   .     A
C1043  C1045   1.416   .     A
C1044  C1046   1.416   .     A
C1044  C1050   1.402   .     A
C1045  C1047   1.427   .     A
C1045  C434    1.420   1_556 S
C1046  C1048   1.427   .     A
C1049  H1053   1.084   .     S
C1049  C411    1.387   1_556 S
C1050  H1054   1.084   .     S
Cu1051 O1063   1.962   .     S
Cu1051 Cu1052  2.699   .     S
Cu1051 N1059   2.028   .     S
Cu1051 O1067   1.968   .     S
Cu1051 O1065   1.967   .     S
Cu1051 O1061   1.962   .     S
Cu1052 N1060   2.028   .     S
Cu1052 O1064   1.962   .     S
Cu1052 O1068   1.968   .     S
Cu1052 O1062   1.962   .     S
Cu1052 O1066   1.967   .     S
O1069  H1070   0.988   .     S
O1071  H1072   0.988   .     S
C1073  N1074   1.157   .     T
C1075  N1076   1.157   .     T
C1077  N1078   1.158   .     T
C1079  N1080   1.158   .     T
C1081  N1082   1.158   .     T
C1083  N1084   1.158   .     T
C1085  N1086   1.157   .     T
C1087  N1088   1.157   .     T
C1089  O1132   1.297   .     A
C1089  O1129   1.297   .     A
C1089  C1098   1.449   .     S
C1090  O1130   1.297   .     A
C1090  O1131   1.297   .     A
C1090  C1097   1.449   .     S
C1091  C1116   1.421   .     A
C1091  C1145   1.448   .     S
C1092  C1115   1.421   .     A
C1092  C1147   1.448   .     S
C1092  C506    1.387   1_556 S
C1093  H1123   1.083   .     S
C1093  C1098   1.401   .     A
C1094  C1097   1.401   .     A
C1094  H1124   1.083   .     S
C1094  C1164   1.383   .     S
C1095  C1097   1.401   .     A
C1095  H1125   1.083   .     S
C1095  C1161   1.383   .     S
C1096  H1126   1.083   .     S
C1096  C1098   1.401   .     A
C1099  C1149   1.444   .     S
C1099  N1128   1.372   .     A
C1100  N1127   1.372   .     A
C1100  C1151   1.444   .     S
C1100  C693    1.427   1_565 S
C1101  N1128   1.373   .     A
C1101  C1153   1.444   .     S
C1102  C1155   1.444   .     S
C1102  N1127   1.373   .     A
C1102  C691    1.427   1_565 S
C1103  O1136   1.294   .     A
C1103  O1133   1.296   .     A
C1103  C1108   1.452   .     S
C1104  C1107   1.452   .     S
C1104  O1135   1.294   .     A
C1104  O1134   1.296   .     A
C1105  C1107   1.412   .     A
C1105  O1137   1.387   .     S
C1105  C1115   1.417   .     A
C1106  O1139   1.387   .     S
C1106  C1108   1.412   .     A
C1106  C1116   1.417   .     A
C1107  C1109   1.401   .     A
C1108  C1110   1.401   .     A
C1109  C1141   1.456   .     S
C1109  C1111   1.405   .     A
C1110  C1143   1.456   .     S
C1110  C1112   1.405   .     A
C1111  C1117   1.402   .     A
C1111  C1113   1.416   .     A
C1112  C1114   1.416   .     A
C1112  C1118   1.402   .     A
C1113  C1115   1.427   .     A
C1113  C502    1.420   1_556 S
C1114  C1116   1.427   .     A
C1117  H1121   1.084   .     S
C1117  C479    1.387   1_556 S
C1118  H1122   1.084   .     S
Cu1119 O1131   1.962   .     S
Cu1119 Cu1120  2.699   .     S
Cu1119 N1127   2.028   .     S
Cu1119 O1135   1.968   .     S
Cu1119 O1133   1.967   .     S
Cu1119 O1129   1.962   .     S
Cu1120 N1128   2.028   .     S
Cu1120 O1132   1.962   .     S
Cu1120 O1136   1.968   .     S
Cu1120 O1130   1.962   .     S
Cu1120 O1134   1.967   .     S
O1137  H1138   0.988   .     S
O1139  H1140   0.988   .     S
C1141  N1142   1.157   .     T
C1143  N1144   1.157   .     T
C1145  N1146   1.158   .     T
C1147  N1148   1.158   .     T
C1149  N1150   1.158   .     T
C1151  N1152   1.158   .     T
C1153  N1154   1.157   .     T
C1155  N1156   1.157   .     T
C1157  O1200   1.297   .     A
C1157  O1197   1.297   .     A
C1157  C1166   1.449   .     S
C1158  O1198   1.297   .     A
C1158  O1199   1.297   .     A
C1158  C1165   1.449   .     S
C1159  C1184   1.421   .     A
C1159  C1213   1.448   .     S
C1160  C1183   1.421   .     A
C1160  C1215   1.448   .     S
C1160  C574    1.387   1_556 S
C1161  H1191   1.083   .     S
C1161  C1166   1.401   .     A
C1162  C1165   1.401   .     A
C1162  H1192   1.083   .     S
C1162  C1028   1.383   1_655 S
C1163  C1165   1.401   .     A
C1163  H1193   1.083   .     S
C1163  C1025   1.383   1_655 S
C1164  H1194   1.083   .     S
C1164  C1166   1.401   .     A
C1167  C1217   1.444   .     S
C1167  N1196   1.372   .     A
C1168  N1195   1.372   .     A
C1168  C1219   1.444   .     S
C1168  C761    1.427   1_565 S
C1169  N1196   1.373   .     A
C1169  C1221   1.444   .     S
C1170  C1223   1.444   .     S
C1170  N1195   1.373   .     A
C1170  C759    1.427   1_565 S
C1171  O1204   1.294   .     A
C1171  O1201   1.296   .     A
C1171  C1176   1.452   .     S
C1172  C1175   1.452   .     S
C1172  O1203   1.294   .     A
C1172  O1202   1.296   .     A
C1173  C1175   1.412   .     A
C1173  O1205   1.387   .     S
C1173  C1183   1.417   .     A
C1174  O1207   1.387   .     S
C1174  C1176   1.412   .     A
C1174  C1184   1.417   .     A
C1175  C1177   1.401   .     A
C1176  C1178   1.401   .     A
C1177  C1209   1.456   .     S
C1177  C1179   1.405   .     A
C1178  C1211   1.456   .     S
C1178  C1180   1.405   .     A
C1179  C1185   1.402   .     A
C1179  C1181   1.416   .     A
C1180  C1182   1.416   .     A
C1180  C1186   1.402   .     A
C1181  C1183   1.427   .     A
C1181  C570    1.420   1_556 S
C1182  C1184   1.427   .     A
C1185  H1189   1.084   .     S
C1185  C547    1.387   1_556 S
C1186  H1190   1.084   .     S
Cu1187 O1199   1.962   .     S
Cu1187 Cu1188  2.699   .     S
Cu1187 N1195   2.028   .     S
Cu1187 O1203   1.968   .     S
Cu1187 O1201   1.967   .     S
Cu1187 O1197   1.962   .     S
Cu1188 N1196   2.028   .     S
Cu1188 O1200   1.962   .     S
Cu1188 O1204   1.968   .     S
Cu1188 O1198   1.962   .     S
Cu1188 O1202   1.967   .     S
O1205  H1206   0.988   .     S
O1207  H1208   0.988   .     S
C1209  N1210   1.157   .     T
C1211  N1212   1.157   .     T
C1213  N1214   1.158   .     T
C1215  N1216   1.158   .     T
C1217  N1218   1.158   .     T
C1219  N1220   1.158   .     T
C1221  N1222   1.157   .     T
C1223  N1224   1.157   .     T
