data_str_m2_o1_o1_pcu_sym.37
_audit_creation_date              2020-01-03
_audit_creation_method            'Materials Studio'
_symmetry_space_group_name_H-M    'P1'
_symmetry_Int_Tables_number       1
_symmetry_cell_setting            triclinic
loop_
_symmetry_equiv_pos_as_xyz
  x,y,z
_cell_length_a                    31.7269
_cell_length_b                    29.7382
_cell_length_c                    28.8827
_cell_angle_alpha                 90.0025
_cell_angle_beta                  89.9483
_cell_angle_gamma                 89.9991
loop_
_atom_site_label
_atom_site_type_symbol
_atom_site_fract_x
_atom_site_fract_y
_atom_site_fract_z
_atom_site_U_iso_or_equiv
_atom_site_adp_type
_atom_site_occupancy
C1     C     0.05944   0.19065   0.16662   0.00000  Uiso   1.00
C2     C     0.00133   0.28967   0.30860   0.00000  Uiso   1.00
C3     C     0.49867   0.28967   0.02474   0.00000  Uiso   1.00
C4     C     0.00133   0.21033   0.30859   0.00000  Uiso   1.00
C5     C     0.24868   0.46033   0.02474   0.00000  Uiso   1.00
C6     C     0.25133   0.03967   0.30860   0.00000  Uiso   1.00
C7     C     0.24867   0.03967   0.02474   0.00000  Uiso   1.00
C8     C     0.25133   0.46033   0.30859   0.00000  Uiso   1.00
C9     C     0.38355   0.14947   0.12635   0.00000  Uiso   1.00
C10    C     0.11641   0.35059   0.20701   0.00000  Uiso   1.00
C11    C     0.10214   0.36719   0.12608   0.00000  Uiso   1.00
C12    C     0.44056   0.30934   0.16671   0.00000  Uiso   1.00
C13    C     0.39790   0.13276   0.20723   0.00000  Uiso   1.00
C14    C     0.11646   0.14948   0.20699   0.00000  Uiso   1.00
C15    C     0.38350   0.35048   0.12637   0.00000  Uiso   1.00
C16    C     0.39794   0.36729   0.20721   0.00000  Uiso   1.00
C17    C     0.10209   0.13274   0.12610   0.00000  Uiso   1.00
C18    C     0.13359   0.39941   0.12632   0.00000  Uiso   1.00
C19    C     0.36645   0.10054   0.20699   0.00000  Uiso   1.00
C20    C     0.35210   0.11725   0.12610   0.00000  Uiso   1.00
C21    C     0.14785   0.38281   0.20726   0.00000  Uiso   1.00
C22    C     0.36649   0.39951   0.20697   0.00000  Uiso   1.00
C23    C     0.44056   0.19066   0.16671   0.00000  Uiso   1.00
C24    C     0.13354   0.10053   0.12635   0.00000  Uiso   1.00
C25    C     0.14791   0.11726   0.20723   0.00000  Uiso   1.00
C26    C     0.35205   0.38270   0.12612   0.00000  Uiso   1.00
C27    C     0.09308   0.34270   0.16652   0.00000  Uiso   1.00
C28    C     0.40692   0.15731   0.16681   0.00000  Uiso   1.00
C29    C     0.40692   0.34269   0.16681   0.00000  Uiso   1.00
C30    C     0.09308   0.15730   0.16652   0.00000  Uiso   1.00
C31    C     0.34307   0.09270   0.16652   0.00000  Uiso   1.00
C32    C     0.15692   0.40731   0.16681   0.00000  Uiso   1.00
C33    C     0.15693   0.09270   0.16681   0.00000  Uiso   1.00
C34    C     0.05944   0.30934   0.16662   0.00000  Uiso   1.00
C35    C     0.34307   0.40730   0.16652   0.00000  Uiso   1.00
C36    C     0.48978   0.16725   0.04890   0.00000  Uiso   1.00
C37    C     0.01022   0.33275   0.28444   0.00000  Uiso   1.00
C38    C     0.48976   0.33274   0.04891   0.00000  Uiso   1.00
C39    C     0.01025   0.16726   0.28443   0.00000  Uiso   1.00
C40    C     0.23978   0.41725   0.04889   0.00000  Uiso   1.00
C41    C     0.26023   0.08274   0.28444   0.00000  Uiso   1.00
C42    C     0.23976   0.08274   0.04890   0.00000  Uiso   1.00
C43    C     0.26024   0.41726   0.28443   0.00000  Uiso   1.00
C44    C     0.30944   0.44065   0.16662   0.00000  Uiso   1.00
C45    C     0.19056   0.05935   0.16671   0.00000  Uiso   1.00
C46    C     0.19056   0.44066   0.16671   0.00000  Uiso   1.00
C47    C     0.30944   0.05935   0.16662   0.00000  Uiso   1.00
C48    C     0.49868   0.21033   0.02474   0.00000  Uiso   1.00
Cu49   Cu    0.00000   0.25000   0.21355   0.00000  Uiso   1.00
Cu50   Cu    0.00000   0.25000   0.11978   0.00000  Uiso   1.00
Cu51   Cu    0.25000  -0.00000   0.21355   0.00000  Uiso   1.00
Cu52   Cu    0.25000   0.00000   0.11978   0.00000  Uiso   1.00
F53    F     0.39026   0.17356   0.08707   0.00000  Uiso   1.00
F54    F     0.35973   0.07645   0.24627   0.00000  Uiso   1.00
F55    F     0.33038   0.11074   0.08622   0.00000  Uiso   1.00
F56    F     0.16952   0.38937   0.24717   0.00000  Uiso   1.00
F57    F     0.35981   0.42365   0.24622   0.00000  Uiso   1.00
F58    F     0.14025   0.07643   0.08707   0.00000  Uiso   1.00
F59    F     0.16964   0.11077   0.24711   0.00000  Uiso   1.00
F60    F     0.33029   0.38915   0.08626   0.00000  Uiso   1.00
F61    F     0.10965   0.32656   0.24632   0.00000  Uiso   1.00
F62    F     0.08048   0.36063   0.08617   0.00000  Uiso   1.00
F63    F     0.41961   0.13927   0.24712   0.00000  Uiso   1.00
F64    F     0.10975   0.17358   0.24627   0.00000  Uiso   1.00
F65    F     0.39017   0.32633   0.08712   0.00000  Uiso   1.00
F66    F     0.41970   0.36084   0.24708   0.00000  Uiso   1.00
F67    F     0.08037   0.13924   0.08622   0.00000  Uiso   1.00
F68    F     0.14034   0.42345   0.08702   0.00000  Uiso   1.00
H69    H     0.00348   0.15921   0.08183   0.00000  Uiso   1.00
H70    H     0.49656   0.34077   0.25148   0.00000  Uiso   1.00
H71    H     0.00352   0.34082   0.08180   0.00000  Uiso   1.00
H72    H     0.49651   0.15919   0.25152   0.00000  Uiso   1.00
H73    H     0.25346   0.40921   0.08183   0.00000  Uiso   1.00
H74    H     0.24653   0.09079   0.25150   0.00000  Uiso   1.00
H75    H     0.25348   0.09080   0.08182   0.00000  Uiso   1.00
H76    H     0.24649   0.40918   0.25153   0.00000  Uiso   1.00
N77    N     0.00000   0.25000   0.28402   0.00000  Uiso   1.00
N78    N     0.00000   0.25000   0.04931   0.00000  Uiso   1.00
N79    N     0.25000  -0.00000   0.28402   0.00000  Uiso   1.00
N80    N     0.25000   0.00000   0.04931   0.00000  Uiso   1.00
O81    O     0.04509   0.20491   0.20625   0.00000  Uiso   1.00
O82    O     0.20492   0.04509   0.12709   0.00000  Uiso   1.00
O83    O     0.20492   0.04509   0.20625   0.00000  Uiso   1.00
O84    O     0.29509   0.45491   0.12709   0.00000  Uiso   1.00
O85    O     0.20492   0.45491   0.12709   0.00000  Uiso   1.00
O86    O     0.29509   0.04509   0.20625   0.00000  Uiso   1.00
O87    O     0.29509   0.04509   0.12709   0.00000  Uiso   1.00
O88    O     0.20492   0.45491   0.20625   0.00000  Uiso   1.00
O89    O     0.46547   0.13992   0.03208   0.00000  Uiso   1.00
O90    O     0.03449   0.36011   0.30127   0.00000  Uiso   1.00
O91    O     0.46538   0.36003   0.03215   0.00000  Uiso   1.00
O92    O     0.45492   0.29509   0.12709   0.00000  Uiso   1.00
O93    O     0.03462   0.13997   0.30121   0.00000  Uiso   1.00
O94    O     0.21547   0.38991   0.03207   0.00000  Uiso   1.00
O95    O     0.28454   0.11008   0.30125   0.00000  Uiso   1.00
O96    O     0.21542   0.11005   0.03211   0.00000  Uiso   1.00
O97    O     0.28463   0.38998   0.30119   0.00000  Uiso   1.00
O98    O     0.45492   0.29509   0.20625   0.00000  Uiso   1.00
O99    O     0.04509   0.20491   0.12709   0.00000  Uiso   1.00
O100   O     0.45492   0.20491   0.12709   0.00000  Uiso   1.00
O101   O     0.04509   0.29509   0.20625   0.00000  Uiso   1.00
O102   O     0.04509   0.29509   0.12709   0.00000  Uiso   1.00
O103   O     0.45492   0.20491   0.20625   0.00000  Uiso   1.00
O104   O     0.29509   0.45491   0.20625   0.00000  Uiso   1.00
C105   C     0.55944   0.19065   0.16662   0.00000  Uiso   1.00
C106   C     0.50133   0.28967   0.30860   0.00000  Uiso   1.00
C107   C     0.99867   0.28967   0.02474   0.00000  Uiso   1.00
C108   C     0.50133   0.21033   0.30859   0.00000  Uiso   1.00
C109   C     0.74868   0.46033   0.02474   0.00000  Uiso   1.00
C110   C     0.75133   0.03967   0.30860   0.00000  Uiso   1.00
C111   C     0.74867   0.03967   0.02474   0.00000  Uiso   1.00
C112   C     0.75133   0.46033   0.30859   0.00000  Uiso   1.00
C113   C     0.88355   0.14947   0.12635   0.00000  Uiso   1.00
C114   C     0.61641   0.35059   0.20701   0.00000  Uiso   1.00
C115   C     0.60214   0.36719   0.12608   0.00000  Uiso   1.00
C116   C     0.94056   0.30934   0.16671   0.00000  Uiso   1.00
C117   C     0.89790   0.13276   0.20723   0.00000  Uiso   1.00
C118   C     0.61646   0.14948   0.20699   0.00000  Uiso   1.00
C119   C     0.88350   0.35048   0.12637   0.00000  Uiso   1.00
C120   C     0.89794   0.36729   0.20721   0.00000  Uiso   1.00
C121   C     0.60209   0.13274   0.12610   0.00000  Uiso   1.00
C122   C     0.63359   0.39941   0.12632   0.00000  Uiso   1.00
C123   C     0.86645   0.10054   0.20699   0.00000  Uiso   1.00
C124   C     0.85210   0.11725   0.12610   0.00000  Uiso   1.00
C125   C     0.64785   0.38281   0.20726   0.00000  Uiso   1.00
C126   C     0.86649   0.39951   0.20697   0.00000  Uiso   1.00
C127   C     0.94056   0.19066   0.16671   0.00000  Uiso   1.00
C128   C     0.63354   0.10053   0.12635   0.00000  Uiso   1.00
C129   C     0.64791   0.11726   0.20723   0.00000  Uiso   1.00
C130   C     0.85205   0.38270   0.12612   0.00000  Uiso   1.00
C131   C     0.59308   0.34270   0.16652   0.00000  Uiso   1.00
C132   C     0.90692   0.15731   0.16681   0.00000  Uiso   1.00
C133   C     0.90692   0.34269   0.16681   0.00000  Uiso   1.00
C134   C     0.59308   0.15730   0.16652   0.00000  Uiso   1.00
C135   C     0.84307   0.09270   0.16652   0.00000  Uiso   1.00
C136   C     0.65692   0.40731   0.16681   0.00000  Uiso   1.00
C137   C     0.65693   0.09270   0.16681   0.00000  Uiso   1.00
C138   C     0.55944   0.30934   0.16662   0.00000  Uiso   1.00
C139   C     0.84307   0.40730   0.16652   0.00000  Uiso   1.00
C140   C     0.98978   0.16725   0.04890   0.00000  Uiso   1.00
C141   C     0.51022   0.33275   0.28444   0.00000  Uiso   1.00
C142   C     0.98976   0.33274   0.04891   0.00000  Uiso   1.00
C143   C     0.51025   0.16726   0.28443   0.00000  Uiso   1.00
C144   C     0.73978   0.41725   0.04889   0.00000  Uiso   1.00
C145   C     0.76023   0.08274   0.28444   0.00000  Uiso   1.00
C146   C     0.73976   0.08274   0.04890   0.00000  Uiso   1.00
C147   C     0.76024   0.41726   0.28443   0.00000  Uiso   1.00
C148   C     0.80944   0.44065   0.16662   0.00000  Uiso   1.00
C149   C     0.69056   0.05935   0.16671   0.00000  Uiso   1.00
C150   C     0.69056   0.44066   0.16671   0.00000  Uiso   1.00
C151   C     0.80944   0.05935   0.16662   0.00000  Uiso   1.00
C152   C     0.99868   0.21033   0.02474   0.00000  Uiso   1.00
Cu153  Cu    0.50000   0.25000   0.21355   0.00000  Uiso   1.00
Cu154  Cu    0.50000   0.25000   0.11978   0.00000  Uiso   1.00
Cu155  Cu    0.75000  -0.00000   0.21355   0.00000  Uiso   1.00
Cu156  Cu    0.75000   0.00000   0.11978   0.00000  Uiso   1.00
F157   F     0.89026   0.17356   0.08707   0.00000  Uiso   1.00
F158   F     0.85973   0.07645   0.24627   0.00000  Uiso   1.00
F159   F     0.83038   0.11074   0.08622   0.00000  Uiso   1.00
F160   F     0.66952   0.38937   0.24717   0.00000  Uiso   1.00
F161   F     0.85981   0.42365   0.24622   0.00000  Uiso   1.00
F162   F     0.64025   0.07643   0.08707   0.00000  Uiso   1.00
F163   F     0.66964   0.11077   0.24711   0.00000  Uiso   1.00
F164   F     0.83029   0.38915   0.08626   0.00000  Uiso   1.00
F165   F     0.60965   0.32656   0.24632   0.00000  Uiso   1.00
F166   F     0.58048   0.36063   0.08617   0.00000  Uiso   1.00
F167   F     0.91961   0.13927   0.24712   0.00000  Uiso   1.00
F168   F     0.60975   0.17358   0.24627   0.00000  Uiso   1.00
F169   F     0.89017   0.32633   0.08712   0.00000  Uiso   1.00
F170   F     0.91970   0.36084   0.24708   0.00000  Uiso   1.00
F171   F     0.58037   0.13924   0.08622   0.00000  Uiso   1.00
F172   F     0.64034   0.42345   0.08702   0.00000  Uiso   1.00
H173   H     0.50348   0.15921   0.08183   0.00000  Uiso   1.00
H174   H     0.99656   0.34077   0.25148   0.00000  Uiso   1.00
H175   H     0.50352   0.34082   0.08180   0.00000  Uiso   1.00
H176   H     0.99651   0.15919   0.25152   0.00000  Uiso   1.00
H177   H     0.75346   0.40921   0.08183   0.00000  Uiso   1.00
H178   H     0.74653   0.09079   0.25150   0.00000  Uiso   1.00
H179   H     0.75348   0.09080   0.08182   0.00000  Uiso   1.00
H180   H     0.74649   0.40918   0.25153   0.00000  Uiso   1.00
N181   N     0.50000   0.25000   0.28402   0.00000  Uiso   1.00
N182   N     0.50000   0.25000   0.04931   0.00000  Uiso   1.00
N183   N     0.75000  -0.00000   0.28402   0.00000  Uiso   1.00
N184   N     0.75000   0.00000   0.04931   0.00000  Uiso   1.00
O185   O     0.54509   0.20491   0.20625   0.00000  Uiso   1.00
O186   O     0.70492   0.04509   0.12709   0.00000  Uiso   1.00
O187   O     0.70492   0.04509   0.20625   0.00000  Uiso   1.00
O188   O     0.79509   0.45491   0.12709   0.00000  Uiso   1.00
O189   O     0.70492   0.45491   0.12709   0.00000  Uiso   1.00
O190   O     0.79509   0.04509   0.20625   0.00000  Uiso   1.00
O191   O     0.79509   0.04509   0.12709   0.00000  Uiso   1.00
O192   O     0.70492   0.45491   0.20625   0.00000  Uiso   1.00
O193   O     0.96547   0.13992   0.03208   0.00000  Uiso   1.00
O194   O     0.53449   0.36011   0.30127   0.00000  Uiso   1.00
O195   O     0.96538   0.36003   0.03215   0.00000  Uiso   1.00
O196   O     0.95492   0.29509   0.12709   0.00000  Uiso   1.00
O197   O     0.53462   0.13997   0.30121   0.00000  Uiso   1.00
O198   O     0.71547   0.38991   0.03207   0.00000  Uiso   1.00
O199   O     0.78454   0.11008   0.30125   0.00000  Uiso   1.00
O200   O     0.71542   0.11005   0.03211   0.00000  Uiso   1.00
O201   O     0.78463   0.38998   0.30119   0.00000  Uiso   1.00
O202   O     0.95492   0.29509   0.20625   0.00000  Uiso   1.00
O203   O     0.54509   0.20491   0.12709   0.00000  Uiso   1.00
O204   O     0.95492   0.20491   0.12709   0.00000  Uiso   1.00
O205   O     0.54509   0.29509   0.20625   0.00000  Uiso   1.00
O206   O     0.54509   0.29509   0.12709   0.00000  Uiso   1.00
O207   O     0.95492   0.20491   0.20625   0.00000  Uiso   1.00
O208   O     0.79509   0.45491   0.20625   0.00000  Uiso   1.00
C209   C     0.05944   0.69065   0.16662   0.00000  Uiso   1.00
C210   C     0.00133   0.78967   0.30860   0.00000  Uiso   1.00
C211   C     0.49867   0.78967   0.02474   0.00000  Uiso   1.00
C212   C     0.00133   0.71033   0.30859   0.00000  Uiso   1.00
C213   C     0.24868   0.96033   0.02474   0.00000  Uiso   1.00
C214   C     0.25133   0.53967   0.30860   0.00000  Uiso   1.00
C215   C     0.24867   0.53967   0.02474   0.00000  Uiso   1.00
C216   C     0.25133   0.96033   0.30859   0.00000  Uiso   1.00
C217   C     0.38355   0.64947   0.12635   0.00000  Uiso   1.00
C218   C     0.11641   0.85059   0.20701   0.00000  Uiso   1.00
C219   C     0.10214   0.86719   0.12608   0.00000  Uiso   1.00
C220   C     0.44056   0.80934   0.16671   0.00000  Uiso   1.00
C221   C     0.39790   0.63276   0.20723   0.00000  Uiso   1.00
C222   C     0.11646   0.64948   0.20699   0.00000  Uiso   1.00
C223   C     0.38350   0.85048   0.12637   0.00000  Uiso   1.00
C224   C     0.39794   0.86729   0.20721   0.00000  Uiso   1.00
C225   C     0.10209   0.63274   0.12610   0.00000  Uiso   1.00
C226   C     0.13359   0.89941   0.12632   0.00000  Uiso   1.00
C227   C     0.36645   0.60054   0.20699   0.00000  Uiso   1.00
C228   C     0.35210   0.61725   0.12610   0.00000  Uiso   1.00
C229   C     0.14785   0.88281   0.20726   0.00000  Uiso   1.00
C230   C     0.36649   0.89951   0.20697   0.00000  Uiso   1.00
C231   C     0.44056   0.69066   0.16671   0.00000  Uiso   1.00
C232   C     0.13354   0.60053   0.12635   0.00000  Uiso   1.00
C233   C     0.14791   0.61726   0.20723   0.00000  Uiso   1.00
C234   C     0.35205   0.88270   0.12612   0.00000  Uiso   1.00
C235   C     0.09308   0.84270   0.16652   0.00000  Uiso   1.00
C236   C     0.40692   0.65731   0.16681   0.00000  Uiso   1.00
C237   C     0.40692   0.84269   0.16681   0.00000  Uiso   1.00
C238   C     0.09308   0.65730   0.16652   0.00000  Uiso   1.00
C239   C     0.34307   0.59270   0.16652   0.00000  Uiso   1.00
C240   C     0.15692   0.90731   0.16681   0.00000  Uiso   1.00
C241   C     0.15693   0.59270   0.16681   0.00000  Uiso   1.00
C242   C     0.05944   0.80934   0.16662   0.00000  Uiso   1.00
C243   C     0.34307   0.90730   0.16652   0.00000  Uiso   1.00
C244   C     0.48978   0.66725   0.04890   0.00000  Uiso   1.00
C245   C     0.01022   0.83275   0.28444   0.00000  Uiso   1.00
C246   C     0.48976   0.83274   0.04891   0.00000  Uiso   1.00
C247   C     0.01025   0.66726   0.28443   0.00000  Uiso   1.00
C248   C     0.23978   0.91725   0.04889   0.00000  Uiso   1.00
C249   C     0.26023   0.58274   0.28444   0.00000  Uiso   1.00
C250   C     0.23976   0.58274   0.04890   0.00000  Uiso   1.00
C251   C     0.26024   0.91726   0.28443   0.00000  Uiso   1.00
C252   C     0.30944   0.94065   0.16662   0.00000  Uiso   1.00
C253   C     0.19056   0.55935   0.16671   0.00000  Uiso   1.00
C254   C     0.19056   0.94066   0.16671   0.00000  Uiso   1.00
C255   C     0.30944   0.55935   0.16662   0.00000  Uiso   1.00
C256   C     0.49868   0.71033   0.02474   0.00000  Uiso   1.00
Cu257  Cu    0.00000   0.75000   0.21355   0.00000  Uiso   1.00
Cu258  Cu    0.00000   0.75000   0.11978   0.00000  Uiso   1.00
Cu259  Cu    0.25000   0.50000   0.21355   0.00000  Uiso   1.00
Cu260  Cu    0.25000   0.50000   0.11978   0.00000  Uiso   1.00
F261   F     0.39026   0.67356   0.08707   0.00000  Uiso   1.00
F262   F     0.35973   0.57645   0.24627   0.00000  Uiso   1.00
F263   F     0.33038   0.61074   0.08622   0.00000  Uiso   1.00
F264   F     0.16952   0.88937   0.24717   0.00000  Uiso   1.00
F265   F     0.35981   0.92365   0.24622   0.00000  Uiso   1.00
F266   F     0.14025   0.57643   0.08707   0.00000  Uiso   1.00
F267   F     0.16964   0.61077   0.24711   0.00000  Uiso   1.00
F268   F     0.33029   0.88915   0.08626   0.00000  Uiso   1.00
F269   F     0.10965   0.82656   0.24632   0.00000  Uiso   1.00
F270   F     0.08048   0.86063   0.08617   0.00000  Uiso   1.00
F271   F     0.41961   0.63927   0.24712   0.00000  Uiso   1.00
F272   F     0.10975   0.67358   0.24627   0.00000  Uiso   1.00
F273   F     0.39017   0.82633   0.08712   0.00000  Uiso   1.00
F274   F     0.41970   0.86084   0.24708   0.00000  Uiso   1.00
F275   F     0.08037   0.63924   0.08622   0.00000  Uiso   1.00
F276   F     0.14034   0.92345   0.08702   0.00000  Uiso   1.00
H277   H     0.00348   0.65921   0.08183   0.00000  Uiso   1.00
H278   H     0.49656   0.84077   0.25148   0.00000  Uiso   1.00
H279   H     0.00352   0.84082   0.08180   0.00000  Uiso   1.00
H280   H     0.49651   0.65919   0.25152   0.00000  Uiso   1.00
H281   H     0.25346   0.90921   0.08183   0.00000  Uiso   1.00
H282   H     0.24653   0.59079   0.25150   0.00000  Uiso   1.00
H283   H     0.25348   0.59080   0.08182   0.00000  Uiso   1.00
H284   H     0.24649   0.90918   0.25153   0.00000  Uiso   1.00
N285   N     0.00000   0.75000   0.28402   0.00000  Uiso   1.00
N286   N     0.00000   0.75000   0.04931   0.00000  Uiso   1.00
N287   N     0.25000   0.50000   0.28402   0.00000  Uiso   1.00
N288   N     0.25000   0.50000   0.04931   0.00000  Uiso   1.00
O289   O     0.04509   0.70491   0.20625   0.00000  Uiso   1.00
O290   O     0.20492   0.54509   0.12709   0.00000  Uiso   1.00
O291   O     0.20492   0.54509   0.20625   0.00000  Uiso   1.00
O292   O     0.29509   0.95491   0.12709   0.00000  Uiso   1.00
O293   O     0.20492   0.95491   0.12709   0.00000  Uiso   1.00
O294   O     0.29509   0.54509   0.20625   0.00000  Uiso   1.00
O295   O     0.29509   0.54509   0.12709   0.00000  Uiso   1.00
O296   O     0.20492   0.95491   0.20625   0.00000  Uiso   1.00
O297   O     0.46547   0.63992   0.03208   0.00000  Uiso   1.00
O298   O     0.03449   0.86011   0.30127   0.00000  Uiso   1.00
O299   O     0.46538   0.86003   0.03215   0.00000  Uiso   1.00
O300   O     0.45492   0.79509   0.12709   0.00000  Uiso   1.00
O301   O     0.03462   0.63997   0.30121   0.00000  Uiso   1.00
O302   O     0.21547   0.88991   0.03207   0.00000  Uiso   1.00
O303   O     0.28454   0.61008   0.30125   0.00000  Uiso   1.00
O304   O     0.21542   0.61005   0.03211   0.00000  Uiso   1.00
O305   O     0.28463   0.88998   0.30119   0.00000  Uiso   1.00
O306   O     0.45492   0.79509   0.20625   0.00000  Uiso   1.00
O307   O     0.04509   0.70491   0.12709   0.00000  Uiso   1.00
O308   O     0.45492   0.70491   0.12709   0.00000  Uiso   1.00
O309   O     0.04509   0.79509   0.20625   0.00000  Uiso   1.00
O310   O     0.04509   0.79509   0.12709   0.00000  Uiso   1.00
O311   O     0.45492   0.70491   0.20625   0.00000  Uiso   1.00
O312   O     0.29509   0.95491   0.20625   0.00000  Uiso   1.00
C313   C     0.55944   0.69065   0.16662   0.00000  Uiso   1.00
C314   C     0.50133   0.78967   0.30860   0.00000  Uiso   1.00
C315   C     0.99867   0.78967   0.02474   0.00000  Uiso   1.00
C316   C     0.50133   0.71033   0.30859   0.00000  Uiso   1.00
C317   C     0.74868   0.96033   0.02474   0.00000  Uiso   1.00
C318   C     0.75133   0.53967   0.30860   0.00000  Uiso   1.00
C319   C     0.74867   0.53967   0.02474   0.00000  Uiso   1.00
C320   C     0.75133   0.96033   0.30859   0.00000  Uiso   1.00
C321   C     0.88355   0.64947   0.12635   0.00000  Uiso   1.00
C322   C     0.61641   0.85059   0.20701   0.00000  Uiso   1.00
C323   C     0.60214   0.86719   0.12608   0.00000  Uiso   1.00
C324   C     0.94056   0.80934   0.16671   0.00000  Uiso   1.00
C325   C     0.89790   0.63276   0.20723   0.00000  Uiso   1.00
C326   C     0.61646   0.64948   0.20699   0.00000  Uiso   1.00
C327   C     0.88350   0.85048   0.12637   0.00000  Uiso   1.00
C328   C     0.89794   0.86729   0.20721   0.00000  Uiso   1.00
C329   C     0.60209   0.63274   0.12610   0.00000  Uiso   1.00
C330   C     0.63359   0.89941   0.12632   0.00000  Uiso   1.00
C331   C     0.86645   0.60054   0.20699   0.00000  Uiso   1.00
C332   C     0.85210   0.61725   0.12610   0.00000  Uiso   1.00
C333   C     0.64785   0.88281   0.20726   0.00000  Uiso   1.00
C334   C     0.86649   0.89951   0.20697   0.00000  Uiso   1.00
C335   C     0.94056   0.69066   0.16671   0.00000  Uiso   1.00
C336   C     0.63354   0.60053   0.12635   0.00000  Uiso   1.00
C337   C     0.64791   0.61726   0.20723   0.00000  Uiso   1.00
C338   C     0.85205   0.88270   0.12612   0.00000  Uiso   1.00
C339   C     0.59308   0.84270   0.16652   0.00000  Uiso   1.00
C340   C     0.90692   0.65731   0.16681   0.00000  Uiso   1.00
C341   C     0.90692   0.84269   0.16681   0.00000  Uiso   1.00
C342   C     0.59308   0.65730   0.16652   0.00000  Uiso   1.00
C343   C     0.84307   0.59270   0.16652   0.00000  Uiso   1.00
C344   C     0.65692   0.90731   0.16681   0.00000  Uiso   1.00
C345   C     0.65693   0.59270   0.16681   0.00000  Uiso   1.00
C346   C     0.55944   0.80934   0.16662   0.00000  Uiso   1.00
C347   C     0.84307   0.90730   0.16652   0.00000  Uiso   1.00
C348   C     0.98978   0.66725   0.04890   0.00000  Uiso   1.00
C349   C     0.51022   0.83275   0.28444   0.00000  Uiso   1.00
C350   C     0.98976   0.83274   0.04891   0.00000  Uiso   1.00
C351   C     0.51025   0.66726   0.28443   0.00000  Uiso   1.00
C352   C     0.73978   0.91725   0.04889   0.00000  Uiso   1.00
C353   C     0.76023   0.58274   0.28444   0.00000  Uiso   1.00
C354   C     0.73976   0.58274   0.04890   0.00000  Uiso   1.00
C355   C     0.76024   0.91726   0.28443   0.00000  Uiso   1.00
C356   C     0.80944   0.94065   0.16662   0.00000  Uiso   1.00
C357   C     0.69056   0.55935   0.16671   0.00000  Uiso   1.00
C358   C     0.69056   0.94066   0.16671   0.00000  Uiso   1.00
C359   C     0.80944   0.55935   0.16662   0.00000  Uiso   1.00
C360   C     0.99868   0.71033   0.02474   0.00000  Uiso   1.00
Cu361  Cu    0.50000   0.75000   0.21355   0.00000  Uiso   1.00
Cu362  Cu    0.50000   0.75000   0.11978   0.00000  Uiso   1.00
Cu363  Cu    0.75000   0.50000   0.21355   0.00000  Uiso   1.00
Cu364  Cu    0.75000   0.50000   0.11978   0.00000  Uiso   1.00
F365   F     0.89026   0.67356   0.08707   0.00000  Uiso   1.00
F366   F     0.85973   0.57645   0.24627   0.00000  Uiso   1.00
F367   F     0.83038   0.61074   0.08622   0.00000  Uiso   1.00
F368   F     0.66952   0.88937   0.24717   0.00000  Uiso   1.00
F369   F     0.85981   0.92365   0.24622   0.00000  Uiso   1.00
F370   F     0.64025   0.57643   0.08707   0.00000  Uiso   1.00
F371   F     0.66964   0.61077   0.24711   0.00000  Uiso   1.00
F372   F     0.83029   0.88915   0.08626   0.00000  Uiso   1.00
F373   F     0.60965   0.82656   0.24632   0.00000  Uiso   1.00
F374   F     0.58048   0.86063   0.08617   0.00000  Uiso   1.00
F375   F     0.91961   0.63927   0.24712   0.00000  Uiso   1.00
F376   F     0.60975   0.67358   0.24627   0.00000  Uiso   1.00
F377   F     0.89017   0.82633   0.08712   0.00000  Uiso   1.00
F378   F     0.91970   0.86084   0.24708   0.00000  Uiso   1.00
F379   F     0.58037   0.63924   0.08622   0.00000  Uiso   1.00
F380   F     0.64034   0.92345   0.08702   0.00000  Uiso   1.00
H381   H     0.50348   0.65921   0.08183   0.00000  Uiso   1.00
H382   H     0.99656   0.84077   0.25148   0.00000  Uiso   1.00
H383   H     0.50352   0.84082   0.08180   0.00000  Uiso   1.00
H384   H     0.99651   0.65919   0.25152   0.00000  Uiso   1.00
H385   H     0.75346   0.90921   0.08183   0.00000  Uiso   1.00
H386   H     0.74653   0.59079   0.25150   0.00000  Uiso   1.00
H387   H     0.75348   0.59080   0.08182   0.00000  Uiso   1.00
H388   H     0.74649   0.90918   0.25153   0.00000  Uiso   1.00
N389   N     0.50000   0.75000   0.28402   0.00000  Uiso   1.00
N390   N     0.50000   0.75000   0.04931   0.00000  Uiso   1.00
N391   N     0.75000   0.50000   0.28402   0.00000  Uiso   1.00
N392   N     0.75000   0.50000   0.04931   0.00000  Uiso   1.00
O393   O     0.54509   0.70491   0.20625   0.00000  Uiso   1.00
O394   O     0.70492   0.54509   0.12709   0.00000  Uiso   1.00
O395   O     0.70492   0.54509   0.20625   0.00000  Uiso   1.00
O396   O     0.79509   0.95491   0.12709   0.00000  Uiso   1.00
O397   O     0.70492   0.95491   0.12709   0.00000  Uiso   1.00
O398   O     0.79509   0.54509   0.20625   0.00000  Uiso   1.00
O399   O     0.79509   0.54509   0.12709   0.00000  Uiso   1.00
O400   O     0.70492   0.95491   0.20625   0.00000  Uiso   1.00
O401   O     0.96547   0.63992   0.03208   0.00000  Uiso   1.00
O402   O     0.53449   0.86011   0.30127   0.00000  Uiso   1.00
O403   O     0.96538   0.86003   0.03215   0.00000  Uiso   1.00
O404   O     0.95492   0.79509   0.12709   0.00000  Uiso   1.00
O405   O     0.53462   0.63997   0.30121   0.00000  Uiso   1.00
O406   O     0.71547   0.88991   0.03207   0.00000  Uiso   1.00
O407   O     0.78454   0.61008   0.30125   0.00000  Uiso   1.00
O408   O     0.71542   0.61005   0.03211   0.00000  Uiso   1.00
O409   O     0.78463   0.88998   0.30119   0.00000  Uiso   1.00
O410   O     0.95492   0.79509   0.20625   0.00000  Uiso   1.00
O411   O     0.54509   0.70491   0.12709   0.00000  Uiso   1.00
O412   O     0.95492   0.70491   0.12709   0.00000  Uiso   1.00
O413   O     0.54509   0.79509   0.20625   0.00000  Uiso   1.00
O414   O     0.54509   0.79509   0.12709   0.00000  Uiso   1.00
O415   O     0.95492   0.70491   0.20625   0.00000  Uiso   1.00
O416   O     0.79509   0.95491   0.20625   0.00000  Uiso   1.00
C417   C     0.05944   0.19065   0.49996   0.00000  Uiso   1.00
C418   C     0.00133   0.28967   0.64193   0.00000  Uiso   1.00
C419   C     0.49867   0.28967   0.35808   0.00000  Uiso   1.00
C420   C     0.00133   0.21033   0.64193   0.00000  Uiso   1.00
C421   C     0.24868   0.46033   0.35807   0.00000  Uiso   1.00
C422   C     0.25133   0.03967   0.64193   0.00000  Uiso   1.00
C423   C     0.24867   0.03967   0.35807   0.00000  Uiso   1.00
C424   C     0.25133   0.46033   0.64192   0.00000  Uiso   1.00
C425   C     0.38355   0.14947   0.45968   0.00000  Uiso   1.00
C426   C     0.11641   0.35059   0.54035   0.00000  Uiso   1.00
C427   C     0.10214   0.36719   0.45941   0.00000  Uiso   1.00
C428   C     0.44056   0.30934   0.50004   0.00000  Uiso   1.00
C429   C     0.39790   0.13276   0.54057   0.00000  Uiso   1.00
C430   C     0.11646   0.14948   0.54032   0.00000  Uiso   1.00
C431   C     0.38350   0.35048   0.45970   0.00000  Uiso   1.00
C432   C     0.39794   0.36729   0.54055   0.00000  Uiso   1.00
C433   C     0.10209   0.13274   0.45944   0.00000  Uiso   1.00
C434   C     0.13359   0.39941   0.45966   0.00000  Uiso   1.00
C435   C     0.36645   0.10054   0.54032   0.00000  Uiso   1.00
C436   C     0.35210   0.11725   0.45944   0.00000  Uiso   1.00
C437   C     0.14785   0.38281   0.54059   0.00000  Uiso   1.00
C438   C     0.36649   0.39951   0.54030   0.00000  Uiso   1.00
C439   C     0.44056   0.19066   0.50004   0.00000  Uiso   1.00
C440   C     0.13354   0.10053   0.45968   0.00000  Uiso   1.00
C441   C     0.14791   0.11726   0.54056   0.00000  Uiso   1.00
C442   C     0.35205   0.38270   0.45946   0.00000  Uiso   1.00
C443   C     0.09308   0.34270   0.49986   0.00000  Uiso   1.00
C444   C     0.40692   0.15731   0.50015   0.00000  Uiso   1.00
C445   C     0.40692   0.34269   0.50015   0.00000  Uiso   1.00
C446   C     0.09308   0.15730   0.49985   0.00000  Uiso   1.00
C447   C     0.34307   0.09270   0.49986   0.00000  Uiso   1.00
C448   C     0.15692   0.40731   0.50015   0.00000  Uiso   1.00
C449   C     0.15693   0.09270   0.50015   0.00000  Uiso   1.00
C450   C     0.05944   0.30934   0.49996   0.00000  Uiso   1.00
C451   C     0.34307   0.40730   0.49985   0.00000  Uiso   1.00
C452   C     0.48978   0.16725   0.38223   0.00000  Uiso   1.00
C453   C     0.01022   0.33275   0.61777   0.00000  Uiso   1.00
C454   C     0.48976   0.33274   0.38224   0.00000  Uiso   1.00
C455   C     0.01025   0.16726   0.61776   0.00000  Uiso   1.00
C456   C     0.23978   0.41725   0.38223   0.00000  Uiso   1.00
C457   C     0.26023   0.08274   0.61777   0.00000  Uiso   1.00
C458   C     0.23976   0.08274   0.38224   0.00000  Uiso   1.00
C459   C     0.26024   0.41726   0.61776   0.00000  Uiso   1.00
C460   C     0.30944   0.44065   0.49996   0.00000  Uiso   1.00
C461   C     0.19056   0.05935   0.50004   0.00000  Uiso   1.00
C462   C     0.19056   0.44066   0.50004   0.00000  Uiso   1.00
C463   C     0.30944   0.05935   0.49996   0.00000  Uiso   1.00
C464   C     0.49868   0.21033   0.35807   0.00000  Uiso   1.00
Cu465  Cu    0.00000   0.25000   0.54689   0.00000  Uiso   1.00
Cu466  Cu    0.00000   0.25000   0.45311   0.00000  Uiso   1.00
Cu467  Cu    0.25000  -0.00000   0.54689   0.00000  Uiso   1.00
Cu468  Cu    0.25000   0.00000   0.45311   0.00000  Uiso   1.00
F469   F     0.39026   0.17356   0.42040   0.00000  Uiso   1.00
F470   F     0.35973   0.07645   0.57961   0.00000  Uiso   1.00
F471   F     0.33038   0.11074   0.41955   0.00000  Uiso   1.00
F472   F     0.16952   0.38937   0.58050   0.00000  Uiso   1.00
F473   F     0.35981   0.42365   0.57956   0.00000  Uiso   1.00
F474   F     0.14025   0.07643   0.42040   0.00000  Uiso   1.00
F475   F     0.16964   0.11077   0.58045   0.00000  Uiso   1.00
F476   F     0.33029   0.38915   0.41959   0.00000  Uiso   1.00
F477   F     0.10965   0.32656   0.57966   0.00000  Uiso   1.00
F478   F     0.08048   0.36063   0.41951   0.00000  Uiso   1.00
F479   F     0.41961   0.13927   0.58045   0.00000  Uiso   1.00
F480   F     0.10975   0.17358   0.57960   0.00000  Uiso   1.00
F481   F     0.39017   0.32633   0.42045   0.00000  Uiso   1.00
F482   F     0.41970   0.36084   0.58041   0.00000  Uiso   1.00
F483   F     0.08037   0.13924   0.41955   0.00000  Uiso   1.00
F484   F     0.14034   0.42345   0.42035   0.00000  Uiso   1.00
H485   H     0.00348   0.15921   0.41516   0.00000  Uiso   1.00
H486   H     0.49656   0.34077   0.58481   0.00000  Uiso   1.00
H487   H     0.00352   0.34082   0.41513   0.00000  Uiso   1.00
H488   H     0.49651   0.15919   0.58485   0.00000  Uiso   1.00
H489   H     0.25346   0.40921   0.41517   0.00000  Uiso   1.00
H490   H     0.24653   0.09079   0.58484   0.00000  Uiso   1.00
H491   H     0.25348   0.09080   0.41516   0.00000  Uiso   1.00
H492   H     0.24649   0.40918   0.58486   0.00000  Uiso   1.00
N493   N     0.00000   0.25000   0.61736   0.00000  Uiso   1.00
N494   N     0.00000   0.25000   0.38264   0.00000  Uiso   1.00
N495   N     0.25000  -0.00000   0.61736   0.00000  Uiso   1.00
N496   N     0.25000   0.00000   0.38264   0.00000  Uiso   1.00
O497   O     0.04509   0.20491   0.53958   0.00000  Uiso   1.00
O498   O     0.20492   0.04509   0.46042   0.00000  Uiso   1.00
O499   O     0.20492   0.04509   0.53958   0.00000  Uiso   1.00
O500   O     0.29509   0.45491   0.46042   0.00000  Uiso   1.00
O501   O     0.20492   0.45491   0.46042   0.00000  Uiso   1.00
O502   O     0.29509   0.04509   0.53958   0.00000  Uiso   1.00
O503   O     0.29509   0.04509   0.46042   0.00000  Uiso   1.00
O504   O     0.20492   0.45491   0.53958   0.00000  Uiso   1.00
O505   O     0.46547   0.13992   0.36541   0.00000  Uiso   1.00
O506   O     0.03449   0.36011   0.63461   0.00000  Uiso   1.00
O507   O     0.46538   0.36003   0.36548   0.00000  Uiso   1.00
O508   O     0.45492   0.29509   0.46042   0.00000  Uiso   1.00
O509   O     0.03462   0.13997   0.63454   0.00000  Uiso   1.00
O510   O     0.21547   0.38991   0.36540   0.00000  Uiso   1.00
O511   O     0.28454   0.11008   0.63458   0.00000  Uiso   1.00
O512   O     0.21542   0.11005   0.36544   0.00000  Uiso   1.00
O513   O     0.28463   0.38998   0.63453   0.00000  Uiso   1.00
O514   O     0.45492   0.29509   0.53958   0.00000  Uiso   1.00
O515   O     0.04509   0.20491   0.46042   0.00000  Uiso   1.00
O516   O     0.45492   0.20491   0.46042   0.00000  Uiso   1.00
O517   O     0.04509   0.29509   0.53958   0.00000  Uiso   1.00
O518   O     0.04509   0.29509   0.46042   0.00000  Uiso   1.00
O519   O     0.45492   0.20491   0.53958   0.00000  Uiso   1.00
O520   O     0.29509   0.45491   0.53958   0.00000  Uiso   1.00
C521   C     0.55944   0.19065   0.49996   0.00000  Uiso   1.00
C522   C     0.50133   0.28967   0.64193   0.00000  Uiso   1.00
C523   C     0.99867   0.28967   0.35808   0.00000  Uiso   1.00
C524   C     0.50133   0.21033   0.64193   0.00000  Uiso   1.00
C525   C     0.74868   0.46033   0.35807   0.00000  Uiso   1.00
C526   C     0.75133   0.03967   0.64193   0.00000  Uiso   1.00
C527   C     0.74867   0.03967   0.35807   0.00000  Uiso   1.00
C528   C     0.75133   0.46033   0.64192   0.00000  Uiso   1.00
C529   C     0.88355   0.14947   0.45968   0.00000  Uiso   1.00
C530   C     0.61641   0.35059   0.54035   0.00000  Uiso   1.00
C531   C     0.60214   0.36719   0.45941   0.00000  Uiso   1.00
C532   C     0.94056   0.30934   0.50004   0.00000  Uiso   1.00
C533   C     0.89790   0.13276   0.54057   0.00000  Uiso   1.00
C534   C     0.61646   0.14948   0.54032   0.00000  Uiso   1.00
C535   C     0.88350   0.35048   0.45970   0.00000  Uiso   1.00
C536   C     0.89794   0.36729   0.54055   0.00000  Uiso   1.00
C537   C     0.60209   0.13274   0.45944   0.00000  Uiso   1.00
C538   C     0.63359   0.39941   0.45966   0.00000  Uiso   1.00
C539   C     0.86645   0.10054   0.54032   0.00000  Uiso   1.00
C540   C     0.85210   0.11725   0.45944   0.00000  Uiso   1.00
C541   C     0.64785   0.38281   0.54059   0.00000  Uiso   1.00
C542   C     0.86649   0.39951   0.54030   0.00000  Uiso   1.00
C543   C     0.94056   0.19066   0.50004   0.00000  Uiso   1.00
C544   C     0.63354   0.10053   0.45968   0.00000  Uiso   1.00
C545   C     0.64791   0.11726   0.54056   0.00000  Uiso   1.00
C546   C     0.85205   0.38270   0.45946   0.00000  Uiso   1.00
C547   C     0.59308   0.34270   0.49986   0.00000  Uiso   1.00
C548   C     0.90692   0.15731   0.50015   0.00000  Uiso   1.00
C549   C     0.90692   0.34269   0.50015   0.00000  Uiso   1.00
C550   C     0.59308   0.15730   0.49985   0.00000  Uiso   1.00
C551   C     0.84307   0.09270   0.49986   0.00000  Uiso   1.00
C552   C     0.65692   0.40731   0.50015   0.00000  Uiso   1.00
C553   C     0.65693   0.09270   0.50015   0.00000  Uiso   1.00
C554   C     0.55944   0.30934   0.49996   0.00000  Uiso   1.00
C555   C     0.84307   0.40730   0.49985   0.00000  Uiso   1.00
C556   C     0.98978   0.16725   0.38223   0.00000  Uiso   1.00
C557   C     0.51022   0.33275   0.61777   0.00000  Uiso   1.00
C558   C     0.98976   0.33274   0.38224   0.00000  Uiso   1.00
C559   C     0.51025   0.16726   0.61776   0.00000  Uiso   1.00
C560   C     0.73978   0.41725   0.38223   0.00000  Uiso   1.00
C561   C     0.76023   0.08274   0.61777   0.00000  Uiso   1.00
C562   C     0.73976   0.08274   0.38224   0.00000  Uiso   1.00
C563   C     0.76024   0.41726   0.61776   0.00000  Uiso   1.00
C564   C     0.80944   0.44065   0.49996   0.00000  Uiso   1.00
C565   C     0.69056   0.05935   0.50004   0.00000  Uiso   1.00
C566   C     0.69056   0.44066   0.50004   0.00000  Uiso   1.00
C567   C     0.80944   0.05935   0.49996   0.00000  Uiso   1.00
C568   C     0.99868   0.21033   0.35807   0.00000  Uiso   1.00
Cu569  Cu    0.50000   0.25000   0.54689   0.00000  Uiso   1.00
Cu570  Cu    0.50000   0.25000   0.45311   0.00000  Uiso   1.00
Cu571  Cu    0.75000  -0.00000   0.54689   0.00000  Uiso   1.00
Cu572  Cu    0.75000   0.00000   0.45311   0.00000  Uiso   1.00
F573   F     0.89026   0.17356   0.42040   0.00000  Uiso   1.00
F574   F     0.85973   0.07645   0.57961   0.00000  Uiso   1.00
F575   F     0.83038   0.11074   0.41955   0.00000  Uiso   1.00
F576   F     0.66952   0.38937   0.58050   0.00000  Uiso   1.00
F577   F     0.85981   0.42365   0.57956   0.00000  Uiso   1.00
F578   F     0.64025   0.07643   0.42040   0.00000  Uiso   1.00
F579   F     0.66964   0.11077   0.58045   0.00000  Uiso   1.00
F580   F     0.83029   0.38915   0.41959   0.00000  Uiso   1.00
F581   F     0.60965   0.32656   0.57966   0.00000  Uiso   1.00
F582   F     0.58048   0.36063   0.41951   0.00000  Uiso   1.00
F583   F     0.91961   0.13927   0.58045   0.00000  Uiso   1.00
F584   F     0.60975   0.17358   0.57960   0.00000  Uiso   1.00
F585   F     0.89017   0.32633   0.42045   0.00000  Uiso   1.00
F586   F     0.91970   0.36084   0.58041   0.00000  Uiso   1.00
F587   F     0.58037   0.13924   0.41955   0.00000  Uiso   1.00
F588   F     0.64034   0.42345   0.42035   0.00000  Uiso   1.00
H589   H     0.50348   0.15921   0.41516   0.00000  Uiso   1.00
H590   H     0.99656   0.34077   0.58481   0.00000  Uiso   1.00
H591   H     0.50352   0.34082   0.41513   0.00000  Uiso   1.00
H592   H     0.99651   0.15919   0.58485   0.00000  Uiso   1.00
H593   H     0.75346   0.40921   0.41517   0.00000  Uiso   1.00
H594   H     0.74653   0.09079   0.58484   0.00000  Uiso   1.00
H595   H     0.75348   0.09080   0.41516   0.00000  Uiso   1.00
H596   H     0.74649   0.40918   0.58486   0.00000  Uiso   1.00
N597   N     0.50000   0.25000   0.61736   0.00000  Uiso   1.00
N598   N     0.50000   0.25000   0.38264   0.00000  Uiso   1.00
N599   N     0.75000  -0.00000   0.61736   0.00000  Uiso   1.00
N600   N     0.75000   0.00000   0.38264   0.00000  Uiso   1.00
O601   O     0.54509   0.20491   0.53958   0.00000  Uiso   1.00
O602   O     0.70492   0.04509   0.46042   0.00000  Uiso   1.00
O603   O     0.70492   0.04509   0.53958   0.00000  Uiso   1.00
O604   O     0.79509   0.45491   0.46042   0.00000  Uiso   1.00
O605   O     0.70492   0.45491   0.46042   0.00000  Uiso   1.00
O606   O     0.79509   0.04509   0.53958   0.00000  Uiso   1.00
O607   O     0.79509   0.04509   0.46042   0.00000  Uiso   1.00
O608   O     0.70492   0.45491   0.53958   0.00000  Uiso   1.00
O609   O     0.96547   0.13992   0.36541   0.00000  Uiso   1.00
O610   O     0.53449   0.36011   0.63461   0.00000  Uiso   1.00
O611   O     0.96538   0.36003   0.36548   0.00000  Uiso   1.00
O612   O     0.95492   0.29509   0.46042   0.00000  Uiso   1.00
O613   O     0.53462   0.13997   0.63454   0.00000  Uiso   1.00
O614   O     0.71547   0.38991   0.36540   0.00000  Uiso   1.00
O615   O     0.78454   0.11008   0.63458   0.00000  Uiso   1.00
O616   O     0.71542   0.11005   0.36544   0.00000  Uiso   1.00
O617   O     0.78463   0.38998   0.63453   0.00000  Uiso   1.00
O618   O     0.95492   0.29509   0.53958   0.00000  Uiso   1.00
O619   O     0.54509   0.20491   0.46042   0.00000  Uiso   1.00
O620   O     0.95492   0.20491   0.46042   0.00000  Uiso   1.00
O621   O     0.54509   0.29509   0.53958   0.00000  Uiso   1.00
O622   O     0.54509   0.29509   0.46042   0.00000  Uiso   1.00
O623   O     0.95492   0.20491   0.53958   0.00000  Uiso   1.00
O624   O     0.79509   0.45491   0.53958   0.00000  Uiso   1.00
C625   C     0.05944   0.69065   0.49996   0.00000  Uiso   1.00
C626   C     0.00133   0.78967   0.64193   0.00000  Uiso   1.00
C627   C     0.49867   0.78967   0.35808   0.00000  Uiso   1.00
C628   C     0.00133   0.71033   0.64193   0.00000  Uiso   1.00
C629   C     0.24868   0.96033   0.35807   0.00000  Uiso   1.00
C630   C     0.25133   0.53967   0.64193   0.00000  Uiso   1.00
C631   C     0.24867   0.53967   0.35807   0.00000  Uiso   1.00
C632   C     0.25133   0.96033   0.64192   0.00000  Uiso   1.00
C633   C     0.38355   0.64947   0.45968   0.00000  Uiso   1.00
C634   C     0.11641   0.85059   0.54035   0.00000  Uiso   1.00
C635   C     0.10214   0.86719   0.45941   0.00000  Uiso   1.00
C636   C     0.44056   0.80934   0.50004   0.00000  Uiso   1.00
C637   C     0.39790   0.63276   0.54057   0.00000  Uiso   1.00
C638   C     0.11646   0.64948   0.54032   0.00000  Uiso   1.00
C639   C     0.38350   0.85048   0.45970   0.00000  Uiso   1.00
C640   C     0.39794   0.86729   0.54055   0.00000  Uiso   1.00
C641   C     0.10209   0.63274   0.45944   0.00000  Uiso   1.00
C642   C     0.13359   0.89941   0.45966   0.00000  Uiso   1.00
C643   C     0.36645   0.60054   0.54032   0.00000  Uiso   1.00
C644   C     0.35210   0.61725   0.45944   0.00000  Uiso   1.00
C645   C     0.14785   0.88281   0.54059   0.00000  Uiso   1.00
C646   C     0.36649   0.89951   0.54030   0.00000  Uiso   1.00
C647   C     0.44056   0.69066   0.50004   0.00000  Uiso   1.00
C648   C     0.13354   0.60053   0.45968   0.00000  Uiso   1.00
C649   C     0.14791   0.61726   0.54056   0.00000  Uiso   1.00
C650   C     0.35205   0.88270   0.45946   0.00000  Uiso   1.00
C651   C     0.09308   0.84270   0.49986   0.00000  Uiso   1.00
C652   C     0.40692   0.65731   0.50015   0.00000  Uiso   1.00
C653   C     0.40692   0.84269   0.50015   0.00000  Uiso   1.00
C654   C     0.09308   0.65730   0.49985   0.00000  Uiso   1.00
C655   C     0.34307   0.59270   0.49986   0.00000  Uiso   1.00
C656   C     0.15692   0.90731   0.50015   0.00000  Uiso   1.00
C657   C     0.15693   0.59270   0.50015   0.00000  Uiso   1.00
C658   C     0.05944   0.80934   0.49996   0.00000  Uiso   1.00
C659   C     0.34307   0.90730   0.49985   0.00000  Uiso   1.00
C660   C     0.48978   0.66725   0.38223   0.00000  Uiso   1.00
C661   C     0.01022   0.83275   0.61777   0.00000  Uiso   1.00
C662   C     0.48976   0.83274   0.38224   0.00000  Uiso   1.00
C663   C     0.01025   0.66726   0.61776   0.00000  Uiso   1.00
C664   C     0.23978   0.91725   0.38223   0.00000  Uiso   1.00
C665   C     0.26023   0.58274   0.61777   0.00000  Uiso   1.00
C666   C     0.23976   0.58274   0.38224   0.00000  Uiso   1.00
C667   C     0.26024   0.91726   0.61776   0.00000  Uiso   1.00
C668   C     0.30944   0.94065   0.49996   0.00000  Uiso   1.00
C669   C     0.19056   0.55935   0.50004   0.00000  Uiso   1.00
C670   C     0.19056   0.94066   0.50004   0.00000  Uiso   1.00
C671   C     0.30944   0.55935   0.49996   0.00000  Uiso   1.00
C672   C     0.49868   0.71033   0.35807   0.00000  Uiso   1.00
Cu673  Cu    0.00000   0.75000   0.54689   0.00000  Uiso   1.00
Cu674  Cu    0.00000   0.75000   0.45311   0.00000  Uiso   1.00
Cu675  Cu    0.25000   0.50000   0.54689   0.00000  Uiso   1.00
Cu676  Cu    0.25000   0.50000   0.45311   0.00000  Uiso   1.00
F677   F     0.39026   0.67356   0.42040   0.00000  Uiso   1.00
F678   F     0.35973   0.57645   0.57961   0.00000  Uiso   1.00
F679   F     0.33038   0.61074   0.41955   0.00000  Uiso   1.00
F680   F     0.16952   0.88937   0.58050   0.00000  Uiso   1.00
F681   F     0.35981   0.92365   0.57956   0.00000  Uiso   1.00
F682   F     0.14025   0.57643   0.42040   0.00000  Uiso   1.00
F683   F     0.16964   0.61077   0.58045   0.00000  Uiso   1.00
F684   F     0.33029   0.88915   0.41959   0.00000  Uiso   1.00
F685   F     0.10965   0.82656   0.57966   0.00000  Uiso   1.00
F686   F     0.08048   0.86063   0.41951   0.00000  Uiso   1.00
F687   F     0.41961   0.63927   0.58045   0.00000  Uiso   1.00
F688   F     0.10975   0.67358   0.57960   0.00000  Uiso   1.00
F689   F     0.39017   0.82633   0.42045   0.00000  Uiso   1.00
F690   F     0.41970   0.86084   0.58041   0.00000  Uiso   1.00
F691   F     0.08037   0.63924   0.41955   0.00000  Uiso   1.00
F692   F     0.14034   0.92345   0.42035   0.00000  Uiso   1.00
H693   H     0.00348   0.65921   0.41516   0.00000  Uiso   1.00
H694   H     0.49656   0.84077   0.58481   0.00000  Uiso   1.00
H695   H     0.00352   0.84082   0.41513   0.00000  Uiso   1.00
H696   H     0.49651   0.65919   0.58485   0.00000  Uiso   1.00
H697   H     0.25346   0.90921   0.41517   0.00000  Uiso   1.00
H698   H     0.24653   0.59079   0.58484   0.00000  Uiso   1.00
H699   H     0.25348   0.59080   0.41516   0.00000  Uiso   1.00
H700   H     0.24649   0.90918   0.58486   0.00000  Uiso   1.00
N701   N     0.00000   0.75000   0.61736   0.00000  Uiso   1.00
N702   N     0.00000   0.75000   0.38264   0.00000  Uiso   1.00
N703   N     0.25000   0.50000   0.61736   0.00000  Uiso   1.00
N704   N     0.25000   0.50000   0.38264   0.00000  Uiso   1.00
O705   O     0.04509   0.70491   0.53958   0.00000  Uiso   1.00
O706   O     0.20492   0.54509   0.46042   0.00000  Uiso   1.00
O707   O     0.20492   0.54509   0.53958   0.00000  Uiso   1.00
O708   O     0.29509   0.95491   0.46042   0.00000  Uiso   1.00
O709   O     0.20492   0.95491   0.46042   0.00000  Uiso   1.00
O710   O     0.29509   0.54509   0.53958   0.00000  Uiso   1.00
O711   O     0.29509   0.54509   0.46042   0.00000  Uiso   1.00
O712   O     0.20492   0.95491   0.53958   0.00000  Uiso   1.00
O713   O     0.46547   0.63992   0.36541   0.00000  Uiso   1.00
O714   O     0.03449   0.86011   0.63461   0.00000  Uiso   1.00
O715   O     0.46538   0.86003   0.36548   0.00000  Uiso   1.00
O716   O     0.45492   0.79509   0.46042   0.00000  Uiso   1.00
O717   O     0.03462   0.63997   0.63454   0.00000  Uiso   1.00
O718   O     0.21547   0.88991   0.36540   0.00000  Uiso   1.00
O719   O     0.28454   0.61008   0.63458   0.00000  Uiso   1.00
O720   O     0.21542   0.61005   0.36544   0.00000  Uiso   1.00
O721   O     0.28463   0.88998   0.63453   0.00000  Uiso   1.00
O722   O     0.45492   0.79509   0.53958   0.00000  Uiso   1.00
O723   O     0.04509   0.70491   0.46042   0.00000  Uiso   1.00
O724   O     0.45492   0.70491   0.46042   0.00000  Uiso   1.00
O725   O     0.04509   0.79509   0.53958   0.00000  Uiso   1.00
O726   O     0.04509   0.79509   0.46042   0.00000  Uiso   1.00
O727   O     0.45492   0.70491   0.53958   0.00000  Uiso   1.00
O728   O     0.29509   0.95491   0.53958   0.00000  Uiso   1.00
C729   C     0.55944   0.69065   0.49996   0.00000  Uiso   1.00
C730   C     0.50133   0.78967   0.64193   0.00000  Uiso   1.00
C731   C     0.99867   0.78967   0.35808   0.00000  Uiso   1.00
C732   C     0.50133   0.71033   0.64193   0.00000  Uiso   1.00
C733   C     0.74868   0.96033   0.35807   0.00000  Uiso   1.00
C734   C     0.75133   0.53967   0.64193   0.00000  Uiso   1.00
C735   C     0.74867   0.53967   0.35807   0.00000  Uiso   1.00
C736   C     0.75133   0.96033   0.64192   0.00000  Uiso   1.00
C737   C     0.88355   0.64947   0.45968   0.00000  Uiso   1.00
C738   C     0.61641   0.85059   0.54035   0.00000  Uiso   1.00
C739   C     0.60214   0.86719   0.45941   0.00000  Uiso   1.00
C740   C     0.94056   0.80934   0.50004   0.00000  Uiso   1.00
C741   C     0.89790   0.63276   0.54057   0.00000  Uiso   1.00
C742   C     0.61646   0.64948   0.54032   0.00000  Uiso   1.00
C743   C     0.88350   0.85048   0.45970   0.00000  Uiso   1.00
C744   C     0.89794   0.86729   0.54055   0.00000  Uiso   1.00
C745   C     0.60209   0.63274   0.45944   0.00000  Uiso   1.00
C746   C     0.63359   0.89941   0.45966   0.00000  Uiso   1.00
C747   C     0.86645   0.60054   0.54032   0.00000  Uiso   1.00
C748   C     0.85210   0.61725   0.45944   0.00000  Uiso   1.00
C749   C     0.64785   0.88281   0.54059   0.00000  Uiso   1.00
C750   C     0.86649   0.89951   0.54030   0.00000  Uiso   1.00
C751   C     0.94056   0.69066   0.50004   0.00000  Uiso   1.00
C752   C     0.63354   0.60053   0.45968   0.00000  Uiso   1.00
C753   C     0.64791   0.61726   0.54056   0.00000  Uiso   1.00
C754   C     0.85205   0.88270   0.45946   0.00000  Uiso   1.00
C755   C     0.59308   0.84270   0.49986   0.00000  Uiso   1.00
C756   C     0.90692   0.65731   0.50015   0.00000  Uiso   1.00
C757   C     0.90692   0.84269   0.50015   0.00000  Uiso   1.00
C758   C     0.59308   0.65730   0.49985   0.00000  Uiso   1.00
C759   C     0.84307   0.59270   0.49986   0.00000  Uiso   1.00
C760   C     0.65692   0.90731   0.50015   0.00000  Uiso   1.00
C761   C     0.65693   0.59270   0.50015   0.00000  Uiso   1.00
C762   C     0.55944   0.80934   0.49996   0.00000  Uiso   1.00
C763   C     0.84307   0.90730   0.49985   0.00000  Uiso   1.00
C764   C     0.98978   0.66725   0.38223   0.00000  Uiso   1.00
C765   C     0.51022   0.83275   0.61777   0.00000  Uiso   1.00
C766   C     0.98976   0.83274   0.38224   0.00000  Uiso   1.00
C767   C     0.51025   0.66726   0.61776   0.00000  Uiso   1.00
C768   C     0.73978   0.91725   0.38223   0.00000  Uiso   1.00
C769   C     0.76023   0.58274   0.61777   0.00000  Uiso   1.00
C770   C     0.73976   0.58274   0.38224   0.00000  Uiso   1.00
C771   C     0.76024   0.91726   0.61776   0.00000  Uiso   1.00
C772   C     0.80944   0.94065   0.49996   0.00000  Uiso   1.00
C773   C     0.69056   0.55935   0.50004   0.00000  Uiso   1.00
C774   C     0.69056   0.94066   0.50004   0.00000  Uiso   1.00
C775   C     0.80944   0.55935   0.49996   0.00000  Uiso   1.00
C776   C     0.99868   0.71033   0.35807   0.00000  Uiso   1.00
Cu777  Cu    0.50000   0.75000   0.54689   0.00000  Uiso   1.00
Cu778  Cu    0.50000   0.75000   0.45311   0.00000  Uiso   1.00
Cu779  Cu    0.75000   0.50000   0.54689   0.00000  Uiso   1.00
Cu780  Cu    0.75000   0.50000   0.45311   0.00000  Uiso   1.00
F781   F     0.89026   0.67356   0.42040   0.00000  Uiso   1.00
F782   F     0.85973   0.57645   0.57961   0.00000  Uiso   1.00
F783   F     0.83038   0.61074   0.41955   0.00000  Uiso   1.00
F784   F     0.66952   0.88937   0.58050   0.00000  Uiso   1.00
F785   F     0.85981   0.92365   0.57956   0.00000  Uiso   1.00
F786   F     0.64025   0.57643   0.42040   0.00000  Uiso   1.00
F787   F     0.66964   0.61077   0.58045   0.00000  Uiso   1.00
F788   F     0.83029   0.88915   0.41959   0.00000  Uiso   1.00
F789   F     0.60965   0.82656   0.57966   0.00000  Uiso   1.00
F790   F     0.58048   0.86063   0.41951   0.00000  Uiso   1.00
F791   F     0.91961   0.63927   0.58045   0.00000  Uiso   1.00
F792   F     0.60975   0.67358   0.57960   0.00000  Uiso   1.00
F793   F     0.89017   0.82633   0.42045   0.00000  Uiso   1.00
F794   F     0.91970   0.86084   0.58041   0.00000  Uiso   1.00
F795   F     0.58037   0.63924   0.41955   0.00000  Uiso   1.00
F796   F     0.64034   0.92345   0.42035   0.00000  Uiso   1.00
H797   H     0.50348   0.65921   0.41516   0.00000  Uiso   1.00
H798   H     0.99656   0.84077   0.58481   0.00000  Uiso   1.00
H799   H     0.50352   0.84082   0.41513   0.00000  Uiso   1.00
H800   H     0.99651   0.65919   0.58485   0.00000  Uiso   1.00
H801   H     0.75346   0.90921   0.41517   0.00000  Uiso   1.00
H802   H     0.74653   0.59079   0.58484   0.00000  Uiso   1.00
H803   H     0.75348   0.59080   0.41516   0.00000  Uiso   1.00
H804   H     0.74649   0.90918   0.58486   0.00000  Uiso   1.00
N805   N     0.50000   0.75000   0.61736   0.00000  Uiso   1.00
N806   N     0.50000   0.75000   0.38264   0.00000  Uiso   1.00
N807   N     0.75000   0.50000   0.61736   0.00000  Uiso   1.00
N808   N     0.75000   0.50000   0.38264   0.00000  Uiso   1.00
O809   O     0.54509   0.70491   0.53958   0.00000  Uiso   1.00
O810   O     0.70492   0.54509   0.46042   0.00000  Uiso   1.00
O811   O     0.70492   0.54509   0.53958   0.00000  Uiso   1.00
O812   O     0.79509   0.95491   0.46042   0.00000  Uiso   1.00
O813   O     0.70492   0.95491   0.46042   0.00000  Uiso   1.00
O814   O     0.79509   0.54509   0.53958   0.00000  Uiso   1.00
O815   O     0.79509   0.54509   0.46042   0.00000  Uiso   1.00
O816   O     0.70492   0.95491   0.53958   0.00000  Uiso   1.00
O817   O     0.96547   0.63992   0.36541   0.00000  Uiso   1.00
O818   O     0.53449   0.86011   0.63461   0.00000  Uiso   1.00
O819   O     0.96538   0.86003   0.36548   0.00000  Uiso   1.00
O820   O     0.95492   0.79509   0.46042   0.00000  Uiso   1.00
O821   O     0.53462   0.63997   0.63454   0.00000  Uiso   1.00
O822   O     0.71547   0.88991   0.36540   0.00000  Uiso   1.00
O823   O     0.78454   0.61008   0.63458   0.00000  Uiso   1.00
O824   O     0.71542   0.61005   0.36544   0.00000  Uiso   1.00
O825   O     0.78463   0.88998   0.63453   0.00000  Uiso   1.00
O826   O     0.95492   0.79509   0.53958   0.00000  Uiso   1.00
O827   O     0.54509   0.70491   0.46042   0.00000  Uiso   1.00
O828   O     0.95492   0.70491   0.46042   0.00000  Uiso   1.00
O829   O     0.54509   0.79509   0.53958   0.00000  Uiso   1.00
O830   O     0.54509   0.79509   0.46042   0.00000  Uiso   1.00
O831   O     0.95492   0.70491   0.53958   0.00000  Uiso   1.00
O832   O     0.79509   0.95491   0.53958   0.00000  Uiso   1.00
C833   C     0.05944   0.19065   0.83329   0.00000  Uiso   1.00
C834   C     0.00133   0.28967   0.97526   0.00000  Uiso   1.00
C835   C     0.49867   0.28967   0.69141   0.00000  Uiso   1.00
C836   C     0.00133   0.21033   0.97526   0.00000  Uiso   1.00
C837   C     0.24868   0.46033   0.69140   0.00000  Uiso   1.00
C838   C     0.25133   0.03967   0.97526   0.00000  Uiso   1.00
C839   C     0.24867   0.03967   0.69141   0.00000  Uiso   1.00
C840   C     0.25133   0.46033   0.97526   0.00000  Uiso   1.00
C841   C     0.38355   0.14947   0.79301   0.00000  Uiso   1.00
C842   C     0.11641   0.35059   0.87368   0.00000  Uiso   1.00
C843   C     0.10214   0.36719   0.79275   0.00000  Uiso   1.00
C844   C     0.44056   0.30934   0.83338   0.00000  Uiso   1.00
C845   C     0.39790   0.13276   0.87390   0.00000  Uiso   1.00
C846   C     0.11646   0.14948   0.87365   0.00000  Uiso   1.00
C847   C     0.38350   0.35048   0.79303   0.00000  Uiso   1.00
C848   C     0.39794   0.36729   0.87388   0.00000  Uiso   1.00
C849   C     0.10209   0.13274   0.79277   0.00000  Uiso   1.00
C850   C     0.13359   0.39941   0.79299   0.00000  Uiso   1.00
C851   C     0.36645   0.10054   0.87366   0.00000  Uiso   1.00
C852   C     0.35210   0.11725   0.79277   0.00000  Uiso   1.00
C853   C     0.14785   0.38281   0.87392   0.00000  Uiso   1.00
C854   C     0.36649   0.39951   0.87363   0.00000  Uiso   1.00
C855   C     0.44056   0.19066   0.83338   0.00000  Uiso   1.00
C856   C     0.13354   0.10053   0.79301   0.00000  Uiso   1.00
C857   C     0.14791   0.11726   0.87390   0.00000  Uiso   1.00
C858   C     0.35205   0.38270   0.79279   0.00000  Uiso   1.00
C859   C     0.09308   0.34270   0.83319   0.00000  Uiso   1.00
C860   C     0.40692   0.15731   0.83348   0.00000  Uiso   1.00
C861   C     0.40692   0.34269   0.83348   0.00000  Uiso   1.00
C862   C     0.09308   0.15730   0.83319   0.00000  Uiso   1.00
C863   C     0.34307   0.09270   0.83319   0.00000  Uiso   1.00
C864   C     0.15692   0.40731   0.83348   0.00000  Uiso   1.00
C865   C     0.15693   0.09270   0.83348   0.00000  Uiso   1.00
C866   C     0.05944   0.30934   0.83329   0.00000  Uiso   1.00
C867   C     0.34307   0.40730   0.83319   0.00000  Uiso   1.00
C868   C     0.48978   0.16725   0.71556   0.00000  Uiso   1.00
C869   C     0.01022   0.33275   0.95110   0.00000  Uiso   1.00
C870   C     0.48976   0.33274   0.71558   0.00000  Uiso   1.00
C871   C     0.01025   0.16726   0.95109   0.00000  Uiso   1.00
C872   C     0.23978   0.41725   0.71556   0.00000  Uiso   1.00
C873   C     0.26023   0.08274   0.95110   0.00000  Uiso   1.00
C874   C     0.23976   0.08274   0.71557   0.00000  Uiso   1.00
C875   C     0.26024   0.41726   0.95109   0.00000  Uiso   1.00
C876   C     0.30944   0.44065   0.83329   0.00000  Uiso   1.00
C877   C     0.19056   0.05935   0.83338   0.00000  Uiso   1.00
C878   C     0.19056   0.44066   0.83338   0.00000  Uiso   1.00
C879   C     0.30944   0.05935   0.83329   0.00000  Uiso   1.00
C880   C     0.49868   0.21033   0.69140   0.00000  Uiso   1.00
Cu881  Cu    0.00000   0.25000   0.88022   0.00000  Uiso   1.00
Cu882  Cu    0.00000   0.25000   0.78645   0.00000  Uiso   1.00
Cu883  Cu    0.25000  -0.00000   0.88022   0.00000  Uiso   1.00
Cu884  Cu    0.25000   0.00000   0.78645   0.00000  Uiso   1.00
F885   F     0.39026   0.17356   0.75373   0.00000  Uiso   1.00
F886   F     0.35973   0.07645   0.91294   0.00000  Uiso   1.00
F887   F     0.33038   0.11074   0.75288   0.00000  Uiso   1.00
F888   F     0.16952   0.38937   0.91383   0.00000  Uiso   1.00
F889   F     0.35981   0.42365   0.91289   0.00000  Uiso   1.00
F890   F     0.14025   0.07643   0.75374   0.00000  Uiso   1.00
F891   F     0.16964   0.11077   0.91378   0.00000  Uiso   1.00
F892   F     0.33029   0.38915   0.75293   0.00000  Uiso   1.00
F893   F     0.10965   0.32656   0.91299   0.00000  Uiso   1.00
F894   F     0.08048   0.36063   0.75284   0.00000  Uiso   1.00
F895   F     0.41961   0.13927   0.91379   0.00000  Uiso   1.00
F896   F     0.10975   0.17358   0.91293   0.00000  Uiso   1.00
F897   F     0.39017   0.32633   0.75378   0.00000  Uiso   1.00
F898   F     0.41970   0.36084   0.91374   0.00000  Uiso   1.00
F899   F     0.08037   0.13924   0.75289   0.00000  Uiso   1.00
F900   F     0.14034   0.42345   0.75369   0.00000  Uiso   1.00
H901   H     0.00348   0.15921   0.74850   0.00000  Uiso   1.00
H902   H     0.49656   0.34077   0.91814   0.00000  Uiso   1.00
H903   H     0.00352   0.34082   0.74847   0.00000  Uiso   1.00
H904   H     0.49651   0.15919   0.91818   0.00000  Uiso   1.00
H905   H     0.25346   0.40921   0.74850   0.00000  Uiso   1.00
H906   H     0.24653   0.09079   0.91817   0.00000  Uiso   1.00
H907   H     0.25348   0.09080   0.74849   0.00000  Uiso   1.00
H908   H     0.24649   0.40918   0.91819   0.00000  Uiso   1.00
N909   N     0.00000   0.25000   0.95069   0.00000  Uiso   1.00
N910   N     0.00000   0.25000   0.71598   0.00000  Uiso   1.00
N911   N     0.25000  -0.00000   0.95069   0.00000  Uiso   1.00
N912   N     0.25000   0.00000   0.71598   0.00000  Uiso   1.00
O913   O     0.04509   0.20491   0.87291   0.00000  Uiso   1.00
O914   O     0.20492   0.04509   0.79375   0.00000  Uiso   1.00
O915   O     0.20492   0.04509   0.87291   0.00000  Uiso   1.00
O916   O     0.29509   0.45491   0.79375   0.00000  Uiso   1.00
O917   O     0.20492   0.45491   0.79375   0.00000  Uiso   1.00
O918   O     0.29509   0.04509   0.87291   0.00000  Uiso   1.00
O919   O     0.29509   0.04509   0.79375   0.00000  Uiso   1.00
O920   O     0.20492   0.45491   0.87291   0.00000  Uiso   1.00
O921   O     0.46547   0.13992   0.69875   0.00000  Uiso   1.00
O922   O     0.03449   0.36011   0.96794   0.00000  Uiso   1.00
O923   O     0.46538   0.36003   0.69881   0.00000  Uiso   1.00
O924   O     0.45492   0.29509   0.79375   0.00000  Uiso   1.00
O925   O     0.03462   0.13997   0.96787   0.00000  Uiso   1.00
O926   O     0.21547   0.38991   0.69874   0.00000  Uiso   1.00
O927   O     0.28454   0.11008   0.96791   0.00000  Uiso   1.00
O928   O     0.21542   0.11005   0.69878   0.00000  Uiso   1.00
O929   O     0.28463   0.38998   0.96786   0.00000  Uiso   1.00
O930   O     0.45492   0.29509   0.87291   0.00000  Uiso   1.00
O931   O     0.04509   0.20491   0.79375   0.00000  Uiso   1.00
O932   O     0.45492   0.20491   0.79375   0.00000  Uiso   1.00
O933   O     0.04509   0.29509   0.87291   0.00000  Uiso   1.00
O934   O     0.04509   0.29509   0.79375   0.00000  Uiso   1.00
O935   O     0.45492   0.20491   0.87291   0.00000  Uiso   1.00
O936   O     0.29509   0.45491   0.87291   0.00000  Uiso   1.00
C937   C     0.55944   0.19065   0.83329   0.00000  Uiso   1.00
C938   C     0.50133   0.28967   0.97526   0.00000  Uiso   1.00
C939   C     0.99867   0.28967   0.69141   0.00000  Uiso   1.00
C940   C     0.50133   0.21033   0.97526   0.00000  Uiso   1.00
C941   C     0.74868   0.46033   0.69140   0.00000  Uiso   1.00
C942   C     0.75133   0.03967   0.97526   0.00000  Uiso   1.00
C943   C     0.74867   0.03967   0.69141   0.00000  Uiso   1.00
C944   C     0.75133   0.46033   0.97526   0.00000  Uiso   1.00
C945   C     0.88355   0.14947   0.79301   0.00000  Uiso   1.00
C946   C     0.61641   0.35059   0.87368   0.00000  Uiso   1.00
C947   C     0.60214   0.36719   0.79275   0.00000  Uiso   1.00
C948   C     0.94056   0.30934   0.83338   0.00000  Uiso   1.00
C949   C     0.89790   0.13276   0.87390   0.00000  Uiso   1.00
C950   C     0.61646   0.14948   0.87365   0.00000  Uiso   1.00
C951   C     0.88350   0.35048   0.79303   0.00000  Uiso   1.00
C952   C     0.89794   0.36729   0.87388   0.00000  Uiso   1.00
C953   C     0.60209   0.13274   0.79277   0.00000  Uiso   1.00
C954   C     0.63359   0.39941   0.79299   0.00000  Uiso   1.00
C955   C     0.86645   0.10054   0.87366   0.00000  Uiso   1.00
C956   C     0.85210   0.11725   0.79277   0.00000  Uiso   1.00
C957   C     0.64785   0.38281   0.87392   0.00000  Uiso   1.00
C958   C     0.86649   0.39951   0.87363   0.00000  Uiso   1.00
C959   C     0.94056   0.19066   0.83338   0.00000  Uiso   1.00
C960   C     0.63354   0.10053   0.79301   0.00000  Uiso   1.00
C961   C     0.64791   0.11726   0.87390   0.00000  Uiso   1.00
C962   C     0.85205   0.38270   0.79279   0.00000  Uiso   1.00
C963   C     0.59308   0.34270   0.83319   0.00000  Uiso   1.00
C964   C     0.90692   0.15731   0.83348   0.00000  Uiso   1.00
C965   C     0.90692   0.34269   0.83348   0.00000  Uiso   1.00
C966   C     0.59308   0.15730   0.83319   0.00000  Uiso   1.00
C967   C     0.84307   0.09270   0.83319   0.00000  Uiso   1.00
C968   C     0.65692   0.40731   0.83348   0.00000  Uiso   1.00
C969   C     0.65693   0.09270   0.83348   0.00000  Uiso   1.00
C970   C     0.55944   0.30934   0.83329   0.00000  Uiso   1.00
C971   C     0.84307   0.40730   0.83319   0.00000  Uiso   1.00
C972   C     0.98978   0.16725   0.71556   0.00000  Uiso   1.00
C973   C     0.51022   0.33275   0.95110   0.00000  Uiso   1.00
C974   C     0.98976   0.33274   0.71558   0.00000  Uiso   1.00
C975   C     0.51025   0.16726   0.95109   0.00000  Uiso   1.00
C976   C     0.73978   0.41725   0.71556   0.00000  Uiso   1.00
C977   C     0.76023   0.08274   0.95110   0.00000  Uiso   1.00
C978   C     0.73976   0.08274   0.71557   0.00000  Uiso   1.00
C979   C     0.76024   0.41726   0.95109   0.00000  Uiso   1.00
C980   C     0.80944   0.44065   0.83329   0.00000  Uiso   1.00
C981   C     0.69056   0.05935   0.83338   0.00000  Uiso   1.00
C982   C     0.69056   0.44066   0.83338   0.00000  Uiso   1.00
C983   C     0.80944   0.05935   0.83329   0.00000  Uiso   1.00
C984   C     0.99868   0.21033   0.69140   0.00000  Uiso   1.00
Cu985  Cu    0.50000   0.25000   0.88022   0.00000  Uiso   1.00
Cu986  Cu    0.50000   0.25000   0.78645   0.00000  Uiso   1.00
Cu987  Cu    0.75000  -0.00000   0.88022   0.00000  Uiso   1.00
Cu988  Cu    0.75000   0.00000   0.78645   0.00000  Uiso   1.00
F989   F     0.89026   0.17356   0.75373   0.00000  Uiso   1.00
F990   F     0.85973   0.07645   0.91294   0.00000  Uiso   1.00
F991   F     0.83038   0.11074   0.75288   0.00000  Uiso   1.00
F992   F     0.66952   0.38937   0.91383   0.00000  Uiso   1.00
F993   F     0.85981   0.42365   0.91289   0.00000  Uiso   1.00
F994   F     0.64025   0.07643   0.75374   0.00000  Uiso   1.00
F995   F     0.66964   0.11077   0.91378   0.00000  Uiso   1.00
F996   F     0.83029   0.38915   0.75293   0.00000  Uiso   1.00
F997   F     0.60965   0.32656   0.91299   0.00000  Uiso   1.00
F998   F     0.58048   0.36063   0.75284   0.00000  Uiso   1.00
F999   F     0.91961   0.13927   0.91379   0.00000  Uiso   1.00
F1000  F     0.60975   0.17358   0.91293   0.00000  Uiso   1.00
F1001  F     0.89017   0.32633   0.75378   0.00000  Uiso   1.00
F1002  F     0.91970   0.36084   0.91374   0.00000  Uiso   1.00
F1003  F     0.58037   0.13924   0.75289   0.00000  Uiso   1.00
F1004  F     0.64034   0.42345   0.75369   0.00000  Uiso   1.00
H1005  H     0.50348   0.15921   0.74850   0.00000  Uiso   1.00
H1006  H     0.99656   0.34077   0.91814   0.00000  Uiso   1.00
H1007  H     0.50352   0.34082   0.74847   0.00000  Uiso   1.00
H1008  H     0.99651   0.15919   0.91818   0.00000  Uiso   1.00
H1009  H     0.75346   0.40921   0.74850   0.00000  Uiso   1.00
H1010  H     0.74653   0.09079   0.91817   0.00000  Uiso   1.00
H1011  H     0.75348   0.09080   0.74849   0.00000  Uiso   1.00
H1012  H     0.74649   0.40918   0.91819   0.00000  Uiso   1.00
N1013  N     0.50000   0.25000   0.95069   0.00000  Uiso   1.00
N1014  N     0.50000   0.25000   0.71598   0.00000  Uiso   1.00
N1015  N     0.75000  -0.00000   0.95069   0.00000  Uiso   1.00
N1016  N     0.75000   0.00000   0.71598   0.00000  Uiso   1.00
O1017  O     0.54509   0.20491   0.87291   0.00000  Uiso   1.00
O1018  O     0.70492   0.04509   0.79375   0.00000  Uiso   1.00
O1019  O     0.70492   0.04509   0.87291   0.00000  Uiso   1.00
O1020  O     0.79509   0.45491   0.79375   0.00000  Uiso   1.00
O1021  O     0.70492   0.45491   0.79375   0.00000  Uiso   1.00
O1022  O     0.79509   0.04509   0.87291   0.00000  Uiso   1.00
O1023  O     0.79509   0.04509   0.79375   0.00000  Uiso   1.00
O1024  O     0.70492   0.45491   0.87291   0.00000  Uiso   1.00
O1025  O     0.96547   0.13992   0.69875   0.00000  Uiso   1.00
O1026  O     0.53449   0.36011   0.96794   0.00000  Uiso   1.00
O1027  O     0.96538   0.36003   0.69881   0.00000  Uiso   1.00
O1028  O     0.95492   0.29509   0.79375   0.00000  Uiso   1.00
O1029  O     0.53462   0.13997   0.96787   0.00000  Uiso   1.00
O1030  O     0.71547   0.38991   0.69874   0.00000  Uiso   1.00
O1031  O     0.78454   0.11008   0.96791   0.00000  Uiso   1.00
O1032  O     0.71542   0.11005   0.69878   0.00000  Uiso   1.00
O1033  O     0.78463   0.38998   0.96786   0.00000  Uiso   1.00
O1034  O     0.95492   0.29509   0.87291   0.00000  Uiso   1.00
O1035  O     0.54509   0.20491   0.79375   0.00000  Uiso   1.00
O1036  O     0.95492   0.20491   0.79375   0.00000  Uiso   1.00
O1037  O     0.54509   0.29509   0.87291   0.00000  Uiso   1.00
O1038  O     0.54509   0.29509   0.79375   0.00000  Uiso   1.00
O1039  O     0.95492   0.20491   0.87291   0.00000  Uiso   1.00
O1040  O     0.79509   0.45491   0.87291   0.00000  Uiso   1.00
C1041  C     0.05944   0.69065   0.83329   0.00000  Uiso   1.00
C1042  C     0.00133   0.78967   0.97526   0.00000  Uiso   1.00
C1043  C     0.49867   0.78967   0.69141   0.00000  Uiso   1.00
C1044  C     0.00133   0.71033   0.97526   0.00000  Uiso   1.00
C1045  C     0.24868   0.96033   0.69140   0.00000  Uiso   1.00
C1046  C     0.25133   0.53967   0.97526   0.00000  Uiso   1.00
C1047  C     0.24867   0.53967   0.69141   0.00000  Uiso   1.00
C1048  C     0.25133   0.96033   0.97526   0.00000  Uiso   1.00
C1049  C     0.38355   0.64947   0.79301   0.00000  Uiso   1.00
C1050  C     0.11641   0.85059   0.87368   0.00000  Uiso   1.00
C1051  C     0.10214   0.86719   0.79275   0.00000  Uiso   1.00
C1052  C     0.44056   0.80934   0.83338   0.00000  Uiso   1.00
C1053  C     0.39790   0.63276   0.87390   0.00000  Uiso   1.00
C1054  C     0.11646   0.64948   0.87365   0.00000  Uiso   1.00
C1055  C     0.38350   0.85048   0.79303   0.00000  Uiso   1.00
C1056  C     0.39794   0.86729   0.87388   0.00000  Uiso   1.00
C1057  C     0.10209   0.63274   0.79277   0.00000  Uiso   1.00
C1058  C     0.13359   0.89941   0.79299   0.00000  Uiso   1.00
C1059  C     0.36645   0.60054   0.87366   0.00000  Uiso   1.00
C1060  C     0.35210   0.61725   0.79277   0.00000  Uiso   1.00
C1061  C     0.14785   0.88281   0.87392   0.00000  Uiso   1.00
C1062  C     0.36649   0.89951   0.87363   0.00000  Uiso   1.00
C1063  C     0.44056   0.69066   0.83338   0.00000  Uiso   1.00
C1064  C     0.13354   0.60053   0.79301   0.00000  Uiso   1.00
C1065  C     0.14791   0.61726   0.87390   0.00000  Uiso   1.00
C1066  C     0.35205   0.88270   0.79279   0.00000  Uiso   1.00
C1067  C     0.09308   0.84270   0.83319   0.00000  Uiso   1.00
C1068  C     0.40692   0.65731   0.83348   0.00000  Uiso   1.00
C1069  C     0.40692   0.84269   0.83348   0.00000  Uiso   1.00
C1070  C     0.09308   0.65730   0.83319   0.00000  Uiso   1.00
C1071  C     0.34307   0.59270   0.83319   0.00000  Uiso   1.00
C1072  C     0.15692   0.90731   0.83348   0.00000  Uiso   1.00
C1073  C     0.15693   0.59270   0.83348   0.00000  Uiso   1.00
C1074  C     0.05944   0.80934   0.83329   0.00000  Uiso   1.00
C1075  C     0.34307   0.90730   0.83319   0.00000  Uiso   1.00
C1076  C     0.48978   0.66725   0.71556   0.00000  Uiso   1.00
C1077  C     0.01022   0.83275   0.95110   0.00000  Uiso   1.00
C1078  C     0.48976   0.83274   0.71558   0.00000  Uiso   1.00
C1079  C     0.01025   0.66726   0.95109   0.00000  Uiso   1.00
C1080  C     0.23978   0.91725   0.71556   0.00000  Uiso   1.00
C1081  C     0.26023   0.58274   0.95110   0.00000  Uiso   1.00
C1082  C     0.23976   0.58274   0.71557   0.00000  Uiso   1.00
C1083  C     0.26024   0.91726   0.95109   0.00000  Uiso   1.00
C1084  C     0.30944   0.94065   0.83329   0.00000  Uiso   1.00
C1085  C     0.19056   0.55935   0.83338   0.00000  Uiso   1.00
C1086  C     0.19056   0.94066   0.83338   0.00000  Uiso   1.00
C1087  C     0.30944   0.55935   0.83329   0.00000  Uiso   1.00
C1088  C     0.49868   0.71033   0.69140   0.00000  Uiso   1.00
Cu1089 Cu    0.00000   0.75000   0.88022   0.00000  Uiso   1.00
Cu1090 Cu    0.00000   0.75000   0.78645   0.00000  Uiso   1.00
Cu1091 Cu    0.25000   0.50000   0.88022   0.00000  Uiso   1.00
Cu1092 Cu    0.25000   0.50000   0.78645   0.00000  Uiso   1.00
F1093  F     0.39026   0.67356   0.75373   0.00000  Uiso   1.00
F1094  F     0.35973   0.57645   0.91294   0.00000  Uiso   1.00
F1095  F     0.33038   0.61074   0.75288   0.00000  Uiso   1.00
F1096  F     0.16952   0.88937   0.91383   0.00000  Uiso   1.00
F1097  F     0.35981   0.92365   0.91289   0.00000  Uiso   1.00
F1098  F     0.14025   0.57643   0.75374   0.00000  Uiso   1.00
F1099  F     0.16964   0.61077   0.91378   0.00000  Uiso   1.00
F1100  F     0.33029   0.88915   0.75293   0.00000  Uiso   1.00
F1101  F     0.10965   0.82656   0.91299   0.00000  Uiso   1.00
F1102  F     0.08048   0.86063   0.75284   0.00000  Uiso   1.00
F1103  F     0.41961   0.63927   0.91379   0.00000  Uiso   1.00
F1104  F     0.10975   0.67358   0.91293   0.00000  Uiso   1.00
F1105  F     0.39017   0.82633   0.75378   0.00000  Uiso   1.00
F1106  F     0.41970   0.86084   0.91374   0.00000  Uiso   1.00
F1107  F     0.08037   0.63924   0.75289   0.00000  Uiso   1.00
F1108  F     0.14034   0.92345   0.75369   0.00000  Uiso   1.00
H1109  H     0.00348   0.65921   0.74850   0.00000  Uiso   1.00
H1110  H     0.49656   0.84077   0.91814   0.00000  Uiso   1.00
H1111  H     0.00352   0.84082   0.74847   0.00000  Uiso   1.00
H1112  H     0.49651   0.65919   0.91818   0.00000  Uiso   1.00
H1113  H     0.25346   0.90921   0.74850   0.00000  Uiso   1.00
H1114  H     0.24653   0.59079   0.91817   0.00000  Uiso   1.00
H1115  H     0.25348   0.59080   0.74849   0.00000  Uiso   1.00
H1116  H     0.24649   0.90918   0.91819   0.00000  Uiso   1.00
N1117  N     0.00000   0.75000   0.95069   0.00000  Uiso   1.00
N1118  N     0.00000   0.75000   0.71598   0.00000  Uiso   1.00
N1119  N     0.25000   0.50000   0.95069   0.00000  Uiso   1.00
N1120  N     0.25000   0.50000   0.71598   0.00000  Uiso   1.00
O1121  O     0.04509   0.70491   0.87291   0.00000  Uiso   1.00
O1122  O     0.20492   0.54509   0.79375   0.00000  Uiso   1.00
O1123  O     0.20492   0.54509   0.87291   0.00000  Uiso   1.00
O1124  O     0.29509   0.95491   0.79375   0.00000  Uiso   1.00
O1125  O     0.20492   0.95491   0.79375   0.00000  Uiso   1.00
O1126  O     0.29509   0.54509   0.87291   0.00000  Uiso   1.00
O1127  O     0.29509   0.54509   0.79375   0.00000  Uiso   1.00
O1128  O     0.20492   0.95491   0.87291   0.00000  Uiso   1.00
O1129  O     0.46547   0.63992   0.69875   0.00000  Uiso   1.00
O1130  O     0.03449   0.86011   0.96794   0.00000  Uiso   1.00
O1131  O     0.46538   0.86003   0.69881   0.00000  Uiso   1.00
O1132  O     0.45492   0.79509   0.79375   0.00000  Uiso   1.00
O1133  O     0.03462   0.63997   0.96787   0.00000  Uiso   1.00
O1134  O     0.21547   0.88991   0.69874   0.00000  Uiso   1.00
O1135  O     0.28454   0.61008   0.96791   0.00000  Uiso   1.00
O1136  O     0.21542   0.61005   0.69878   0.00000  Uiso   1.00
O1137  O     0.28463   0.88998   0.96786   0.00000  Uiso   1.00
O1138  O     0.45492   0.79509   0.87291   0.00000  Uiso   1.00
O1139  O     0.04509   0.70491   0.79375   0.00000  Uiso   1.00
O1140  O     0.45492   0.70491   0.79375   0.00000  Uiso   1.00
O1141  O     0.04509   0.79509   0.87291   0.00000  Uiso   1.00
O1142  O     0.04509   0.79509   0.79375   0.00000  Uiso   1.00
O1143  O     0.45492   0.70491   0.87291   0.00000  Uiso   1.00
O1144  O     0.29509   0.95491   0.87291   0.00000  Uiso   1.00
C1145  C     0.55944   0.69065   0.83329   0.00000  Uiso   1.00
C1146  C     0.50133   0.78967   0.97526   0.00000  Uiso   1.00
C1147  C     0.99867   0.78967   0.69141   0.00000  Uiso   1.00
C1148  C     0.50133   0.71033   0.97526   0.00000  Uiso   1.00
C1149  C     0.74868   0.96033   0.69140   0.00000  Uiso   1.00
C1150  C     0.75133   0.53967   0.97526   0.00000  Uiso   1.00
C1151  C     0.74867   0.53967   0.69141   0.00000  Uiso   1.00
C1152  C     0.75133   0.96033   0.97526   0.00000  Uiso   1.00
C1153  C     0.88355   0.64947   0.79301   0.00000  Uiso   1.00
C1154  C     0.61641   0.85059   0.87368   0.00000  Uiso   1.00
C1155  C     0.60214   0.86719   0.79275   0.00000  Uiso   1.00
C1156  C     0.94056   0.80934   0.83338   0.00000  Uiso   1.00
C1157  C     0.89790   0.63276   0.87390   0.00000  Uiso   1.00
C1158  C     0.61646   0.64948   0.87365   0.00000  Uiso   1.00
C1159  C     0.88350   0.85048   0.79303   0.00000  Uiso   1.00
C1160  C     0.89794   0.86729   0.87388   0.00000  Uiso   1.00
C1161  C     0.60209   0.63274   0.79277   0.00000  Uiso   1.00
C1162  C     0.63359   0.89941   0.79299   0.00000  Uiso   1.00
C1163  C     0.86645   0.60054   0.87366   0.00000  Uiso   1.00
C1164  C     0.85210   0.61725   0.79277   0.00000  Uiso   1.00
C1165  C     0.64785   0.88281   0.87392   0.00000  Uiso   1.00
C1166  C     0.86649   0.89951   0.87363   0.00000  Uiso   1.00
C1167  C     0.94056   0.69066   0.83338   0.00000  Uiso   1.00
C1168  C     0.63354   0.60053   0.79301   0.00000  Uiso   1.00
C1169  C     0.64791   0.61726   0.87390   0.00000  Uiso   1.00
C1170  C     0.85205   0.88270   0.79279   0.00000  Uiso   1.00
C1171  C     0.59308   0.84270   0.83319   0.00000  Uiso   1.00
C1172  C     0.90692   0.65731   0.83348   0.00000  Uiso   1.00
C1173  C     0.90692   0.84269   0.83348   0.00000  Uiso   1.00
C1174  C     0.59308   0.65730   0.83319   0.00000  Uiso   1.00
C1175  C     0.84307   0.59270   0.83319   0.00000  Uiso   1.00
C1176  C     0.65692   0.90731   0.83348   0.00000  Uiso   1.00
C1177  C     0.65693   0.59270   0.83348   0.00000  Uiso   1.00
C1178  C     0.55944   0.80934   0.83329   0.00000  Uiso   1.00
C1179  C     0.84307   0.90730   0.83319   0.00000  Uiso   1.00
C1180  C     0.98978   0.66725   0.71556   0.00000  Uiso   1.00
C1181  C     0.51022   0.83275   0.95110   0.00000  Uiso   1.00
C1182  C     0.98976   0.83274   0.71558   0.00000  Uiso   1.00
C1183  C     0.51025   0.66726   0.95109   0.00000  Uiso   1.00
C1184  C     0.73978   0.91725   0.71556   0.00000  Uiso   1.00
C1185  C     0.76023   0.58274   0.95110   0.00000  Uiso   1.00
C1186  C     0.73976   0.58274   0.71557   0.00000  Uiso   1.00
C1187  C     0.76024   0.91726   0.95109   0.00000  Uiso   1.00
C1188  C     0.80944   0.94065   0.83329   0.00000  Uiso   1.00
C1189  C     0.69056   0.55935   0.83338   0.00000  Uiso   1.00
C1190  C     0.69056   0.94066   0.83338   0.00000  Uiso   1.00
C1191  C     0.80944   0.55935   0.83329   0.00000  Uiso   1.00
C1192  C     0.99868   0.71033   0.69140   0.00000  Uiso   1.00
Cu1193 Cu    0.50000   0.75000   0.88022   0.00000  Uiso   1.00
Cu1194 Cu    0.50000   0.75000   0.78645   0.00000  Uiso   1.00
Cu1195 Cu    0.75000   0.50000   0.88022   0.00000  Uiso   1.00
Cu1196 Cu    0.75000   0.50000   0.78645   0.00000  Uiso   1.00
F1197  F     0.89026   0.67356   0.75373   0.00000  Uiso   1.00
F1198  F     0.85973   0.57645   0.91294   0.00000  Uiso   1.00
F1199  F     0.83038   0.61074   0.75288   0.00000  Uiso   1.00
F1200  F     0.66952   0.88937   0.91383   0.00000  Uiso   1.00
F1201  F     0.85981   0.92365   0.91289   0.00000  Uiso   1.00
F1202  F     0.64025   0.57643   0.75374   0.00000  Uiso   1.00
F1203  F     0.66964   0.61077   0.91378   0.00000  Uiso   1.00
F1204  F     0.83029   0.88915   0.75293   0.00000  Uiso   1.00
F1205  F     0.60965   0.82656   0.91299   0.00000  Uiso   1.00
F1206  F     0.58048   0.86063   0.75284   0.00000  Uiso   1.00
F1207  F     0.91961   0.63927   0.91379   0.00000  Uiso   1.00
F1208  F     0.60975   0.67358   0.91293   0.00000  Uiso   1.00
F1209  F     0.89017   0.82633   0.75378   0.00000  Uiso   1.00
F1210  F     0.91970   0.86084   0.91374   0.00000  Uiso   1.00
F1211  F     0.58037   0.63924   0.75289   0.00000  Uiso   1.00
F1212  F     0.64034   0.92345   0.75369   0.00000  Uiso   1.00
H1213  H     0.50348   0.65921   0.74850   0.00000  Uiso   1.00
H1214  H     0.99656   0.84077   0.91814   0.00000  Uiso   1.00
H1215  H     0.50352   0.84082   0.74847   0.00000  Uiso   1.00
H1216  H     0.99651   0.65919   0.91818   0.00000  Uiso   1.00
H1217  H     0.75346   0.90921   0.74850   0.00000  Uiso   1.00
H1218  H     0.74653   0.59079   0.91817   0.00000  Uiso   1.00
H1219  H     0.75348   0.59080   0.74849   0.00000  Uiso   1.00
H1220  H     0.74649   0.90918   0.91819   0.00000  Uiso   1.00
N1221  N     0.50000   0.75000   0.95069   0.00000  Uiso   1.00
N1222  N     0.50000   0.75000   0.71598   0.00000  Uiso   1.00
N1223  N     0.75000   0.50000   0.95069   0.00000  Uiso   1.00
N1224  N     0.75000   0.50000   0.71598   0.00000  Uiso   1.00
O1225  O     0.54509   0.70491   0.87291   0.00000  Uiso   1.00
O1226  O     0.70492   0.54509   0.79375   0.00000  Uiso   1.00
O1227  O     0.70492   0.54509   0.87291   0.00000  Uiso   1.00
O1228  O     0.79509   0.95491   0.79375   0.00000  Uiso   1.00
O1229  O     0.70492   0.95491   0.79375   0.00000  Uiso   1.00
O1230  O     0.79509   0.54509   0.87291   0.00000  Uiso   1.00
O1231  O     0.79509   0.54509   0.79375   0.00000  Uiso   1.00
O1232  O     0.70492   0.95491   0.87291   0.00000  Uiso   1.00
O1233  O     0.96547   0.63992   0.69875   0.00000  Uiso   1.00
O1234  O     0.53449   0.86011   0.96794   0.00000  Uiso   1.00
O1235  O     0.96538   0.86003   0.69881   0.00000  Uiso   1.00
O1236  O     0.95492   0.79509   0.79375   0.00000  Uiso   1.00
O1237  O     0.53462   0.63997   0.96787   0.00000  Uiso   1.00
O1238  O     0.71547   0.88991   0.69874   0.00000  Uiso   1.00
O1239  O     0.78454   0.61008   0.96791   0.00000  Uiso   1.00
O1240  O     0.71542   0.61005   0.69878   0.00000  Uiso   1.00
O1241  O     0.78463   0.88998   0.96786   0.00000  Uiso   1.00
O1242  O     0.95492   0.79509   0.87291   0.00000  Uiso   1.00
O1243  O     0.54509   0.70491   0.79375   0.00000  Uiso   1.00
O1244  O     0.95492   0.70491   0.79375   0.00000  Uiso   1.00
O1245  O     0.54509   0.79509   0.87291   0.00000  Uiso   1.00
O1246  O     0.54509   0.79509   0.79375   0.00000  Uiso   1.00
O1247  O     0.95492   0.70491   0.87291   0.00000  Uiso   1.00
O1248  O     0.79509   0.95491   0.87291   0.00000  Uiso   1.00
loop_
_geom_bond_atom_site_label_1
_geom_bond_atom_site_label_2
_geom_bond_distance
_geom_bond_site_symmetry_2
_ccdc_geom_bond_type
C1     O99     1.301   .     A
C1     O81     1.302   .     A
C1     C30     1.457   .     S
C2     N77     1.377   .     A
C2     C37     1.486   .     S
C2     C523    1.431   1_455 S
C3     C38     1.486   .     S
C3     C938    1.431   1_554 S
C3     N182    1.377   .     S
C4     C39     1.486   .     S
C4     N77     1.377   .     A
C4     C568    1.431   1_455 S
C5     C40     1.486   .     S
C5     C840    1.431   1_554 S
C5     N288    1.377   .     S
C6     C41     1.486   .     S
C6     C423    1.431   .     S
C6     N79     1.377   .     S
C7     C42     1.486   .     S
C7     N80     1.377   .     A
C7     C838    1.431   1_554 S
C8     C43     1.486   .     S
C8     N287    1.377   .     A
C8     C421    1.431   .     S
C9     F53     1.358   .     S
C9     C20     1.383   .     A
C9     C28     1.404   .     A
C10    C27     1.404   .     A
C10    C21     1.383   .     A
C10    F61     1.358   .     S
C11    C18     1.383   .     A
C11    F62     1.357   .     S
C11    C27     1.406   .     A
C12    C29     1.457   .     S
C12    O98     1.301   .     A
C12    O92     1.302   .     A
C13    C28     1.406   .     A
C13    C19     1.383   .     A
C13    F63     1.357   .     S
C14    C30     1.404   .     A
C14    F64     1.358   .     S
C14    C25     1.383   .     A
C15    F65     1.358   .     S
C15    C29     1.404   .     A
C15    C26     1.383   .     A
C16    C29     1.406   .     A
C16    C22     1.383   .     A
C16    F66     1.357   .     S
C17    C30     1.406   .     A
C17    F67     1.357   .     S
C17    C24     1.383   .     A
C18    F68     1.358   .     S
C18    C32     1.404   .     A
C19    C31     1.404   .     A
C19    F54     1.358   .     S
C20    F55     1.357   .     S
C20    C31     1.406   .     A
C21    C32     1.406   .     A
C21    F56     1.357   .     S
C22    F57     1.358   .     S
C22    C35     1.404   .     A
C23    O103    1.301   .     A
C23    O100    1.302   .     A
C23    C28     1.457   .     S
C24    C33     1.404   .     A
C24    F58     1.358   .     S
C25    F59     1.357   .     S
C25    C33     1.406   .     A
C26    C35     1.406   .     A
C26    F60     1.357   .     S
C27    C34     1.457   .     S
C31    C47     1.457   .     S
C32    C46     1.457   .     S
C33    C45     1.457   .     S
C34    O102    1.301   .     A
C34    O101    1.302   .     A
C35    C44     1.457   .     S
C36    O89     1.222   .     D
C36    C48     1.486   .     S
C36    H173    1.073   .     S
C37    O90     1.222   .     D
C37    H174    1.073   1_455 S
C38    O91     1.221   .     D
C38    H175    1.073   .     S
C39    O93     1.222   .     D
C39    H176    1.073   1_455 S
C40    H73     1.073   .     S
C40    O94     1.222   .     D
C41    H74     1.073   .     S
C41    O95     1.222   .     D
C42    H75     1.073   .     S
C42    O96     1.222   .     D
C43    H76     1.073   .     S
C43    O97     1.221   .     D
C44    O104    1.302   .     A
C44    O84     1.301   .     A
C45    O82     1.302   .     A
C45    O83     1.301   .     A
C46    O85     1.302   .     A
C46    O88     1.301   .     A
C47    O86     1.302   .     A
C47    O87     1.301   .     A
C48    C940    1.431   1_554 S
C48    N182    1.377   .     S
Cu49   O101    1.972   .     S
Cu49   N77     2.035   .     S
Cu49   O81     1.972   .     S
Cu49   Cu50    2.708   .     S
Cu49   O202    1.972   1_455 S
Cu49   O207    1.972   1_455 S
Cu50   N78     2.035   .     S
Cu50   O99     1.972   .     S
Cu50   O102    1.972   .     S
Cu50   O196    1.972   1_455 S
Cu50   O204    1.972   1_455 S
Cu51   O296    1.972   1_545 S
Cu51   O312    1.972   1_545 S
Cu51   N79     2.035   .     S
Cu51   Cu52    2.708   .     S
Cu51   O83     1.972   .     S
Cu51   O86     1.972   .     S
Cu52   O82     1.972   .     S
Cu52   O87     1.972   .     S
Cu52   N80     2.035   .     S
Cu52   O292    1.972   1_545 S
Cu52   O293    1.972   1_545 S
H69    C140    1.073   1_455 S
H70    C141    1.073   .     S
H71    C142    1.073   1_455 S
H72    C143    1.073   .     S
N78    C152    1.377   1_455 S
N78    C107    1.377   1_455 S
N79    C216    1.377   1_545 A
N80    C213    1.377   1_545 S
O84    Cu260   1.972   .     S
O85    Cu260   1.972   .     S
O88    Cu259   1.972   .     S
O92    Cu154   1.972   .     S
O98    Cu153   1.972   .     S
O100   Cu154   1.972   .     S
O103   Cu153   1.972   .     S
O104   Cu259   1.972   .     S
C105   O203    1.301   .     A
C105   O185    1.302   .     A
C105   C134    1.457   .     S
C106   N181    1.377   .     A
C106   C141    1.486   .     S
C106   C419    1.431   .     S
C107   C142    1.486   .     S
C107   C834    1.431   1_654 S
C107   N78     1.377   1_655 S
C108   C143    1.486   .     S
C108   N181    1.377   .     A
C108   C464    1.431   .     S
C109   C144    1.486   .     S
C109   C944    1.431   1_554 S
C109   N392    1.377   .     S
C110   C145    1.486   .     S
C110   C527    1.431   .     S
C110   N183    1.377   .     S
C111   C146    1.486   .     S
C111   N184    1.377   .     A
C111   C942    1.431   1_554 S
C112   C147    1.486   .     S
C112   N391    1.377   .     A
C112   C525    1.431   .     S
C113   F157    1.358   .     S
C113   C124    1.383   .     A
C113   C132    1.404   .     A
C114   C131    1.404   .     A
C114   C125    1.383   .     A
C114   F165    1.358   .     S
C115   C122    1.383   .     A
C115   F166    1.357   .     S
C115   C131    1.406   .     A
C116   C133    1.457   .     S
C116   O202    1.301   .     A
C116   O196    1.302   .     A
C117   C132    1.406   .     A
C117   C123    1.383   .     A
C117   F167    1.357   .     S
C118   C134    1.404   .     A
C118   F168    1.358   .     S
C118   C129    1.383   .     A
C119   F169    1.358   .     S
C119   C133    1.404   .     A
C119   C130    1.383   .     A
C120   C133    1.406   .     A
C120   C126    1.383   .     A
C120   F170    1.357   .     S
C121   C134    1.406   .     A
C121   F171    1.357   .     S
C121   C128    1.383   .     A
C122   F172    1.358   .     S
C122   C136    1.404   .     A
C123   C135    1.404   .     A
C123   F158    1.358   .     S
C124   F159    1.357   .     S
C124   C135    1.406   .     A
C125   C136    1.406   .     A
C125   F160    1.357   .     S
C126   F161    1.358   .     S
C126   C139    1.404   .     A
C127   O207    1.301   .     A
C127   O204    1.302   .     A
C127   C132    1.457   .     S
C128   C137    1.404   .     A
C128   F162    1.358   .     S
C129   F163    1.357   .     S
C129   C137    1.406   .     A
C130   C139    1.406   .     A
C130   F164    1.357   .     S
C131   C138    1.457   .     S
C135   C151    1.457   .     S
C136   C150    1.457   .     S
C137   C149    1.457   .     S
C138   O206    1.301   .     A
C138   O205    1.302   .     A
C139   C148    1.457   .     S
C140   O193    1.222   .     D
C140   C152    1.486   .     S
C140   H69     1.073   1_655 S
C141   O194    1.222   .     D
C142   O195    1.221   .     D
C142   H71     1.073   1_655 S
C143   O197    1.222   .     D
C144   H177    1.073   .     S
C144   O198    1.222   .     D
C145   H178    1.073   .     S
C145   O199    1.222   .     D
C146   H179    1.073   .     S
C146   O200    1.222   .     D
C147   H180    1.073   .     S
C147   O201    1.221   .     D
C148   O208    1.302   .     A
C148   O188    1.301   .     A
C149   O186    1.302   .     A
C149   O187    1.301   .     A
C150   O189    1.302   .     A
C150   O192    1.301   .     A
C151   O190    1.302   .     A
C151   O191    1.301   .     A
C152   C836    1.431   1_654 S
C152   N78     1.377   1_655 S
Cu153  O205    1.972   .     S
Cu153  N181    2.035   .     S
Cu153  O185    1.972   .     S
Cu153  Cu154   2.708   .     S
Cu154  N182    2.035   .     S
Cu154  O203    1.972   .     S
Cu154  O206    1.972   .     S
Cu155  O400    1.972   1_545 S
Cu155  O416    1.972   1_545 S
Cu155  N183    2.035   .     S
Cu155  Cu156   2.708   .     S
Cu155  O187    1.972   .     S
Cu155  O190    1.972   .     S
Cu156  O186    1.972   .     S
Cu156  O191    1.972   .     S
Cu156  N184    2.035   .     S
Cu156  O396    1.972   1_545 S
Cu156  O397    1.972   1_545 S
H174   C37     1.073   1_655 S
H176   C39     1.073   1_655 S
N183   C320    1.377   1_545 A
N184   C317    1.377   1_545 S
O188   Cu364   1.972   .     S
O189   Cu364   1.972   .     S
O192   Cu363   1.972   .     S
O196   Cu50    1.972   1_655 S
O202   Cu49    1.972   1_655 S
O204   Cu50    1.972   1_655 S
O207   Cu49    1.972   1_655 S
O208   Cu363   1.972   .     S
C209   O307    1.301   .     A
C209   O289    1.302   .     A
C209   C238    1.457   .     S
C210   N285    1.377   .     A
C210   C245    1.486   .     S
C210   C731    1.431   1_455 S
C211   C246    1.486   .     S
C211   C1146   1.431   1_554 S
C211   N390    1.377   .     S
C212   C247    1.486   .     S
C212   N285    1.377   .     A
C212   C776    1.431   1_455 S
C213   C248    1.486   .     S
C213   C1048   1.431   1_554 S
C213   N80     1.377   1_565 S
C214   C249    1.486   .     S
C214   C631    1.431   .     S
C214   N287    1.377   .     S
C215   C250    1.486   .     S
C215   N288    1.377   .     A
C215   C1046   1.431   1_554 S
C216   C251    1.486   .     S
C216   N79     1.377   1_565 A
C216   C629    1.431   .     S
C217   F261    1.358   .     S
C217   C228    1.383   .     A
C217   C236    1.404   .     A
C218   C235    1.404   .     A
C218   C229    1.383   .     A
C218   F269    1.358   .     S
C219   C226    1.383   .     A
C219   F270    1.357   .     S
C219   C235    1.406   .     A
C220   C237    1.457   .     S
C220   O306    1.301   .     A
C220   O300    1.302   .     A
C221   C236    1.406   .     A
C221   C227    1.383   .     A
C221   F271    1.357   .     S
C222   C238    1.404   .     A
C222   F272    1.358   .     S
C222   C233    1.383   .     A
C223   F273    1.358   .     S
C223   C237    1.404   .     A
C223   C234    1.383   .     A
C224   C237    1.406   .     A
C224   C230    1.383   .     A
C224   F274    1.357   .     S
C225   C238    1.406   .     A
C225   F275    1.357   .     S
C225   C232    1.383   .     A
C226   F276    1.358   .     S
C226   C240    1.404   .     A
C227   C239    1.404   .     A
C227   F262    1.358   .     S
C228   F263    1.357   .     S
C228   C239    1.406   .     A
C229   C240    1.406   .     A
C229   F264    1.357   .     S
C230   F265    1.358   .     S
C230   C243    1.404   .     A
C231   O311    1.301   .     A
C231   O308    1.302   .     A
C231   C236    1.457   .     S
C232   C241    1.404   .     A
C232   F266    1.358   .     S
C233   F267    1.357   .     S
C233   C241    1.406   .     A
C234   C243    1.406   .     A
C234   F268    1.357   .     S
C235   C242    1.457   .     S
C239   C255    1.457   .     S
C240   C254    1.457   .     S
C241   C253    1.457   .     S
C242   O310    1.301   .     A
C242   O309    1.302   .     A
C243   C252    1.457   .     S
C244   O297    1.222   .     D
C244   C256    1.486   .     S
C244   H381    1.073   .     S
C245   O298    1.222   .     D
C245   H382    1.073   1_455 S
C246   O299    1.221   .     D
C246   H383    1.073   .     S
C247   O301    1.222   .     D
C247   H384    1.073   1_455 S
C248   H281    1.073   .     S
C248   O302    1.222   .     D
C249   H282    1.073   .     S
C249   O303    1.222   .     D
C250   H283    1.073   .     S
C250   O304    1.222   .     D
C251   H284    1.073   .     S
C251   O305    1.221   .     D
C252   O312    1.302   .     A
C252   O292    1.301   .     A
C253   O290    1.302   .     A
C253   O291    1.301   .     A
C254   O293    1.302   .     A
C254   O296    1.301   .     A
C255   O294    1.302   .     A
C255   O295    1.301   .     A
C256   C1148   1.431   1_554 S
C256   N390    1.377   .     S
Cu257  O309    1.972   .     S
Cu257  N285    2.035   .     S
Cu257  O289    1.972   .     S
Cu257  Cu258   2.708   .     S
Cu257  O410    1.972   1_455 S
Cu257  O415    1.972   1_455 S
Cu258  N286    2.035   .     S
Cu258  O307    1.972   .     S
Cu258  O310    1.972   .     S
Cu258  O404    1.972   1_455 S
Cu258  O412    1.972   1_455 S
Cu259  N287    2.035   .     S
Cu259  Cu260   2.708   .     S
Cu259  O291    1.972   .     S
Cu259  O294    1.972   .     S
Cu260  O290    1.972   .     S
Cu260  O295    1.972   .     S
Cu260  N288    2.035   .     S
H277   C348    1.073   1_455 S
H278   C349    1.073   .     S
H279   C350    1.073   1_455 S
H280   C351    1.073   .     S
N286   C360    1.377   1_455 S
N286   C315    1.377   1_455 S
O292   Cu52    1.972   1_565 S
O293   Cu52    1.972   1_565 S
O296   Cu51    1.972   1_565 S
O300   Cu362   1.972   .     S
O306   Cu361   1.972   .     S
O308   Cu362   1.972   .     S
O311   Cu361   1.972   .     S
O312   Cu51    1.972   1_565 S
C313   O411    1.301   .     A
C313   O393    1.302   .     A
C313   C342    1.457   .     S
C314   N389    1.377   .     A
C314   C349    1.486   .     S
C314   C627    1.431   .     S
C315   C350    1.486   .     S
C315   C1042   1.431   1_654 S
C315   N286    1.377   1_655 S
C316   C351    1.486   .     S
C316   N389    1.377   .     A
C316   C672    1.431   .     S
C317   C352    1.486   .     S
C317   C1152   1.431   1_554 S
C317   N184    1.377   1_565 S
C318   C353    1.486   .     S
C318   C735    1.431   .     S
C318   N391    1.377   .     S
C319   C354    1.486   .     S
C319   N392    1.377   .     A
C319   C1150   1.431   1_554 S
C320   C355    1.486   .     S
C320   N183    1.377   1_565 A
C320   C733    1.431   .     S
C321   F365    1.358   .     S
C321   C332    1.383   .     A
C321   C340    1.404   .     A
C322   C339    1.404   .     A
C322   C333    1.383   .     A
C322   F373    1.358   .     S
C323   C330    1.383   .     A
C323   F374    1.357   .     S
C323   C339    1.406   .     A
C324   C341    1.457   .     S
C324   O410    1.301   .     A
C324   O404    1.302   .     A
C325   C340    1.406   .     A
C325   C331    1.383   .     A
C325   F375    1.357   .     S
C326   C342    1.404   .     A
C326   F376    1.358   .     S
C326   C337    1.383   .     A
C327   F377    1.358   .     S
C327   C341    1.404   .     A
C327   C338    1.383   .     A
C328   C341    1.406   .     A
C328   C334    1.383   .     A
C328   F378    1.357   .     S
C329   C342    1.406   .     A
C329   F379    1.357   .     S
C329   C336    1.383   .     A
C330   F380    1.358   .     S
C330   C344    1.404   .     A
C331   C343    1.404   .     A
C331   F366    1.358   .     S
C332   F367    1.357   .     S
C332   C343    1.406   .     A
C333   C344    1.406   .     A
C333   F368    1.357   .     S
C334   F369    1.358   .     S
C334   C347    1.404   .     A
C335   O415    1.301   .     A
C335   O412    1.302   .     A
C335   C340    1.457   .     S
C336   C345    1.404   .     A
C336   F370    1.358   .     S
C337   F371    1.357   .     S
C337   C345    1.406   .     A
C338   C347    1.406   .     A
C338   F372    1.357   .     S
C339   C346    1.457   .     S
C343   C359    1.457   .     S
C344   C358    1.457   .     S
C345   C357    1.457   .     S
C346   O414    1.301   .     A
C346   O413    1.302   .     A
C347   C356    1.457   .     S
C348   O401    1.222   .     D
C348   C360    1.486   .     S
C348   H277    1.073   1_655 S
C349   O402    1.222   .     D
C350   O403    1.221   .     D
C350   H279    1.073   1_655 S
C351   O405    1.222   .     D
C352   H385    1.073   .     S
C352   O406    1.222   .     D
C353   H386    1.073   .     S
C353   O407    1.222   .     D
C354   H387    1.073   .     S
C354   O408    1.222   .     D
C355   H388    1.073   .     S
C355   O409    1.221   .     D
C356   O416    1.302   .     A
C356   O396    1.301   .     A
C357   O394    1.302   .     A
C357   O395    1.301   .     A
C358   O397    1.302   .     A
C358   O400    1.301   .     A
C359   O398    1.302   .     A
C359   O399    1.301   .     A
C360   C1044   1.431   1_654 S
C360   N286    1.377   1_655 S
Cu361  O413    1.972   .     S
Cu361  N389    2.035   .     S
Cu361  O393    1.972   .     S
Cu361  Cu362   2.708   .     S
Cu362  N390    2.035   .     S
Cu362  O411    1.972   .     S
Cu362  O414    1.972   .     S
Cu363  N391    2.035   .     S
Cu363  Cu364   2.708   .     S
Cu363  O395    1.972   .     S
Cu363  O398    1.972   .     S
Cu364  O394    1.972   .     S
Cu364  O399    1.972   .     S
Cu364  N392    2.035   .     S
H382   C245    1.073   1_655 S
H384   C247    1.073   1_655 S
O396   Cu156   1.972   1_565 S
O397   Cu156   1.972   1_565 S
O400   Cu155   1.972   1_565 S
O404   Cu258   1.972   1_655 S
O410   Cu257   1.972   1_655 S
O412   Cu258   1.972   1_655 S
O415   Cu257   1.972   1_655 S
O416   Cu155   1.972   1_565 S
C417   O515    1.301   .     A
C417   O497    1.302   .     A
C417   C446    1.457   .     S
C418   N493    1.377   .     A
C418   C453    1.486   .     S
C418   C939    1.431   1_455 S
C419   C454    1.486   .     S
C419   N598    1.377   .     S
C420   C455    1.486   .     S
C420   N493    1.377   .     A
C420   C984    1.431   1_455 S
C421   C456    1.486   .     S
C421   N704    1.377   .     S
C422   C457    1.486   .     S
C422   C839    1.431   .     S
C422   N495    1.377   .     S
C423   C458    1.486   .     S
C423   N496    1.377   .     A
C424   C459    1.486   .     S
C424   N703    1.377   .     A
C424   C837    1.431   .     S
C425   F469    1.358   .     S
C425   C436    1.383   .     A
C425   C444    1.404   .     A
C426   C443    1.404   .     A
C426   C437    1.383   .     A
C426   F477    1.358   .     S
C427   C434    1.383   .     A
C427   F478    1.357   .     S
C427   C443    1.406   .     A
C428   C445    1.457   .     S
C428   O514    1.301   .     A
C428   O508    1.302   .     A
C429   C444    1.406   .     A
C429   C435    1.383   .     A
C429   F479    1.357   .     S
C430   C446    1.404   .     A
C430   F480    1.358   .     S
C430   C441    1.383   .     A
C431   F481    1.358   .     S
C431   C445    1.404   .     A
C431   C442    1.383   .     A
C432   C445    1.406   .     A
C432   C438    1.383   .     A
C432   F482    1.357   .     S
C433   C446    1.406   .     A
C433   F483    1.357   .     S
C433   C440    1.383   .     A
C434   F484    1.358   .     S
C434   C448    1.404   .     A
C435   C447    1.404   .     A
C435   F470    1.358   .     S
C436   F471    1.357   .     S
C436   C447    1.406   .     A
C437   C448    1.406   .     A
C437   F472    1.357   .     S
C438   F473    1.358   .     S
C438   C451    1.404   .     A
C439   O519    1.301   .     A
C439   O516    1.302   .     A
C439   C444    1.457   .     S
C440   C449    1.404   .     A
C440   F474    1.358   .     S
C441   F475    1.357   .     S
C441   C449    1.406   .     A
C442   C451    1.406   .     A
C442   F476    1.357   .     S
C443   C450    1.457   .     S
C447   C463    1.457   .     S
C448   C462    1.457   .     S
C449   C461    1.457   .     S
C450   O518    1.301   .     A
C450   O517    1.302   .     A
C451   C460    1.457   .     S
C452   O505    1.222   .     D
C452   C464    1.486   .     S
C452   H589    1.073   .     S
C453   O506    1.222   .     D
C453   H590    1.073   1_455 S
C454   O507    1.221   .     D
C454   H591    1.073   .     S
C455   O509    1.222   .     D
C455   H592    1.073   1_455 S
C456   H489    1.073   .     S
C456   O510    1.222   .     D
C457   H490    1.073   .     S
C457   O511    1.222   .     D
C458   H491    1.073   .     S
C458   O512    1.222   .     D
C459   H492    1.073   .     S
C459   O513    1.221   .     D
C460   O520    1.302   .     A
C460   O500    1.301   .     A
C461   O498    1.302   .     A
C461   O499    1.301   .     A
C462   O501    1.302   .     A
C462   O504    1.301   .     A
C463   O502    1.302   .     A
C463   O503    1.301   .     A
C464   N598    1.377   .     S
Cu465  O517    1.972   .     S
Cu465  N493    2.035   .     S
Cu465  O497    1.972   .     S
Cu465  Cu466   2.708   .     S
Cu465  O618    1.972   1_455 S
Cu465  O623    1.972   1_455 S
Cu466  N494    2.035   .     S
Cu466  O515    1.972   .     S
Cu466  O518    1.972   .     S
Cu466  O612    1.972   1_455 S
Cu466  O620    1.972   1_455 S
Cu467  O712    1.972   1_545 S
Cu467  O728    1.972   1_545 S
Cu467  N495    2.035   .     S
Cu467  Cu468   2.708   .     S
Cu467  O499    1.972   .     S
Cu467  O502    1.972   .     S
Cu468  O498    1.972   .     S
Cu468  O503    1.972   .     S
Cu468  N496    2.035   .     S
Cu468  O708    1.972   1_545 S
Cu468  O709    1.972   1_545 S
H485   C556    1.073   1_455 S
H486   C557    1.073   .     S
H487   C558    1.073   1_455 S
H488   C559    1.073   .     S
N494   C568    1.377   1_455 S
N494   C523    1.377   1_455 S
N495   C632    1.377   1_545 A
N496   C629    1.377   1_545 S
O500   Cu676   1.972   .     S
O501   Cu676   1.972   .     S
O504   Cu675   1.972   .     S
O508   Cu570   1.972   .     S
O514   Cu569   1.972   .     S
O516   Cu570   1.972   .     S
O519   Cu569   1.972   .     S
O520   Cu675   1.972   .     S
C521   O619    1.301   .     A
C521   O601    1.302   .     A
C521   C550    1.457   .     S
C522   N597    1.377   .     A
C522   C557    1.486   .     S
C522   C835    1.431   .     S
C523   C558    1.486   .     S
C523   C2      1.431   1_655 S
C523   N494    1.377   1_655 S
C524   C559    1.486   .     S
C524   N597    1.377   .     A
C524   C880    1.431   .     S
C525   C560    1.486   .     S
C525   N808    1.377   .     S
C526   C561    1.486   .     S
C526   C943    1.431   .     S
C526   N599    1.377   .     S
C527   C562    1.486   .     S
C527   N600    1.377   .     A
C528   C563    1.486   .     S
C528   N807    1.377   .     A
C528   C941    1.431   .     S
C529   F573    1.358   .     S
C529   C540    1.383   .     A
C529   C548    1.404   .     A
C530   C547    1.404   .     A
C530   C541    1.383   .     A
C530   F581    1.358   .     S
C531   C538    1.383   .     A
C531   F582    1.357   .     S
C531   C547    1.406   .     A
C532   C549    1.457   .     S
C532   O618    1.301   .     A
C532   O612    1.302   .     A
C533   C548    1.406   .     A
C533   C539    1.383   .     A
C533   F583    1.357   .     S
C534   C550    1.404   .     A
C534   F584    1.358   .     S
C534   C545    1.383   .     A
C535   F585    1.358   .     S
C535   C549    1.404   .     A
C535   C546    1.383   .     A
C536   C549    1.406   .     A
C536   C542    1.383   .     A
C536   F586    1.357   .     S
C537   C550    1.406   .     A
C537   F587    1.357   .     S
C537   C544    1.383   .     A
C538   F588    1.358   .     S
C538   C552    1.404   .     A
C539   C551    1.404   .     A
C539   F574    1.358   .     S
C540   F575    1.357   .     S
C540   C551    1.406   .     A
C541   C552    1.406   .     A
C541   F576    1.357   .     S
C542   F577    1.358   .     S
C542   C555    1.404   .     A
C543   O623    1.301   .     A
C543   O620    1.302   .     A
C543   C548    1.457   .     S
C544   C553    1.404   .     A
C544   F578    1.358   .     S
C545   F579    1.357   .     S
C545   C553    1.406   .     A
C546   C555    1.406   .     A
C546   F580    1.357   .     S
C547   C554    1.457   .     S
C551   C567    1.457   .     S
C552   C566    1.457   .     S
C553   C565    1.457   .     S
C554   O622    1.301   .     A
C554   O621    1.302   .     A
C555   C564    1.457   .     S
C556   O609    1.222   .     D
C556   C568    1.486   .     S
C556   H485    1.073   1_655 S
C557   O610    1.222   .     D
C558   O611    1.221   .     D
C558   H487    1.073   1_655 S
C559   O613    1.222   .     D
C560   H593    1.073   .     S
C560   O614    1.222   .     D
C561   H594    1.073   .     S
C561   O615    1.222   .     D
C562   H595    1.073   .     S
C562   O616    1.222   .     D
C563   H596    1.073   .     S
C563   O617    1.221   .     D
C564   O624    1.302   .     A
C564   O604    1.301   .     A
C565   O602    1.302   .     A
C565   O603    1.301   .     A
C566   O605    1.302   .     A
C566   O608    1.301   .     A
C567   O606    1.302   .     A
C567   O607    1.301   .     A
C568   C4      1.431   1_655 S
C568   N494    1.377   1_655 S
Cu569  O621    1.972   .     S
Cu569  N597    2.035   .     S
Cu569  O601    1.972   .     S
Cu569  Cu570   2.708   .     S
Cu570  N598    2.035   .     S
Cu570  O619    1.972   .     S
Cu570  O622    1.972   .     S
Cu571  O816    1.972   1_545 S
Cu571  O832    1.972   1_545 S
Cu571  N599    2.035   .     S
Cu571  Cu572   2.708   .     S
Cu571  O603    1.972   .     S
Cu571  O606    1.972   .     S
Cu572  O602    1.972   .     S
Cu572  O607    1.972   .     S
Cu572  N600    2.035   .     S
Cu572  O812    1.972   1_545 S
Cu572  O813    1.972   1_545 S
H590   C453    1.073   1_655 S
H592   C455    1.073   1_655 S
N599   C736    1.377   1_545 A
N600   C733    1.377   1_545 S
O604   Cu780   1.972   .     S
O605   Cu780   1.972   .     S
O608   Cu779   1.972   .     S
O612   Cu466   1.972   1_655 S
O618   Cu465   1.972   1_655 S
O620   Cu466   1.972   1_655 S
O623   Cu465   1.972   1_655 S
O624   Cu779   1.972   .     S
C625   O723    1.301   .     A
C625   O705    1.302   .     A
C625   C654    1.457   .     S
C626   N701    1.377   .     A
C626   C661    1.486   .     S
C626   C1147   1.431   1_455 S
C627   C662    1.486   .     S
C627   N806    1.377   .     S
C628   C663    1.486   .     S
C628   N701    1.377   .     A
C628   C1192   1.431   1_455 S
C629   C664    1.486   .     S
C629   N496    1.377   1_565 S
C630   C665    1.486   .     S
C630   C1047   1.431   .     S
C630   N703    1.377   .     S
C631   C666    1.486   .     S
C631   N704    1.377   .     A
C632   C667    1.486   .     S
C632   N495    1.377   1_565 A
C632   C1045   1.431   .     S
C633   F677    1.358   .     S
C633   C644    1.383   .     A
C633   C652    1.404   .     A
C634   C651    1.404   .     A
C634   C645    1.383   .     A
C634   F685    1.358   .     S
C635   C642    1.383   .     A
C635   F686    1.357   .     S
C635   C651    1.406   .     A
C636   C653    1.457   .     S
C636   O722    1.301   .     A
C636   O716    1.302   .     A
C637   C652    1.406   .     A
C637   C643    1.383   .     A
C637   F687    1.357   .     S
C638   C654    1.404   .     A
C638   F688    1.358   .     S
C638   C649    1.383   .     A
C639   F689    1.358   .     S
C639   C653    1.404   .     A
C639   C650    1.383   .     A
C640   C653    1.406   .     A
C640   C646    1.383   .     A
C640   F690    1.357   .     S
C641   C654    1.406   .     A
C641   F691    1.357   .     S
C641   C648    1.383   .     A
C642   F692    1.358   .     S
C642   C656    1.404   .     A
C643   C655    1.404   .     A
C643   F678    1.358   .     S
C644   F679    1.357   .     S
C644   C655    1.406   .     A
C645   C656    1.406   .     A
C645   F680    1.357   .     S
C646   F681    1.358   .     S
C646   C659    1.404   .     A
C647   O727    1.301   .     A
C647   O724    1.302   .     A
C647   C652    1.457   .     S
C648   C657    1.404   .     A
C648   F682    1.358   .     S
C649   F683    1.357   .     S
C649   C657    1.406   .     A
C650   C659    1.406   .     A
C650   F684    1.357   .     S
C651   C658    1.457   .     S
C655   C671    1.457   .     S
C656   C670    1.457   .     S
C657   C669    1.457   .     S
C658   O726    1.301   .     A
C658   O725    1.302   .     A
C659   C668    1.457   .     S
C660   O713    1.222   .     D
C660   C672    1.486   .     S
C660   H797    1.073   .     S
C661   O714    1.222   .     D
C661   H798    1.073   1_455 S
C662   O715    1.221   .     D
C662   H799    1.073   .     S
C663   O717    1.222   .     D
C663   H800    1.073   1_455 S
C664   H697    1.073   .     S
C664   O718    1.222   .     D
C665   H698    1.073   .     S
C665   O719    1.222   .     D
C666   H699    1.073   .     S
C666   O720    1.222   .     D
C667   H700    1.073   .     S
C667   O721    1.221   .     D
C668   O728    1.302   .     A
C668   O708    1.301   .     A
C669   O706    1.302   .     A
C669   O707    1.301   .     A
C670   O709    1.302   .     A
C670   O712    1.301   .     A
C671   O710    1.302   .     A
C671   O711    1.301   .     A
C672   N806    1.377   .     S
Cu673  O725    1.972   .     S
Cu673  N701    2.035   .     S
Cu673  O705    1.972   .     S
Cu673  Cu674   2.708   .     S
Cu673  O826    1.972   1_455 S
Cu673  O831    1.972   1_455 S
Cu674  N702    2.035   .     S
Cu674  O723    1.972   .     S
Cu674  O726    1.972   .     S
Cu674  O820    1.972   1_455 S
Cu674  O828    1.972   1_455 S
Cu675  N703    2.035   .     S
Cu675  Cu676   2.708   .     S
Cu675  O707    1.972   .     S
Cu675  O710    1.972   .     S
Cu676  O706    1.972   .     S
Cu676  O711    1.972   .     S
Cu676  N704    2.035   .     S
H693   C764    1.073   1_455 S
H694   C765    1.073   .     S
H695   C766    1.073   1_455 S
H696   C767    1.073   .     S
N702   C776    1.377   1_455 S
N702   C731    1.377   1_455 S
O708   Cu468   1.972   1_565 S
O709   Cu468   1.972   1_565 S
O712   Cu467   1.972   1_565 S
O716   Cu778   1.972   .     S
O722   Cu777   1.972   .     S
O724   Cu778   1.972   .     S
O727   Cu777   1.972   .     S
O728   Cu467   1.972   1_565 S
C729   O827    1.301   .     A
C729   O809    1.302   .     A
C729   C758    1.457   .     S
C730   N805    1.377   .     A
C730   C765    1.486   .     S
C730   C1043   1.431   .     S
C731   C766    1.486   .     S
C731   C210    1.431   1_655 S
C731   N702    1.377   1_655 S
C732   C767    1.486   .     S
C732   N805    1.377   .     A
C732   C1088   1.431   .     S
C733   C768    1.486   .     S
C733   N600    1.377   1_565 S
C734   C769    1.486   .     S
C734   C1151   1.431   .     S
C734   N807    1.377   .     S
C735   C770    1.486   .     S
C735   N808    1.377   .     A
C736   C771    1.486   .     S
C736   N599    1.377   1_565 A
C736   C1149   1.431   .     S
C737   F781    1.358   .     S
C737   C748    1.383   .     A
C737   C756    1.404   .     A
C738   C755    1.404   .     A
C738   C749    1.383   .     A
C738   F789    1.358   .     S
C739   C746    1.383   .     A
C739   F790    1.357   .     S
C739   C755    1.406   .     A
C740   C757    1.457   .     S
C740   O826    1.301   .     A
C740   O820    1.302   .     A
C741   C756    1.406   .     A
C741   C747    1.383   .     A
C741   F791    1.357   .     S
C742   C758    1.404   .     A
C742   F792    1.358   .     S
C742   C753    1.383   .     A
C743   F793    1.358   .     S
C743   C757    1.404   .     A
C743   C754    1.383   .     A
C744   C757    1.406   .     A
C744   C750    1.383   .     A
C744   F794    1.357   .     S
C745   C758    1.406   .     A
C745   F795    1.357   .     S
C745   C752    1.383   .     A
C746   F796    1.358   .     S
C746   C760    1.404   .     A
C747   C759    1.404   .     A
C747   F782    1.358   .     S
C748   F783    1.357   .     S
C748   C759    1.406   .     A
C749   C760    1.406   .     A
C749   F784    1.357   .     S
C750   F785    1.358   .     S
C750   C763    1.404   .     A
C751   O831    1.301   .     A
C751   O828    1.302   .     A
C751   C756    1.457   .     S
C752   C761    1.404   .     A
C752   F786    1.358   .     S
C753   F787    1.357   .     S
C753   C761    1.406   .     A
C754   C763    1.406   .     A
C754   F788    1.357   .     S
C755   C762    1.457   .     S
C759   C775    1.457   .     S
C760   C774    1.457   .     S
C761   C773    1.457   .     S
C762   O830    1.301   .     A
C762   O829    1.302   .     A
C763   C772    1.457   .     S
C764   O817    1.222   .     D
C764   C776    1.486   .     S
C764   H693    1.073   1_655 S
C765   O818    1.222   .     D
C766   O819    1.221   .     D
C766   H695    1.073   1_655 S
C767   O821    1.222   .     D
C768   H801    1.073   .     S
C768   O822    1.222   .     D
C769   H802    1.073   .     S
C769   O823    1.222   .     D
C770   H803    1.073   .     S
C770   O824    1.222   .     D
C771   H804    1.073   .     S
C771   O825    1.221   .     D
C772   O832    1.302   .     A
C772   O812    1.301   .     A
C773   O810    1.302   .     A
C773   O811    1.301   .     A
C774   O813    1.302   .     A
C774   O816    1.301   .     A
C775   O814    1.302   .     A
C775   O815    1.301   .     A
C776   C212    1.431   1_655 S
C776   N702    1.377   1_655 S
Cu777  O829    1.972   .     S
Cu777  N805    2.035   .     S
Cu777  O809    1.972   .     S
Cu777  Cu778   2.708   .     S
Cu778  N806    2.035   .     S
Cu778  O827    1.972   .     S
Cu778  O830    1.972   .     S
Cu779  N807    2.035   .     S
Cu779  Cu780   2.708   .     S
Cu779  O811    1.972   .     S
Cu779  O814    1.972   .     S
Cu780  O810    1.972   .     S
Cu780  O815    1.972   .     S
Cu780  N808    2.035   .     S
H798   C661    1.073   1_655 S
H800   C663    1.073   1_655 S
O812   Cu572   1.972   1_565 S
O813   Cu572   1.972   1_565 S
O816   Cu571   1.972   1_565 S
O820   Cu674   1.972   1_655 S
O826   Cu673   1.972   1_655 S
O828   Cu674   1.972   1_655 S
O831   Cu673   1.972   1_655 S
O832   Cu571   1.972   1_565 S
C833   O931    1.301   .     A
C833   O913    1.302   .     A
C833   C862    1.457   .     S
C834   N909    1.377   .     A
C834   C869    1.486   .     S
C834   C107    1.431   1_456 S
C835   C870    1.486   .     S
C835   N1014   1.377   .     S
C836   C871    1.486   .     S
C836   N909    1.377   .     A
C836   C152    1.431   1_456 S
C837   C872    1.486   .     S
C837   N1120   1.377   .     S
C838   C873    1.486   .     S
C838   C7      1.431   1_556 S
C838   N911    1.377   .     S
C839   C874    1.486   .     S
C839   N912    1.377   .     A
C840   C875    1.486   .     S
C840   N1119   1.377   .     A
C840   C5      1.431   1_556 S
C841   F885    1.358   .     S
C841   C852    1.383   .     A
C841   C860    1.404   .     A
C842   C859    1.404   .     A
C842   C853    1.383   .     A
C842   F893    1.358   .     S
C843   C850    1.383   .     A
C843   F894    1.357   .     S
C843   C859    1.406   .     A
C844   C861    1.457   .     S
C844   O930    1.301   .     A
C844   O924    1.302   .     A
C845   C860    1.406   .     A
C845   C851    1.383   .     A
C845   F895    1.357   .     S
C846   C862    1.404   .     A
C846   F896    1.358   .     S
C846   C857    1.383   .     A
C847   F897    1.358   .     S
C847   C861    1.404   .     A
C847   C858    1.383   .     A
C848   C861    1.406   .     A
C848   C854    1.383   .     A
C848   F898    1.357   .     S
C849   C862    1.406   .     A
C849   F899    1.357   .     S
C849   C856    1.383   .     A
C850   F900    1.358   .     S
C850   C864    1.404   .     A
C851   C863    1.404   .     A
C851   F886    1.358   .     S
C852   F887    1.357   .     S
C852   C863    1.406   .     A
C853   C864    1.406   .     A
C853   F888    1.357   .     S
C854   F889    1.358   .     S
C854   C867    1.404   .     A
C855   O935    1.301   .     A
C855   O932    1.302   .     A
C855   C860    1.457   .     S
C856   C865    1.404   .     A
C856   F890    1.358   .     S
C857   F891    1.357   .     S
C857   C865    1.406   .     A
C858   C867    1.406   .     A
C858   F892    1.357   .     S
C859   C866    1.457   .     S
C863   C879    1.457   .     S
C864   C878    1.457   .     S
C865   C877    1.457   .     S
C866   O934    1.301   .     A
C866   O933    1.302   .     A
C867   C876    1.457   .     S
C868   O921    1.222   .     D
C868   C880    1.486   .     S
C868   H1005   1.073   .     S
C869   O922    1.222   .     D
C869   H1006   1.073   1_455 S
C870   O923    1.221   .     D
C870   H1007   1.073   .     S
C871   O925    1.222   .     D
C871   H1008   1.073   1_455 S
C872   H905    1.073   .     S
C872   O926    1.222   .     D
C873   H906    1.073   .     S
C873   O927    1.222   .     D
C874   H907    1.073   .     S
C874   O928    1.222   .     D
C875   H908    1.073   .     S
C875   O929    1.221   .     D
C876   O936    1.302   .     A
C876   O916    1.301   .     A
C877   O914    1.302   .     A
C877   O915    1.301   .     A
C878   O917    1.302   .     A
C878   O920    1.301   .     A
C879   O918    1.302   .     A
C879   O919    1.301   .     A
C880   N1014   1.377   .     S
Cu881  O933    1.972   .     S
Cu881  N909    2.035   .     S
Cu881  O913    1.972   .     S
Cu881  Cu882   2.708   .     S
Cu881  O1034   1.972   1_455 S
Cu881  O1039   1.972   1_455 S
Cu882  N910    2.035   .     S
Cu882  O931    1.972   .     S
Cu882  O934    1.972   .     S
Cu882  O1028   1.972   1_455 S
Cu882  O1036   1.972   1_455 S
Cu883  O1128   1.972   1_545 S
Cu883  O1144   1.972   1_545 S
Cu883  N911    2.035   .     S
Cu883  Cu884   2.708   .     S
Cu883  O915    1.972   .     S
Cu883  O918    1.972   .     S
Cu884  O914    1.972   .     S
Cu884  O919    1.972   .     S
Cu884  N912    2.035   .     S
Cu884  O1124   1.972   1_545 S
Cu884  O1125   1.972   1_545 S
H901   C972    1.073   1_455 S
H902   C973    1.073   .     S
H903   C974    1.073   1_455 S
H904   C975    1.073   .     S
N910   C984    1.377   1_455 S
N910   C939    1.377   1_455 S
N911   C1048   1.377   1_545 A
N912   C1045   1.377   1_545 S
O916   Cu1092  1.972   .     S
O917   Cu1092  1.972   .     S
O920   Cu1091  1.972   .     S
O924   Cu986   1.972   .     S
O930   Cu985   1.972   .     S
O932   Cu986   1.972   .     S
O935   Cu985   1.972   .     S
O936   Cu1091  1.972   .     S
C937   O1035   1.301   .     A
C937   O1017   1.302   .     A
C937   C966    1.457   .     S
C938   N1013   1.377   .     A
C938   C973    1.486   .     S
C938   C3      1.431   1_556 S
C939   C974    1.486   .     S
C939   C418    1.431   1_655 S
C939   N910    1.377   1_655 S
C940   C975    1.486   .     S
C940   N1013   1.377   .     A
C940   C48     1.431   1_556 S
C941   C976    1.486   .     S
C941   N1224   1.377   .     S
C942   C977    1.486   .     S
C942   C111    1.431   1_556 S
C942   N1015   1.377   .     S
C943   C978    1.486   .     S
C943   N1016   1.377   .     A
C944   C979    1.486   .     S
C944   N1223   1.377   .     A
C944   C109    1.431   1_556 S
C945   F989    1.358   .     S
C945   C956    1.383   .     A
C945   C964    1.404   .     A
C946   C963    1.404   .     A
C946   C957    1.383   .     A
C946   F997    1.358   .     S
C947   C954    1.383   .     A
C947   F998    1.357   .     S
C947   C963    1.406   .     A
C948   C965    1.457   .     S
C948   O1034   1.301   .     A
C948   O1028   1.302   .     A
C949   C964    1.406   .     A
C949   C955    1.383   .     A
C949   F999    1.357   .     S
C950   C966    1.404   .     A
C950   F1000   1.358   .     S
C950   C961    1.383   .     A
C951   F1001   1.358   .     S
C951   C965    1.404   .     A
C951   C962    1.383   .     A
C952   C965    1.406   .     A
C952   C958    1.383   .     A
C952   F1002   1.357   .     S
C953   C966    1.406   .     A
C953   F1003   1.357   .     S
C953   C960    1.383   .     A
C954   F1004   1.358   .     S
C954   C968    1.404   .     A
C955   C967    1.404   .     A
C955   F990    1.358   .     S
C956   F991    1.357   .     S
C956   C967    1.406   .     A
C957   C968    1.406   .     A
C957   F992    1.357   .     S
C958   F993    1.358   .     S
C958   C971    1.404   .     A
C959   O1039   1.301   .     A
C959   O1036   1.302   .     A
C959   C964    1.457   .     S
C960   C969    1.404   .     A
C960   F994    1.358   .     S
C961   F995    1.357   .     S
C961   C969    1.406   .     A
C962   C971    1.406   .     A
C962   F996    1.357   .     S
C963   C970    1.457   .     S
C967   C983    1.457   .     S
C968   C982    1.457   .     S
C969   C981    1.457   .     S
C970   O1038   1.301   .     A
C970   O1037   1.302   .     A
C971   C980    1.457   .     S
C972   O1025   1.222   .     D
C972   C984    1.486   .     S
C972   H901    1.073   1_655 S
C973   O1026   1.222   .     D
C974   O1027   1.221   .     D
C974   H903    1.073   1_655 S
C975   O1029   1.222   .     D
C976   H1009   1.073   .     S
C976   O1030   1.222   .     D
C977   H1010   1.073   .     S
C977   O1031   1.222   .     D
C978   H1011   1.073   .     S
C978   O1032   1.222   .     D
C979   H1012   1.073   .     S
C979   O1033   1.221   .     D
C980   O1040   1.302   .     A
C980   O1020   1.301   .     A
C981   O1018   1.302   .     A
C981   O1019   1.301   .     A
C982   O1021   1.302   .     A
C982   O1024   1.301   .     A
C983   O1022   1.302   .     A
C983   O1023   1.301   .     A
C984   C420    1.431   1_655 S
C984   N910    1.377   1_655 S
Cu985  O1037   1.972   .     S
Cu985  N1013   2.035   .     S
Cu985  O1017   1.972   .     S
Cu985  Cu986   2.708   .     S
Cu986  N1014   2.035   .     S
Cu986  O1035   1.972   .     S
Cu986  O1038   1.972   .     S
Cu987  O1232   1.972   1_545 S
Cu987  O1248   1.972   1_545 S
Cu987  N1015   2.035   .     S
Cu987  Cu988   2.708   .     S
Cu987  O1019   1.972   .     S
Cu987  O1022   1.972   .     S
Cu988  O1018   1.972   .     S
Cu988  O1023   1.972   .     S
Cu988  N1016   2.035   .     S
Cu988  O1228   1.972   1_545 S
Cu988  O1229   1.972   1_545 S
H1006  C869    1.073   1_655 S
H1008  C871    1.073   1_655 S
N1015  C1152   1.377   1_545 A
N1016  C1149   1.377   1_545 S
O1020  Cu1196  1.972   .     S
O1021  Cu1196  1.972   .     S
O1024  Cu1195  1.972   .     S
O1028  Cu882   1.972   1_655 S
O1034  Cu881   1.972   1_655 S
O1036  Cu882   1.972   1_655 S
O1039  Cu881   1.972   1_655 S
O1040  Cu1195  1.972   .     S
C1041  O1139   1.301   .     A
C1041  O1121   1.302   .     A
C1041  C1070   1.457   .     S
C1042  N1117   1.377   .     A
C1042  C1077   1.486   .     S
C1042  C315    1.431   1_456 S
C1043  C1078   1.486   .     S
C1043  N1222   1.377   .     S
C1044  C1079   1.486   .     S
C1044  N1117   1.377   .     A
C1044  C360    1.431   1_456 S
C1045  C1080   1.486   .     S
C1045  N912    1.377   1_565 S
C1046  C1081   1.486   .     S
C1046  C215    1.431   1_556 S
C1046  N1119   1.377   .     S
C1047  C1082   1.486   .     S
C1047  N1120   1.377   .     A
C1048  C1083   1.486   .     S
C1048  N911    1.377   1_565 A
C1048  C213    1.431   1_556 S
C1049  F1093   1.358   .     S
C1049  C1060   1.383   .     A
C1049  C1068   1.404   .     A
C1050  C1067   1.404   .     A
C1050  C1061   1.383   .     A
C1050  F1101   1.358   .     S
C1051  C1058   1.383   .     A
C1051  F1102   1.357   .     S
C1051  C1067   1.406   .     A
C1052  C1069   1.457   .     S
C1052  O1138   1.301   .     A
C1052  O1132   1.302   .     A
C1053  C1068   1.406   .     A
C1053  C1059   1.383   .     A
C1053  F1103   1.357   .     S
C1054  C1070   1.404   .     A
C1054  F1104   1.358   .     S
C1054  C1065   1.383   .     A
C1055  F1105   1.358   .     S
C1055  C1069   1.404   .     A
C1055  C1066   1.383   .     A
C1056  C1069   1.406   .     A
C1056  C1062   1.383   .     A
C1056  F1106   1.357   .     S
C1057  C1070   1.406   .     A
C1057  F1107   1.357   .     S
C1057  C1064   1.383   .     A
C1058  F1108   1.358   .     S
C1058  C1072   1.404   .     A
C1059  C1071   1.404   .     A
C1059  F1094   1.358   .     S
C1060  F1095   1.357   .     S
C1060  C1071   1.406   .     A
C1061  C1072   1.406   .     A
C1061  F1096   1.357   .     S
C1062  F1097   1.358   .     S
C1062  C1075   1.404   .     A
C1063  O1143   1.301   .     A
C1063  O1140   1.302   .     A
C1063  C1068   1.457   .     S
C1064  C1073   1.404   .     A
C1064  F1098   1.358   .     S
C1065  F1099   1.357   .     S
C1065  C1073   1.406   .     A
C1066  C1075   1.406   .     A
C1066  F1100   1.357   .     S
C1067  C1074   1.457   .     S
C1071  C1087   1.457   .     S
C1072  C1086   1.457   .     S
C1073  C1085   1.457   .     S
C1074  O1142   1.301   .     A
C1074  O1141   1.302   .     A
C1075  C1084   1.457   .     S
C1076  O1129   1.222   .     D
C1076  C1088   1.486   .     S
C1076  H1213   1.073   .     S
C1077  O1130   1.222   .     D
C1077  H1214   1.073   1_455 S
C1078  O1131   1.221   .     D
C1078  H1215   1.073   .     S
C1079  O1133   1.222   .     D
C1079  H1216   1.073   1_455 S
C1080  H1113   1.073   .     S
C1080  O1134   1.222   .     D
C1081  H1114   1.073   .     S
C1081  O1135   1.222   .     D
C1082  H1115   1.073   .     S
C1082  O1136   1.222   .     D
C1083  H1116   1.073   .     S
C1083  O1137   1.221   .     D
C1084  O1144   1.302   .     A
C1084  O1124   1.301   .     A
C1085  O1122   1.302   .     A
C1085  O1123   1.301   .     A
C1086  O1125   1.302   .     A
C1086  O1128   1.301   .     A
C1087  O1126   1.302   .     A
C1087  O1127   1.301   .     A
C1088  N1222   1.377   .     S
Cu1089 O1141   1.972   .     S
Cu1089 N1117   2.035   .     S
Cu1089 O1121   1.972   .     S
Cu1089 Cu1090  2.708   .     S
Cu1089 O1242   1.972   1_455 S
Cu1089 O1247   1.972   1_455 S
Cu1090 N1118   2.035   .     S
Cu1090 O1139   1.972   .     S
Cu1090 O1142   1.972   .     S
Cu1090 O1236   1.972   1_455 S
Cu1090 O1244   1.972   1_455 S
Cu1091 N1119   2.035   .     S
Cu1091 Cu1092  2.708   .     S
Cu1091 O1123   1.972   .     S
Cu1091 O1126   1.972   .     S
Cu1092 O1122   1.972   .     S
Cu1092 O1127   1.972   .     S
Cu1092 N1120   2.035   .     S
H1109  C1180   1.073   1_455 S
H1110  C1181   1.073   .     S
H1111  C1182   1.073   1_455 S
H1112  C1183   1.073   .     S
N1118  C1192   1.377   1_455 S
N1118  C1147   1.377   1_455 S
O1124  Cu884   1.972   1_565 S
O1125  Cu884   1.972   1_565 S
O1128  Cu883   1.972   1_565 S
O1132  Cu1194  1.972   .     S
O1138  Cu1193  1.972   .     S
O1140  Cu1194  1.972   .     S
O1143  Cu1193  1.972   .     S
O1144  Cu883   1.972   1_565 S
C1145  O1243   1.301   .     A
C1145  O1225   1.302   .     A
C1145  C1174   1.457   .     S
C1146  N1221   1.377   .     A
C1146  C1181   1.486   .     S
C1146  C211    1.431   1_556 S
C1147  C1182   1.486   .     S
C1147  C626    1.431   1_655 S
C1147  N1118   1.377   1_655 S
C1148  C1183   1.486   .     S
C1148  N1221   1.377   .     A
C1148  C256    1.431   1_556 S
C1149  C1184   1.486   .     S
C1149  N1016   1.377   1_565 S
C1150  C1185   1.486   .     S
C1150  C319    1.431   1_556 S
C1150  N1223   1.377   .     S
C1151  C1186   1.486   .     S
C1151  N1224   1.377   .     A
C1152  C1187   1.486   .     S
C1152  N1015   1.377   1_565 A
C1152  C317    1.431   1_556 S
C1153  F1197   1.358   .     S
C1153  C1164   1.383   .     A
C1153  C1172   1.404   .     A
C1154  C1171   1.404   .     A
C1154  C1165   1.383   .     A
C1154  F1205   1.358   .     S
C1155  C1162   1.383   .     A
C1155  F1206   1.357   .     S
C1155  C1171   1.406   .     A
C1156  C1173   1.457   .     S
C1156  O1242   1.301   .     A
C1156  O1236   1.302   .     A
C1157  C1172   1.406   .     A
C1157  C1163   1.383   .     A
C1157  F1207   1.357   .     S
C1158  C1174   1.404   .     A
C1158  F1208   1.358   .     S
C1158  C1169   1.383   .     A
C1159  F1209   1.358   .     S
C1159  C1173   1.404   .     A
C1159  C1170   1.383   .     A
C1160  C1173   1.406   .     A
C1160  C1166   1.383   .     A
C1160  F1210   1.357   .     S
C1161  C1174   1.406   .     A
C1161  F1211   1.357   .     S
C1161  C1168   1.383   .     A
C1162  F1212   1.358   .     S
C1162  C1176   1.404   .     A
C1163  C1175   1.404   .     A
C1163  F1198   1.358   .     S
C1164  F1199   1.357   .     S
C1164  C1175   1.406   .     A
C1165  C1176   1.406   .     A
C1165  F1200   1.357   .     S
C1166  F1201   1.358   .     S
C1166  C1179   1.404   .     A
C1167  O1247   1.301   .     A
C1167  O1244   1.302   .     A
C1167  C1172   1.457   .     S
C1168  C1177   1.404   .     A
C1168  F1202   1.358   .     S
C1169  F1203   1.357   .     S
C1169  C1177   1.406   .     A
C1170  C1179   1.406   .     A
C1170  F1204   1.357   .     S
C1171  C1178   1.457   .     S
C1175  C1191   1.457   .     S
C1176  C1190   1.457   .     S
C1177  C1189   1.457   .     S
C1178  O1246   1.301   .     A
C1178  O1245   1.302   .     A
C1179  C1188   1.457   .     S
C1180  O1233   1.222   .     D
C1180  C1192   1.486   .     S
C1180  H1109   1.073   1_655 S
C1181  O1234   1.222   .     D
C1182  O1235   1.221   .     D
C1182  H1111   1.073   1_655 S
C1183  O1237   1.222   .     D
C1184  H1217   1.073   .     S
C1184  O1238   1.222   .     D
C1185  H1218   1.073   .     S
C1185  O1239   1.222   .     D
C1186  H1219   1.073   .     S
C1186  O1240   1.222   .     D
C1187  H1220   1.073   .     S
C1187  O1241   1.221   .     D
C1188  O1248   1.302   .     A
C1188  O1228   1.301   .     A
C1189  O1226   1.302   .     A
C1189  O1227   1.301   .     A
C1190  O1229   1.302   .     A
C1190  O1232   1.301   .     A
C1191  O1230   1.302   .     A
C1191  O1231   1.301   .     A
C1192  C628    1.431   1_655 S
C1192  N1118   1.377   1_655 S
Cu1193 O1245   1.972   .     S
Cu1193 N1221   2.035   .     S
Cu1193 O1225   1.972   .     S
Cu1193 Cu1194  2.708   .     S
Cu1194 N1222   2.035   .     S
Cu1194 O1243   1.972   .     S
Cu1194 O1246   1.972   .     S
Cu1195 N1223   2.035   .     S
Cu1195 Cu1196  2.708   .     S
Cu1195 O1227   1.972   .     S
Cu1195 O1230   1.972   .     S
Cu1196 O1226   1.972   .     S
Cu1196 O1231   1.972   .     S
Cu1196 N1224   2.035   .     S
H1214  C1077   1.073   1_655 S
H1216  C1079   1.073   1_655 S
O1228  Cu988   1.972   1_565 S
O1229  Cu988   1.972   1_565 S
O1232  Cu987   1.972   1_565 S
O1236  Cu1090  1.972   1_655 S
O1242  Cu1089  1.972   1_655 S
O1244  Cu1090  1.972   1_655 S
O1247  Cu1089  1.972   1_655 S
O1248  Cu987   1.972   1_565 S
