data_str_m2_o1_o5_pcu_sym.49
_audit_creation_date              2020-01-03
_audit_creation_method            'Materials Studio'
_symmetry_space_group_name_H-M    'P1'
_symmetry_Int_Tables_number       1
_symmetry_cell_setting            triclinic
loop_
_symmetry_equiv_pos_as_xyz
  x,y,z
_cell_length_a                    32.3221
_cell_length_b                    28.6182
_cell_length_c                    27.2276
_cell_angle_alpha                 90.0003
_cell_angle_beta                  89.9727
_cell_angle_gamma                 90.0000
loop_
_atom_site_label
_atom_site_type_symbol
_atom_site_fract_x
_atom_site_fract_y
_atom_site_fract_z
_atom_site_U_iso_or_equiv
_atom_site_adp_type
_atom_site_occupancy
C1     C     0.08756   0.16667   0.16690   0.00000  Uiso   1.00
C2     C     0.02209   0.16667   0.12150   0.00000  Uiso   1.00
C3     C     0.29046   0.16667   0.16626   0.00000  Uiso   1.00
C4     C     0.04287   0.16667   0.16708   0.00000  Uiso   1.00
C5     C     0.14057   0.02478   0.13671   0.00000  Uiso   1.00
C6     C     0.19277   0.30855   0.19663   0.00000  Uiso   1.00
C7     C     0.19277   0.02478   0.19663   0.00000  Uiso   1.00
C8     C     0.14057   0.30855   0.13671   0.00000  Uiso   1.00
C9     C     0.04456   0.16666   0.26093   0.00000  Uiso   1.00
C10    C     0.28877   0.16667   0.07240   0.00000  Uiso   1.00
C11    C     0.28597   0.16666   0.25906   0.00000  Uiso   1.00
C12    C     0.24578   0.16667   0.16643   0.00000  Uiso   1.00
C13    C     0.04736   0.16667   0.07427   0.00000  Uiso   1.00
C14    C     0.16643   0.16667   0.07355   0.00000  Uiso   1.00
C15    C     0.16691   0.16667   0.25979   0.00000  Uiso   1.00
C16    C     0.16658   0.16667   0.02185   0.00000  Uiso   1.00
C17    C     0.16676   0.16667   0.31149   0.00000  Uiso   1.00
C18    C     0.02144   0.16666   0.21234   0.00000  Uiso   1.00
C19    C     0.31190   0.16667   0.12099   0.00000  Uiso   1.00
C20    C     0.31124   0.16666   0.21183   0.00000  Uiso   1.00
Cu21   Cu    0.16667   0.21355   0.16667   0.00000  Uiso   1.00
Cu22   Cu    0.16667   0.11978   0.16667   0.00000  Uiso   1.00
H23    H     0.11964   0.04341   0.11268   0.00000  Uiso   1.00
H24    H     0.29698   0.13491   0.05109   0.00000  Uiso   1.00
H25    H     0.26602   0.13509   0.26025   0.00000  Uiso   1.00
H26    H     0.30453   0.16666   0.29312   0.00000  Uiso   1.00
H27    H     0.26602   0.19823   0.26026   0.00000  Uiso   1.00
H28    H     0.06731   0.19824   0.07308   0.00000  Uiso   1.00
H29    H     0.06731   0.13510   0.07308   0.00000  Uiso   1.00
H30    H     0.02880   0.16667   0.04021   0.00000  Uiso   1.00
H31    H     0.21369   0.28992   0.22066   0.00000  Uiso   1.00
H32    H     0.21369   0.04341   0.22066   0.00000  Uiso   1.00
H33    H     0.11964   0.28992   0.11268   0.00000  Uiso   1.00
H34    H     0.07861   0.16666   0.25721   0.00000  Uiso   1.00
H35    H     0.03635   0.19842   0.28224   0.00000  Uiso   1.00
H36    H     0.03635   0.13490   0.28224   0.00000  Uiso   1.00
H37    H     0.25472   0.16667   0.07612   0.00000  Uiso   1.00
H38    H     0.29698   0.19843   0.05109   0.00000  Uiso   1.00
N39    N     0.16667   0.28402   0.16667   0.00000  Uiso   1.00
N40    N     0.16667   0.04931   0.16667   0.00000  Uiso   1.00
O41    O     0.10655   0.20625   0.16666   0.00000  Uiso   1.00
O42    O     0.22679   0.12709   0.16667   0.00000  Uiso   1.00
O43    O     0.22679   0.20625   0.16667   0.00000  Uiso   1.00
O44    O     0.10655   0.12709   0.16666   0.00000  Uiso   1.00
O45    O     0.16667   0.20625   0.09613   0.00000  Uiso   1.00
O46    O     0.16667   0.12708   0.23720   0.00000  Uiso   1.00
O47    O     0.16667   0.20625   0.23720   0.00000  Uiso   1.00
O48    O     0.16667   0.12708   0.09613   0.00000  Uiso   1.00
C49    C     0.42089   0.16667   0.16690   0.00000  Uiso   1.00
C50    C     0.35543   0.16667   0.12150   0.00000  Uiso   1.00
C51    C     0.62379   0.16667   0.16626   0.00000  Uiso   1.00
C52    C     0.37621   0.16667   0.16708   0.00000  Uiso   1.00
C53    C     0.47390   0.02478   0.13671   0.00000  Uiso   1.00
C54    C     0.52610   0.30855   0.19663   0.00000  Uiso   1.00
C55    C     0.52610   0.02478   0.19663   0.00000  Uiso   1.00
C56    C     0.47390   0.30855   0.13671   0.00000  Uiso   1.00
C57    C     0.37789   0.16666   0.26093   0.00000  Uiso   1.00
C58    C     0.62211   0.16667   0.07240   0.00000  Uiso   1.00
C59    C     0.61931   0.16666   0.25906   0.00000  Uiso   1.00
C60    C     0.57911   0.16667   0.16643   0.00000  Uiso   1.00
C61    C     0.38069   0.16667   0.07427   0.00000  Uiso   1.00
C62    C     0.49976   0.16667   0.07355   0.00000  Uiso   1.00
C63    C     0.50024   0.16667   0.25979   0.00000  Uiso   1.00
C64    C     0.49991   0.16667   0.02185   0.00000  Uiso   1.00
C65    C     0.50009   0.16667   0.31149   0.00000  Uiso   1.00
C66    C     0.35477   0.16666   0.21234   0.00000  Uiso   1.00
C67    C     0.64523   0.16667   0.12099   0.00000  Uiso   1.00
C68    C     0.64457   0.16666   0.21183   0.00000  Uiso   1.00
Cu69   Cu    0.50000   0.21355   0.16667   0.00000  Uiso   1.00
Cu70   Cu    0.50000   0.11978   0.16667   0.00000  Uiso   1.00
H71    H     0.45298   0.04341   0.11268   0.00000  Uiso   1.00
H72    H     0.63032   0.13491   0.05109   0.00000  Uiso   1.00
H73    H     0.59936   0.13509   0.26025   0.00000  Uiso   1.00
H74    H     0.63786   0.16666   0.29312   0.00000  Uiso   1.00
H75    H     0.59936   0.19823   0.26026   0.00000  Uiso   1.00
H76    H     0.40064   0.19824   0.07308   0.00000  Uiso   1.00
H77    H     0.40064   0.13510   0.07308   0.00000  Uiso   1.00
H78    H     0.36214   0.16667   0.04021   0.00000  Uiso   1.00
H79    H     0.54702   0.28992   0.22066   0.00000  Uiso   1.00
H80    H     0.54702   0.04341   0.22066   0.00000  Uiso   1.00
H81    H     0.45298   0.28992   0.11268   0.00000  Uiso   1.00
H82    H     0.41194   0.16666   0.25721   0.00000  Uiso   1.00
H83    H     0.36968   0.19842   0.28224   0.00000  Uiso   1.00
H84    H     0.36968   0.13490   0.28224   0.00000  Uiso   1.00
H85    H     0.58806   0.16667   0.07612   0.00000  Uiso   1.00
H86    H     0.63032   0.19843   0.05109   0.00000  Uiso   1.00
N87    N     0.50000   0.28402   0.16667   0.00000  Uiso   1.00
N88    N     0.50000   0.04931   0.16667   0.00000  Uiso   1.00
O89    O     0.43988   0.20625   0.16666   0.00000  Uiso   1.00
O90    O     0.56012   0.12709   0.16667   0.00000  Uiso   1.00
O91    O     0.56012   0.20625   0.16667   0.00000  Uiso   1.00
O92    O     0.43988   0.12709   0.16666   0.00000  Uiso   1.00
O93    O     0.50000   0.20625   0.09613   0.00000  Uiso   1.00
O94    O     0.50000   0.12708   0.23720   0.00000  Uiso   1.00
O95    O     0.50000   0.20625   0.23720   0.00000  Uiso   1.00
O96    O     0.50000   0.12708   0.09613   0.00000  Uiso   1.00
C97    C     0.75422   0.16667   0.16690   0.00000  Uiso   1.00
C98    C     0.68876   0.16667   0.12150   0.00000  Uiso   1.00
C99    C     0.95713   0.16667   0.16626   0.00000  Uiso   1.00
C100   C     0.70954   0.16667   0.16708   0.00000  Uiso   1.00
C101   C     0.80724   0.02478   0.13671   0.00000  Uiso   1.00
C102   C     0.85943   0.30855   0.19663   0.00000  Uiso   1.00
C103   C     0.85943   0.02478   0.19663   0.00000  Uiso   1.00
C104   C     0.80724   0.30855   0.13671   0.00000  Uiso   1.00
C105   C     0.71123   0.16666   0.26093   0.00000  Uiso   1.00
C106   C     0.95544   0.16667   0.07240   0.00000  Uiso   1.00
C107   C     0.95264   0.16666   0.25906   0.00000  Uiso   1.00
C108   C     0.91244   0.16667   0.16643   0.00000  Uiso   1.00
C109   C     0.71403   0.16667   0.07427   0.00000  Uiso   1.00
C110   C     0.83310   0.16667   0.07355   0.00000  Uiso   1.00
C111   C     0.83357   0.16667   0.25979   0.00000  Uiso   1.00
C112   C     0.83324   0.16667   0.02185   0.00000  Uiso   1.00
C113   C     0.83342   0.16667   0.31149   0.00000  Uiso   1.00
C114   C     0.68811   0.16666   0.21234   0.00000  Uiso   1.00
C115   C     0.97856   0.16667   0.12099   0.00000  Uiso   1.00
C116   C     0.97791   0.16666   0.21183   0.00000  Uiso   1.00
Cu117  Cu    0.83333   0.21355   0.16667   0.00000  Uiso   1.00
Cu118  Cu    0.83333   0.11978   0.16667   0.00000  Uiso   1.00
H119   H     0.78631   0.04341   0.11268   0.00000  Uiso   1.00
H120   H     0.96365   0.13491   0.05109   0.00000  Uiso   1.00
H121   H     0.93269   0.13509   0.26025   0.00000  Uiso   1.00
H122   H     0.97120   0.16666   0.29312   0.00000  Uiso   1.00
H123   H     0.93269   0.19823   0.26026   0.00000  Uiso   1.00
H124   H     0.73398   0.19824   0.07308   0.00000  Uiso   1.00
H125   H     0.73398   0.13510   0.07308   0.00000  Uiso   1.00
H126   H     0.69547   0.16667   0.04021   0.00000  Uiso   1.00
H127   H     0.88036   0.28992   0.22066   0.00000  Uiso   1.00
H128   H     0.88036   0.04341   0.22066   0.00000  Uiso   1.00
H129   H     0.78631   0.28992   0.11268   0.00000  Uiso   1.00
H130   H     0.74528   0.16666   0.25721   0.00000  Uiso   1.00
H131   H     0.70302   0.19842   0.28224   0.00000  Uiso   1.00
H132   H     0.70302   0.13490   0.28224   0.00000  Uiso   1.00
H133   H     0.92139   0.16667   0.07612   0.00000  Uiso   1.00
H134   H     0.96365   0.19843   0.05109   0.00000  Uiso   1.00
N135   N     0.83333   0.28402   0.16667   0.00000  Uiso   1.00
N136   N     0.83333   0.04931   0.16667   0.00000  Uiso   1.00
O137   O     0.77321   0.20625   0.16666   0.00000  Uiso   1.00
O138   O     0.89345   0.12709   0.16667   0.00000  Uiso   1.00
O139   O     0.89345   0.20625   0.16667   0.00000  Uiso   1.00
O140   O     0.77321   0.12709   0.16666   0.00000  Uiso   1.00
O141   O     0.83333   0.20625   0.09613   0.00000  Uiso   1.00
O142   O     0.83333   0.12708   0.23720   0.00000  Uiso   1.00
O143   O     0.83333   0.20625   0.23720   0.00000  Uiso   1.00
O144   O     0.83333   0.12708   0.09613   0.00000  Uiso   1.00
C145   C     0.08756   0.50000   0.16690   0.00000  Uiso   1.00
C146   C     0.02209   0.50000   0.12150   0.00000  Uiso   1.00
C147   C     0.29046   0.50000   0.16626   0.00000  Uiso   1.00
C148   C     0.04287   0.50000   0.16708   0.00000  Uiso   1.00
C149   C     0.14057   0.35811   0.13671   0.00000  Uiso   1.00
C150   C     0.19277   0.64189   0.19663   0.00000  Uiso   1.00
C151   C     0.19277   0.35811   0.19663   0.00000  Uiso   1.00
C152   C     0.14057   0.64189   0.13671   0.00000  Uiso   1.00
C153   C     0.04456   0.50000   0.26093   0.00000  Uiso   1.00
C154   C     0.28877   0.50000   0.07240   0.00000  Uiso   1.00
C155   C     0.28597   0.50000   0.25906   0.00000  Uiso   1.00
C156   C     0.24578   0.50000   0.16643   0.00000  Uiso   1.00
C157   C     0.04736   0.50000   0.07427   0.00000  Uiso   1.00
C158   C     0.16643   0.50000   0.07355   0.00000  Uiso   1.00
C159   C     0.16691   0.50000   0.25979   0.00000  Uiso   1.00
C160   C     0.16658   0.50000   0.02185   0.00000  Uiso   1.00
C161   C     0.16676   0.50000   0.31149   0.00000  Uiso   1.00
C162   C     0.02144   0.50000   0.21234   0.00000  Uiso   1.00
C163   C     0.31190   0.50000   0.12099   0.00000  Uiso   1.00
C164   C     0.31124   0.50000   0.21183   0.00000  Uiso   1.00
Cu165  Cu    0.16667   0.54689   0.16667   0.00000  Uiso   1.00
Cu166  Cu    0.16667   0.45311   0.16667   0.00000  Uiso   1.00
H167   H     0.11964   0.37675   0.11268   0.00000  Uiso   1.00
H168   H     0.29698   0.46825   0.05109   0.00000  Uiso   1.00
H169   H     0.26602   0.46842   0.26025   0.00000  Uiso   1.00
H170   H     0.30453   0.49999   0.29312   0.00000  Uiso   1.00
H171   H     0.26602   0.53157   0.26026   0.00000  Uiso   1.00
H172   H     0.06731   0.53158   0.07308   0.00000  Uiso   1.00
H173   H     0.06731   0.46843   0.07308   0.00000  Uiso   1.00
H174   H     0.02880   0.50001   0.04021   0.00000  Uiso   1.00
H175   H     0.21369   0.62325   0.22066   0.00000  Uiso   1.00
H176   H     0.21369   0.37675   0.22066   0.00000  Uiso   1.00
H177   H     0.11964   0.62325   0.11268   0.00000  Uiso   1.00
H178   H     0.07861   0.50000   0.25721   0.00000  Uiso   1.00
H179   H     0.03635   0.53175   0.28224   0.00000  Uiso   1.00
H180   H     0.03635   0.46824   0.28224   0.00000  Uiso   1.00
H181   H     0.25472   0.50000   0.07612   0.00000  Uiso   1.00
H182   H     0.29698   0.53176   0.05109   0.00000  Uiso   1.00
N183   N     0.16667   0.61736   0.16667   0.00000  Uiso   1.00
N184   N     0.16667   0.38264   0.16667   0.00000  Uiso   1.00
O185   O     0.10655   0.53958   0.16666   0.00000  Uiso   1.00
O186   O     0.22679   0.46042   0.16667   0.00000  Uiso   1.00
O187   O     0.22679   0.53958   0.16667   0.00000  Uiso   1.00
O188   O     0.10655   0.46042   0.16666   0.00000  Uiso   1.00
O189   O     0.16667   0.53959   0.09613   0.00000  Uiso   1.00
O190   O     0.16667   0.46041   0.23720   0.00000  Uiso   1.00
O191   O     0.16667   0.53959   0.23720   0.00000  Uiso   1.00
O192   O     0.16667   0.46041   0.09613   0.00000  Uiso   1.00
C193   C     0.42089   0.50000   0.16690   0.00000  Uiso   1.00
C194   C     0.35543   0.50000   0.12150   0.00000  Uiso   1.00
C195   C     0.62379   0.50000   0.16626   0.00000  Uiso   1.00
C196   C     0.37621   0.50000   0.16708   0.00000  Uiso   1.00
C197   C     0.47390   0.35811   0.13671   0.00000  Uiso   1.00
C198   C     0.52610   0.64189   0.19663   0.00000  Uiso   1.00
C199   C     0.52610   0.35811   0.19663   0.00000  Uiso   1.00
C200   C     0.47390   0.64189   0.13671   0.00000  Uiso   1.00
C201   C     0.37789   0.50000   0.26093   0.00000  Uiso   1.00
C202   C     0.62211   0.50000   0.07240   0.00000  Uiso   1.00
C203   C     0.61931   0.50000   0.25906   0.00000  Uiso   1.00
C204   C     0.57911   0.50000   0.16643   0.00000  Uiso   1.00
C205   C     0.38069   0.50000   0.07427   0.00000  Uiso   1.00
C206   C     0.49976   0.50000   0.07355   0.00000  Uiso   1.00
C207   C     0.50024   0.50000   0.25979   0.00000  Uiso   1.00
C208   C     0.49991   0.50000   0.02185   0.00000  Uiso   1.00
C209   C     0.50009   0.50000   0.31149   0.00000  Uiso   1.00
C210   C     0.35477   0.50000   0.21234   0.00000  Uiso   1.00
C211   C     0.64523   0.50000   0.12099   0.00000  Uiso   1.00
C212   C     0.64457   0.50000   0.21183   0.00000  Uiso   1.00
Cu213  Cu    0.50000   0.54689   0.16667   0.00000  Uiso   1.00
Cu214  Cu    0.50000   0.45311   0.16667   0.00000  Uiso   1.00
H215   H     0.45298   0.37675   0.11268   0.00000  Uiso   1.00
H216   H     0.63032   0.46825   0.05109   0.00000  Uiso   1.00
H217   H     0.59936   0.46842   0.26025   0.00000  Uiso   1.00
H218   H     0.63786   0.49999   0.29312   0.00000  Uiso   1.00
H219   H     0.59936   0.53157   0.26026   0.00000  Uiso   1.00
H220   H     0.40064   0.53158   0.07308   0.00000  Uiso   1.00
H221   H     0.40064   0.46843   0.07308   0.00000  Uiso   1.00
H222   H     0.36214   0.50001   0.04021   0.00000  Uiso   1.00
H223   H     0.54702   0.62325   0.22066   0.00000  Uiso   1.00
H224   H     0.54702   0.37675   0.22066   0.00000  Uiso   1.00
H225   H     0.45298   0.62325   0.11268   0.00000  Uiso   1.00
H226   H     0.41194   0.50000   0.25721   0.00000  Uiso   1.00
H227   H     0.36968   0.53175   0.28224   0.00000  Uiso   1.00
H228   H     0.36968   0.46824   0.28224   0.00000  Uiso   1.00
H229   H     0.58806   0.50000   0.07612   0.00000  Uiso   1.00
H230   H     0.63032   0.53176   0.05109   0.00000  Uiso   1.00
N231   N     0.50000   0.61736   0.16667   0.00000  Uiso   1.00
N232   N     0.50000   0.38264   0.16667   0.00000  Uiso   1.00
O233   O     0.43988   0.53958   0.16666   0.00000  Uiso   1.00
O234   O     0.56012   0.46042   0.16667   0.00000  Uiso   1.00
O235   O     0.56012   0.53958   0.16667   0.00000  Uiso   1.00
O236   O     0.43988   0.46042   0.16666   0.00000  Uiso   1.00
O237   O     0.50000   0.53959   0.09613   0.00000  Uiso   1.00
O238   O     0.50000   0.46041   0.23720   0.00000  Uiso   1.00
O239   O     0.50000   0.53959   0.23720   0.00000  Uiso   1.00
O240   O     0.50000   0.46041   0.09613   0.00000  Uiso   1.00
C241   C     0.75422   0.50000   0.16690   0.00000  Uiso   1.00
C242   C     0.68876   0.50000   0.12150   0.00000  Uiso   1.00
C243   C     0.95713   0.50000   0.16626   0.00000  Uiso   1.00
C244   C     0.70954   0.50000   0.16708   0.00000  Uiso   1.00
C245   C     0.80724   0.35811   0.13671   0.00000  Uiso   1.00
C246   C     0.85943   0.64189   0.19663   0.00000  Uiso   1.00
C247   C     0.85943   0.35811   0.19663   0.00000  Uiso   1.00
C248   C     0.80724   0.64189   0.13671   0.00000  Uiso   1.00
C249   C     0.71123   0.50000   0.26093   0.00000  Uiso   1.00
C250   C     0.95544   0.50000   0.07240   0.00000  Uiso   1.00
C251   C     0.95264   0.50000   0.25906   0.00000  Uiso   1.00
C252   C     0.91244   0.50000   0.16643   0.00000  Uiso   1.00
C253   C     0.71403   0.50000   0.07427   0.00000  Uiso   1.00
C254   C     0.83310   0.50000   0.07355   0.00000  Uiso   1.00
C255   C     0.83357   0.50000   0.25979   0.00000  Uiso   1.00
C256   C     0.83324   0.50000   0.02185   0.00000  Uiso   1.00
C257   C     0.83342   0.50000   0.31149   0.00000  Uiso   1.00
C258   C     0.68811   0.50000   0.21234   0.00000  Uiso   1.00
C259   C     0.97856   0.50000   0.12099   0.00000  Uiso   1.00
C260   C     0.97791   0.50000   0.21183   0.00000  Uiso   1.00
Cu261  Cu    0.83333   0.54689   0.16667   0.00000  Uiso   1.00
Cu262  Cu    0.83333   0.45311   0.16667   0.00000  Uiso   1.00
H263   H     0.78631   0.37675   0.11268   0.00000  Uiso   1.00
H264   H     0.96365   0.46825   0.05109   0.00000  Uiso   1.00
H265   H     0.93269   0.46842   0.26025   0.00000  Uiso   1.00
H266   H     0.97120   0.49999   0.29312   0.00000  Uiso   1.00
H267   H     0.93269   0.53157   0.26026   0.00000  Uiso   1.00
H268   H     0.73398   0.53158   0.07308   0.00000  Uiso   1.00
H269   H     0.73398   0.46843   0.07308   0.00000  Uiso   1.00
H270   H     0.69547   0.50001   0.04021   0.00000  Uiso   1.00
H271   H     0.88036   0.62325   0.22066   0.00000  Uiso   1.00
H272   H     0.88036   0.37675   0.22066   0.00000  Uiso   1.00
H273   H     0.78631   0.62325   0.11268   0.00000  Uiso   1.00
H274   H     0.74528   0.50000   0.25721   0.00000  Uiso   1.00
H275   H     0.70302   0.53175   0.28224   0.00000  Uiso   1.00
H276   H     0.70302   0.46824   0.28224   0.00000  Uiso   1.00
H277   H     0.92139   0.50000   0.07612   0.00000  Uiso   1.00
H278   H     0.96365   0.53176   0.05109   0.00000  Uiso   1.00
N279   N     0.83333   0.61736   0.16667   0.00000  Uiso   1.00
N280   N     0.83333   0.38264   0.16667   0.00000  Uiso   1.00
O281   O     0.77321   0.53958   0.16666   0.00000  Uiso   1.00
O282   O     0.89345   0.46042   0.16667   0.00000  Uiso   1.00
O283   O     0.89345   0.53958   0.16667   0.00000  Uiso   1.00
O284   O     0.77321   0.46042   0.16666   0.00000  Uiso   1.00
O285   O     0.83333   0.53959   0.09613   0.00000  Uiso   1.00
O286   O     0.83333   0.46041   0.23720   0.00000  Uiso   1.00
O287   O     0.83333   0.53959   0.23720   0.00000  Uiso   1.00
O288   O     0.83333   0.46041   0.09613   0.00000  Uiso   1.00
C289   C     0.08756   0.83333   0.16690   0.00000  Uiso   1.00
C290   C     0.02209   0.83334   0.12150   0.00000  Uiso   1.00
C291   C     0.29046   0.83333   0.16626   0.00000  Uiso   1.00
C292   C     0.04287   0.83333   0.16708   0.00000  Uiso   1.00
C293   C     0.14057   0.69145   0.13671   0.00000  Uiso   1.00
C294   C     0.19277   0.97522   0.19663   0.00000  Uiso   1.00
C295   C     0.19277   0.69145   0.19663   0.00000  Uiso   1.00
C296   C     0.14057   0.97522   0.13671   0.00000  Uiso   1.00
C297   C     0.04456   0.83333   0.26093   0.00000  Uiso   1.00
C298   C     0.28877   0.83334   0.07240   0.00000  Uiso   1.00
C299   C     0.28597   0.83333   0.25906   0.00000  Uiso   1.00
C300   C     0.24578   0.83333   0.16643   0.00000  Uiso   1.00
C301   C     0.04736   0.83334   0.07427   0.00000  Uiso   1.00
C302   C     0.16643   0.83333   0.07355   0.00000  Uiso   1.00
C303   C     0.16691   0.83333   0.25979   0.00000  Uiso   1.00
C304   C     0.16658   0.83333   0.02185   0.00000  Uiso   1.00
C305   C     0.16676   0.83333   0.31149   0.00000  Uiso   1.00
C306   C     0.02144   0.83333   0.21234   0.00000  Uiso   1.00
C307   C     0.31190   0.83334   0.12099   0.00000  Uiso   1.00
C308   C     0.31124   0.83333   0.21183   0.00000  Uiso   1.00
Cu309  Cu    0.16667   0.88022   0.16667   0.00000  Uiso   1.00
Cu310  Cu    0.16667   0.78645   0.16667   0.00000  Uiso   1.00
H311   H     0.11964   0.71008   0.11268   0.00000  Uiso   1.00
H312   H     0.29698   0.80158   0.05109   0.00000  Uiso   1.00
H313   H     0.26602   0.80176   0.26025   0.00000  Uiso   1.00
H314   H     0.30453   0.83333   0.29312   0.00000  Uiso   1.00
H315   H     0.26602   0.86490   0.26026   0.00000  Uiso   1.00
H316   H     0.06731   0.86491   0.07308   0.00000  Uiso   1.00
H317   H     0.06731   0.80177   0.07308   0.00000  Uiso   1.00
H318   H     0.02880   0.83334   0.04021   0.00000  Uiso   1.00
H319   H     0.21369   0.95659   0.22066   0.00000  Uiso   1.00
H320   H     0.21369   0.71008   0.22066   0.00000  Uiso   1.00
H321   H     0.11964   0.95659   0.11268   0.00000  Uiso   1.00
H322   H     0.07861   0.83333   0.25721   0.00000  Uiso   1.00
H323   H     0.03635   0.86509   0.28224   0.00000  Uiso   1.00
H324   H     0.03635   0.80157   0.28224   0.00000  Uiso   1.00
H325   H     0.25472   0.83333   0.07612   0.00000  Uiso   1.00
H326   H     0.29698   0.86510   0.05109   0.00000  Uiso   1.00
N327   N     0.16667   0.95069   0.16667   0.00000  Uiso   1.00
N328   N     0.16667   0.71598   0.16667   0.00000  Uiso   1.00
O329   O     0.10655   0.87291   0.16666   0.00000  Uiso   1.00
O330   O     0.22679   0.79375   0.16667   0.00000  Uiso   1.00
O331   O     0.22679   0.87291   0.16667   0.00000  Uiso   1.00
O332   O     0.10655   0.79375   0.16666   0.00000  Uiso   1.00
O333   O     0.16667   0.87292   0.09613   0.00000  Uiso   1.00
O334   O     0.16667   0.79375   0.23720   0.00000  Uiso   1.00
O335   O     0.16667   0.87292   0.23720   0.00000  Uiso   1.00
O336   O     0.16667   0.79375   0.09613   0.00000  Uiso   1.00
C337   C     0.42089   0.83333   0.16690   0.00000  Uiso   1.00
C338   C     0.35543   0.83334   0.12150   0.00000  Uiso   1.00
C339   C     0.62379   0.83333   0.16626   0.00000  Uiso   1.00
C340   C     0.37621   0.83333   0.16708   0.00000  Uiso   1.00
C341   C     0.47390   0.69145   0.13671   0.00000  Uiso   1.00
C342   C     0.52610   0.97522   0.19663   0.00000  Uiso   1.00
C343   C     0.52610   0.69145   0.19663   0.00000  Uiso   1.00
C344   C     0.47390   0.97522   0.13671   0.00000  Uiso   1.00
C345   C     0.37789   0.83333   0.26093   0.00000  Uiso   1.00
C346   C     0.62211   0.83334   0.07240   0.00000  Uiso   1.00
C347   C     0.61931   0.83333   0.25906   0.00000  Uiso   1.00
C348   C     0.57911   0.83333   0.16643   0.00000  Uiso   1.00
C349   C     0.38069   0.83334   0.07427   0.00000  Uiso   1.00
C350   C     0.49976   0.83333   0.07355   0.00000  Uiso   1.00
C351   C     0.50024   0.83333   0.25979   0.00000  Uiso   1.00
C352   C     0.49991   0.83333   0.02185   0.00000  Uiso   1.00
C353   C     0.50009   0.83333   0.31149   0.00000  Uiso   1.00
C354   C     0.35477   0.83333   0.21234   0.00000  Uiso   1.00
C355   C     0.64523   0.83334   0.12099   0.00000  Uiso   1.00
C356   C     0.64457   0.83333   0.21183   0.00000  Uiso   1.00
Cu357  Cu    0.50000   0.88022   0.16667   0.00000  Uiso   1.00
Cu358  Cu    0.50000   0.78645   0.16667   0.00000  Uiso   1.00
H359   H     0.45298   0.71008   0.11268   0.00000  Uiso   1.00
H360   H     0.63032   0.80158   0.05109   0.00000  Uiso   1.00
H361   H     0.59936   0.80176   0.26025   0.00000  Uiso   1.00
H362   H     0.63786   0.83333   0.29312   0.00000  Uiso   1.00
H363   H     0.59936   0.86490   0.26026   0.00000  Uiso   1.00
H364   H     0.40064   0.86491   0.07308   0.00000  Uiso   1.00
H365   H     0.40064   0.80177   0.07308   0.00000  Uiso   1.00
H366   H     0.36214   0.83334   0.04021   0.00000  Uiso   1.00
H367   H     0.54702   0.95659   0.22066   0.00000  Uiso   1.00
H368   H     0.54702   0.71008   0.22066   0.00000  Uiso   1.00
H369   H     0.45298   0.95659   0.11268   0.00000  Uiso   1.00
H370   H     0.41194   0.83333   0.25721   0.00000  Uiso   1.00
H371   H     0.36968   0.86509   0.28224   0.00000  Uiso   1.00
H372   H     0.36968   0.80157   0.28224   0.00000  Uiso   1.00
H373   H     0.58806   0.83333   0.07612   0.00000  Uiso   1.00
H374   H     0.63032   0.86510   0.05109   0.00000  Uiso   1.00
N375   N     0.50000   0.95069   0.16667   0.00000  Uiso   1.00
N376   N     0.50000   0.71598   0.16667   0.00000  Uiso   1.00
O377   O     0.43988   0.87291   0.16666   0.00000  Uiso   1.00
O378   O     0.56012   0.79375   0.16667   0.00000  Uiso   1.00
O379   O     0.56012   0.87291   0.16667   0.00000  Uiso   1.00
O380   O     0.43988   0.79375   0.16666   0.00000  Uiso   1.00
O381   O     0.50000   0.87292   0.09613   0.00000  Uiso   1.00
O382   O     0.50000   0.79375   0.23720   0.00000  Uiso   1.00
O383   O     0.50000   0.87292   0.23720   0.00000  Uiso   1.00
O384   O     0.50000   0.79375   0.09613   0.00000  Uiso   1.00
C385   C     0.75422   0.83333   0.16690   0.00000  Uiso   1.00
C386   C     0.68876   0.83334   0.12150   0.00000  Uiso   1.00
C387   C     0.95713   0.83333   0.16626   0.00000  Uiso   1.00
C388   C     0.70954   0.83333   0.16708   0.00000  Uiso   1.00
C389   C     0.80724   0.69145   0.13671   0.00000  Uiso   1.00
C390   C     0.85943   0.97522   0.19663   0.00000  Uiso   1.00
C391   C     0.85943   0.69145   0.19663   0.00000  Uiso   1.00
C392   C     0.80724   0.97522   0.13671   0.00000  Uiso   1.00
C393   C     0.71123   0.83333   0.26093   0.00000  Uiso   1.00
C394   C     0.95544   0.83334   0.07240   0.00000  Uiso   1.00
C395   C     0.95264   0.83333   0.25906   0.00000  Uiso   1.00
C396   C     0.91244   0.83333   0.16643   0.00000  Uiso   1.00
C397   C     0.71403   0.83334   0.07427   0.00000  Uiso   1.00
C398   C     0.83310   0.83333   0.07355   0.00000  Uiso   1.00
C399   C     0.83357   0.83333   0.25979   0.00000  Uiso   1.00
C400   C     0.83324   0.83333   0.02185   0.00000  Uiso   1.00
C401   C     0.83342   0.83333   0.31149   0.00000  Uiso   1.00
C402   C     0.68811   0.83333   0.21234   0.00000  Uiso   1.00
C403   C     0.97856   0.83334   0.12099   0.00000  Uiso   1.00
C404   C     0.97791   0.83333   0.21183   0.00000  Uiso   1.00
Cu405  Cu    0.83333   0.88022   0.16667   0.00000  Uiso   1.00
Cu406  Cu    0.83333   0.78645   0.16667   0.00000  Uiso   1.00
H407   H     0.78631   0.71008   0.11268   0.00000  Uiso   1.00
H408   H     0.96365   0.80158   0.05109   0.00000  Uiso   1.00
H409   H     0.93269   0.80176   0.26025   0.00000  Uiso   1.00
H410   H     0.97120   0.83333   0.29312   0.00000  Uiso   1.00
H411   H     0.93269   0.86490   0.26026   0.00000  Uiso   1.00
H412   H     0.73398   0.86491   0.07308   0.00000  Uiso   1.00
H413   H     0.73398   0.80177   0.07308   0.00000  Uiso   1.00
H414   H     0.69547   0.83334   0.04021   0.00000  Uiso   1.00
H415   H     0.88036   0.95659   0.22066   0.00000  Uiso   1.00
H416   H     0.88036   0.71008   0.22066   0.00000  Uiso   1.00
H417   H     0.78631   0.95659   0.11268   0.00000  Uiso   1.00
H418   H     0.74528   0.83333   0.25721   0.00000  Uiso   1.00
H419   H     0.70302   0.86509   0.28224   0.00000  Uiso   1.00
H420   H     0.70302   0.80157   0.28224   0.00000  Uiso   1.00
H421   H     0.92139   0.83333   0.07612   0.00000  Uiso   1.00
H422   H     0.96365   0.86510   0.05109   0.00000  Uiso   1.00
N423   N     0.83333   0.95069   0.16667   0.00000  Uiso   1.00
N424   N     0.83333   0.71598   0.16667   0.00000  Uiso   1.00
O425   O     0.77321   0.87291   0.16666   0.00000  Uiso   1.00
O426   O     0.89345   0.79375   0.16667   0.00000  Uiso   1.00
O427   O     0.89345   0.87291   0.16667   0.00000  Uiso   1.00
O428   O     0.77321   0.79375   0.16666   0.00000  Uiso   1.00
O429   O     0.83333   0.87292   0.09613   0.00000  Uiso   1.00
O430   O     0.83333   0.79375   0.23720   0.00000  Uiso   1.00
O431   O     0.83333   0.87292   0.23720   0.00000  Uiso   1.00
O432   O     0.83333   0.79375   0.09613   0.00000  Uiso   1.00
C433   C     0.08756   0.16667   0.50023   0.00000  Uiso   1.00
C434   C     0.02209   0.16667   0.45484   0.00000  Uiso   1.00
C435   C     0.29046   0.16667   0.49959   0.00000  Uiso   1.00
C436   C     0.04287   0.16667   0.50041   0.00000  Uiso   1.00
C437   C     0.14057   0.02478   0.47004   0.00000  Uiso   1.00
C438   C     0.19277   0.30855   0.52996   0.00000  Uiso   1.00
C439   C     0.19277   0.02478   0.52996   0.00000  Uiso   1.00
C440   C     0.14057   0.30855   0.47004   0.00000  Uiso   1.00
C441   C     0.04456   0.16666   0.59427   0.00000  Uiso   1.00
C442   C     0.28877   0.16667   0.40573   0.00000  Uiso   1.00
C443   C     0.28597   0.16666   0.59239   0.00000  Uiso   1.00
C444   C     0.24578   0.16667   0.49977   0.00000  Uiso   1.00
C445   C     0.04736   0.16667   0.40760   0.00000  Uiso   1.00
C446   C     0.16643   0.16667   0.40688   0.00000  Uiso   1.00
C447   C     0.16691   0.16667   0.59312   0.00000  Uiso   1.00
C448   C     0.16658   0.16667   0.35518   0.00000  Uiso   1.00
C449   C     0.16676   0.16667   0.64482   0.00000  Uiso   1.00
C450   C     0.02144   0.16666   0.54567   0.00000  Uiso   1.00
C451   C     0.31190   0.16667   0.45433   0.00000  Uiso   1.00
C452   C     0.31124   0.16666   0.54516   0.00000  Uiso   1.00
Cu453  Cu    0.16667   0.21355   0.50000   0.00000  Uiso   1.00
Cu454  Cu    0.16667   0.11978   0.50000   0.00000  Uiso   1.00
H455   H     0.11964   0.04341   0.44601   0.00000  Uiso   1.00
H456   H     0.29698   0.13491   0.38442   0.00000  Uiso   1.00
H457   H     0.26602   0.13509   0.59359   0.00000  Uiso   1.00
H458   H     0.30453   0.16666   0.62645   0.00000  Uiso   1.00
H459   H     0.26602   0.19823   0.59359   0.00000  Uiso   1.00
H460   H     0.06731   0.19824   0.40641   0.00000  Uiso   1.00
H461   H     0.06731   0.13510   0.40641   0.00000  Uiso   1.00
H462   H     0.02880   0.16667   0.37355   0.00000  Uiso   1.00
H463   H     0.21369   0.28992   0.55399   0.00000  Uiso   1.00
H464   H     0.21369   0.04341   0.55399   0.00000  Uiso   1.00
H465   H     0.11964   0.28992   0.44601   0.00000  Uiso   1.00
H466   H     0.07861   0.16666   0.59055   0.00000  Uiso   1.00
H467   H     0.03635   0.19842   0.61558   0.00000  Uiso   1.00
H468   H     0.03635   0.13490   0.61557   0.00000  Uiso   1.00
H469   H     0.25472   0.16667   0.40945   0.00000  Uiso   1.00
H470   H     0.29698   0.19843   0.38443   0.00000  Uiso   1.00
N471   N     0.16667   0.28402   0.50000   0.00000  Uiso   1.00
N472   N     0.16667   0.04931   0.50000   0.00000  Uiso   1.00
O473   O     0.10655   0.20625   0.50000   0.00000  Uiso   1.00
O474   O     0.22679   0.12709   0.50000   0.00000  Uiso   1.00
O475   O     0.22679   0.20625   0.50000   0.00000  Uiso   1.00
O476   O     0.10655   0.12709   0.50000   0.00000  Uiso   1.00
O477   O     0.16667   0.20625   0.42946   0.00000  Uiso   1.00
O478   O     0.16667   0.12708   0.57054   0.00000  Uiso   1.00
O479   O     0.16667   0.20625   0.57054   0.00000  Uiso   1.00
O480   O     0.16667   0.12708   0.42946   0.00000  Uiso   1.00
C481   C     0.42089   0.16667   0.50023   0.00000  Uiso   1.00
C482   C     0.35543   0.16667   0.45484   0.00000  Uiso   1.00
C483   C     0.62379   0.16667   0.49959   0.00000  Uiso   1.00
C484   C     0.37621   0.16667   0.50041   0.00000  Uiso   1.00
C485   C     0.47390   0.02478   0.47004   0.00000  Uiso   1.00
C486   C     0.52610   0.30855   0.52996   0.00000  Uiso   1.00
C487   C     0.52610   0.02478   0.52996   0.00000  Uiso   1.00
C488   C     0.47390   0.30855   0.47004   0.00000  Uiso   1.00
C489   C     0.37789   0.16666   0.59427   0.00000  Uiso   1.00
C490   C     0.62211   0.16667   0.40573   0.00000  Uiso   1.00
C491   C     0.61931   0.16666   0.59239   0.00000  Uiso   1.00
C492   C     0.57911   0.16667   0.49977   0.00000  Uiso   1.00
C493   C     0.38069   0.16667   0.40760   0.00000  Uiso   1.00
C494   C     0.49976   0.16667   0.40688   0.00000  Uiso   1.00
C495   C     0.50024   0.16667   0.59312   0.00000  Uiso   1.00
C496   C     0.49991   0.16667   0.35518   0.00000  Uiso   1.00
C497   C     0.50009   0.16667   0.64482   0.00000  Uiso   1.00
C498   C     0.35477   0.16666   0.54567   0.00000  Uiso   1.00
C499   C     0.64523   0.16667   0.45433   0.00000  Uiso   1.00
C500   C     0.64457   0.16666   0.54516   0.00000  Uiso   1.00
Cu501  Cu    0.50000   0.21355   0.50000   0.00000  Uiso   1.00
Cu502  Cu    0.50000   0.11978   0.50000   0.00000  Uiso   1.00
H503   H     0.45298   0.04341   0.44601   0.00000  Uiso   1.00
H504   H     0.63032   0.13491   0.38442   0.00000  Uiso   1.00
H505   H     0.59936   0.13509   0.59359   0.00000  Uiso   1.00
H506   H     0.63786   0.16666   0.62645   0.00000  Uiso   1.00
H507   H     0.59936   0.19823   0.59359   0.00000  Uiso   1.00
H508   H     0.40064   0.19824   0.40641   0.00000  Uiso   1.00
H509   H     0.40064   0.13510   0.40641   0.00000  Uiso   1.00
H510   H     0.36214   0.16667   0.37355   0.00000  Uiso   1.00
H511   H     0.54702   0.28992   0.55399   0.00000  Uiso   1.00
H512   H     0.54702   0.04341   0.55399   0.00000  Uiso   1.00
H513   H     0.45298   0.28992   0.44601   0.00000  Uiso   1.00
H514   H     0.41194   0.16666   0.59055   0.00000  Uiso   1.00
H515   H     0.36968   0.19842   0.61558   0.00000  Uiso   1.00
H516   H     0.36968   0.13490   0.61557   0.00000  Uiso   1.00
H517   H     0.58806   0.16667   0.40945   0.00000  Uiso   1.00
H518   H     0.63032   0.19843   0.38443   0.00000  Uiso   1.00
N519   N     0.50000   0.28402   0.50000   0.00000  Uiso   1.00
N520   N     0.50000   0.04931   0.50000   0.00000  Uiso   1.00
O521   O     0.43988   0.20625   0.50000   0.00000  Uiso   1.00
O522   O     0.56012   0.12709   0.50000   0.00000  Uiso   1.00
O523   O     0.56012   0.20625   0.50000   0.00000  Uiso   1.00
O524   O     0.43988   0.12709   0.50000   0.00000  Uiso   1.00
O525   O     0.50000   0.20625   0.42946   0.00000  Uiso   1.00
O526   O     0.50000   0.12708   0.57054   0.00000  Uiso   1.00
O527   O     0.50000   0.20625   0.57054   0.00000  Uiso   1.00
O528   O     0.50000   0.12708   0.42946   0.00000  Uiso   1.00
C529   C     0.75422   0.16667   0.50023   0.00000  Uiso   1.00
C530   C     0.68876   0.16667   0.45484   0.00000  Uiso   1.00
C531   C     0.95713   0.16667   0.49959   0.00000  Uiso   1.00
C532   C     0.70954   0.16667   0.50041   0.00000  Uiso   1.00
C533   C     0.80724   0.02478   0.47004   0.00000  Uiso   1.00
C534   C     0.85943   0.30855   0.52996   0.00000  Uiso   1.00
C535   C     0.85943   0.02478   0.52996   0.00000  Uiso   1.00
C536   C     0.80724   0.30855   0.47004   0.00000  Uiso   1.00
C537   C     0.71123   0.16666   0.59427   0.00000  Uiso   1.00
C538   C     0.95544   0.16667   0.40573   0.00000  Uiso   1.00
C539   C     0.95264   0.16666   0.59239   0.00000  Uiso   1.00
C540   C     0.91244   0.16667   0.49977   0.00000  Uiso   1.00
C541   C     0.71403   0.16667   0.40760   0.00000  Uiso   1.00
C542   C     0.83310   0.16667   0.40688   0.00000  Uiso   1.00
C543   C     0.83357   0.16667   0.59312   0.00000  Uiso   1.00
C544   C     0.83324   0.16667   0.35518   0.00000  Uiso   1.00
C545   C     0.83342   0.16667   0.64482   0.00000  Uiso   1.00
C546   C     0.68811   0.16666   0.54567   0.00000  Uiso   1.00
C547   C     0.97856   0.16667   0.45433   0.00000  Uiso   1.00
C548   C     0.97791   0.16666   0.54516   0.00000  Uiso   1.00
Cu549  Cu    0.83333   0.21355   0.50000   0.00000  Uiso   1.00
Cu550  Cu    0.83333   0.11978   0.50000   0.00000  Uiso   1.00
H551   H     0.78631   0.04341   0.44601   0.00000  Uiso   1.00
H552   H     0.96365   0.13491   0.38442   0.00000  Uiso   1.00
H553   H     0.93269   0.13509   0.59359   0.00000  Uiso   1.00
H554   H     0.97120   0.16666   0.62645   0.00000  Uiso   1.00
H555   H     0.93269   0.19823   0.59359   0.00000  Uiso   1.00
H556   H     0.73398   0.19824   0.40641   0.00000  Uiso   1.00
H557   H     0.73398   0.13510   0.40641   0.00000  Uiso   1.00
H558   H     0.69547   0.16667   0.37355   0.00000  Uiso   1.00
H559   H     0.88036   0.28992   0.55399   0.00000  Uiso   1.00
H560   H     0.88036   0.04341   0.55399   0.00000  Uiso   1.00
H561   H     0.78631   0.28992   0.44601   0.00000  Uiso   1.00
H562   H     0.74528   0.16666   0.59055   0.00000  Uiso   1.00
H563   H     0.70302   0.19842   0.61558   0.00000  Uiso   1.00
H564   H     0.70302   0.13490   0.61557   0.00000  Uiso   1.00
H565   H     0.92139   0.16667   0.40945   0.00000  Uiso   1.00
H566   H     0.96365   0.19843   0.38443   0.00000  Uiso   1.00
N567   N     0.83333   0.28402   0.50000   0.00000  Uiso   1.00
N568   N     0.83333   0.04931   0.50000   0.00000  Uiso   1.00
O569   O     0.77321   0.20625   0.50000   0.00000  Uiso   1.00
O570   O     0.89345   0.12709   0.50000   0.00000  Uiso   1.00
O571   O     0.89345   0.20625   0.50000   0.00000  Uiso   1.00
O572   O     0.77321   0.12709   0.50000   0.00000  Uiso   1.00
O573   O     0.83333   0.20625   0.42946   0.00000  Uiso   1.00
O574   O     0.83333   0.12708   0.57054   0.00000  Uiso   1.00
O575   O     0.83333   0.20625   0.57054   0.00000  Uiso   1.00
O576   O     0.83333   0.12708   0.42946   0.00000  Uiso   1.00
C577   C     0.08756   0.50000   0.50023   0.00000  Uiso   1.00
C578   C     0.02209   0.50000   0.45484   0.00000  Uiso   1.00
C579   C     0.29046   0.50000   0.49959   0.00000  Uiso   1.00
C580   C     0.04287   0.50000   0.50041   0.00000  Uiso   1.00
C581   C     0.14057   0.35811   0.47004   0.00000  Uiso   1.00
C582   C     0.19277   0.64189   0.52996   0.00000  Uiso   1.00
C583   C     0.19277   0.35811   0.52996   0.00000  Uiso   1.00
C584   C     0.14057   0.64189   0.47004   0.00000  Uiso   1.00
C585   C     0.04456   0.50000   0.59427   0.00000  Uiso   1.00
C586   C     0.28877   0.50000   0.40573   0.00000  Uiso   1.00
C587   C     0.28597   0.50000   0.59239   0.00000  Uiso   1.00
C588   C     0.24578   0.50000   0.49977   0.00000  Uiso   1.00
C589   C     0.04736   0.50000   0.40760   0.00000  Uiso   1.00
C590   C     0.16643   0.50000   0.40688   0.00000  Uiso   1.00
C591   C     0.16691   0.50000   0.59312   0.00000  Uiso   1.00
C592   C     0.16658   0.50000   0.35518   0.00000  Uiso   1.00
C593   C     0.16676   0.50000   0.64482   0.00000  Uiso   1.00
C594   C     0.02144   0.50000   0.54567   0.00000  Uiso   1.00
C595   C     0.31190   0.50000   0.45433   0.00000  Uiso   1.00
C596   C     0.31124   0.50000   0.54516   0.00000  Uiso   1.00
Cu597  Cu    0.16667   0.54689   0.50000   0.00000  Uiso   1.00
Cu598  Cu    0.16667   0.45311   0.50000   0.00000  Uiso   1.00
H599   H     0.11964   0.37675   0.44601   0.00000  Uiso   1.00
H600   H     0.29698   0.46825   0.38442   0.00000  Uiso   1.00
H601   H     0.26602   0.46842   0.59359   0.00000  Uiso   1.00
H602   H     0.30453   0.49999   0.62645   0.00000  Uiso   1.00
H603   H     0.26602   0.53157   0.59359   0.00000  Uiso   1.00
H604   H     0.06731   0.53158   0.40641   0.00000  Uiso   1.00
H605   H     0.06731   0.46843   0.40641   0.00000  Uiso   1.00
H606   H     0.02880   0.50001   0.37355   0.00000  Uiso   1.00
H607   H     0.21369   0.62325   0.55399   0.00000  Uiso   1.00
H608   H     0.21369   0.37675   0.55399   0.00000  Uiso   1.00
H609   H     0.11964   0.62325   0.44601   0.00000  Uiso   1.00
H610   H     0.07861   0.50000   0.59055   0.00000  Uiso   1.00
H611   H     0.03635   0.53175   0.61558   0.00000  Uiso   1.00
H612   H     0.03635   0.46824   0.61557   0.00000  Uiso   1.00
H613   H     0.25472   0.50000   0.40945   0.00000  Uiso   1.00
H614   H     0.29698   0.53176   0.38443   0.00000  Uiso   1.00
N615   N     0.16667   0.61736   0.50000   0.00000  Uiso   1.00
N616   N     0.16667   0.38264   0.50000   0.00000  Uiso   1.00
O617   O     0.10655   0.53958   0.50000   0.00000  Uiso   1.00
O618   O     0.22679   0.46042   0.50000   0.00000  Uiso   1.00
O619   O     0.22679   0.53958   0.50000   0.00000  Uiso   1.00
O620   O     0.10655   0.46042   0.50000   0.00000  Uiso   1.00
O621   O     0.16667   0.53959   0.42946   0.00000  Uiso   1.00
O622   O     0.16667   0.46041   0.57054   0.00000  Uiso   1.00
O623   O     0.16667   0.53959   0.57054   0.00000  Uiso   1.00
O624   O     0.16667   0.46041   0.42946   0.00000  Uiso   1.00
C625   C     0.42089   0.50000   0.50023   0.00000  Uiso   1.00
C626   C     0.35543   0.50000   0.45484   0.00000  Uiso   1.00
C627   C     0.62379   0.50000   0.49959   0.00000  Uiso   1.00
C628   C     0.37621   0.50000   0.50041   0.00000  Uiso   1.00
C629   C     0.47390   0.35811   0.47004   0.00000  Uiso   1.00
C630   C     0.52610   0.64189   0.52996   0.00000  Uiso   1.00
C631   C     0.52610   0.35811   0.52996   0.00000  Uiso   1.00
C632   C     0.47390   0.64189   0.47004   0.00000  Uiso   1.00
C633   C     0.37789   0.50000   0.59427   0.00000  Uiso   1.00
C634   C     0.62211   0.50000   0.40573   0.00000  Uiso   1.00
C635   C     0.61931   0.50000   0.59239   0.00000  Uiso   1.00
C636   C     0.57911   0.50000   0.49977   0.00000  Uiso   1.00
C637   C     0.38069   0.50000   0.40760   0.00000  Uiso   1.00
C638   C     0.49976   0.50000   0.40688   0.00000  Uiso   1.00
C639   C     0.50024   0.50000   0.59312   0.00000  Uiso   1.00
C640   C     0.49991   0.50000   0.35518   0.00000  Uiso   1.00
C641   C     0.50009   0.50000   0.64482   0.00000  Uiso   1.00
C642   C     0.35477   0.50000   0.54567   0.00000  Uiso   1.00
C643   C     0.64523   0.50000   0.45433   0.00000  Uiso   1.00
C644   C     0.64457   0.50000   0.54516   0.00000  Uiso   1.00
Cu645  Cu    0.50000   0.54689   0.50000   0.00000  Uiso   1.00
Cu646  Cu    0.50000   0.45311   0.50000   0.00000  Uiso   1.00
H647   H     0.45298   0.37675   0.44601   0.00000  Uiso   1.00
H648   H     0.63032   0.46825   0.38442   0.00000  Uiso   1.00
H649   H     0.59936   0.46842   0.59359   0.00000  Uiso   1.00
H650   H     0.63786   0.49999   0.62645   0.00000  Uiso   1.00
H651   H     0.59936   0.53157   0.59359   0.00000  Uiso   1.00
H652   H     0.40064   0.53158   0.40641   0.00000  Uiso   1.00
H653   H     0.40064   0.46843   0.40641   0.00000  Uiso   1.00
H654   H     0.36214   0.50001   0.37355   0.00000  Uiso   1.00
H655   H     0.54702   0.62325   0.55399   0.00000  Uiso   1.00
H656   H     0.54702   0.37675   0.55399   0.00000  Uiso   1.00
H657   H     0.45298   0.62325   0.44601   0.00000  Uiso   1.00
H658   H     0.41194   0.50000   0.59055   0.00000  Uiso   1.00
H659   H     0.36968   0.53175   0.61558   0.00000  Uiso   1.00
H660   H     0.36968   0.46824   0.61557   0.00000  Uiso   1.00
H661   H     0.58806   0.50000   0.40945   0.00000  Uiso   1.00
H662   H     0.63032   0.53176   0.38443   0.00000  Uiso   1.00
N663   N     0.50000   0.61736   0.50000   0.00000  Uiso   1.00
N664   N     0.50000   0.38264   0.50000   0.00000  Uiso   1.00
O665   O     0.43988   0.53958   0.50000   0.00000  Uiso   1.00
O666   O     0.56012   0.46042   0.50000   0.00000  Uiso   1.00
O667   O     0.56012   0.53958   0.50000   0.00000  Uiso   1.00
O668   O     0.43988   0.46042   0.50000   0.00000  Uiso   1.00
O669   O     0.50000   0.53959   0.42946   0.00000  Uiso   1.00
O670   O     0.50000   0.46041   0.57054   0.00000  Uiso   1.00
O671   O     0.50000   0.53959   0.57054   0.00000  Uiso   1.00
O672   O     0.50000   0.46041   0.42946   0.00000  Uiso   1.00
C673   C     0.75422   0.50000   0.50023   0.00000  Uiso   1.00
C674   C     0.68876   0.50000   0.45484   0.00000  Uiso   1.00
C675   C     0.95713   0.50000   0.49959   0.00000  Uiso   1.00
C676   C     0.70954   0.50000   0.50041   0.00000  Uiso   1.00
C677   C     0.80724   0.35811   0.47004   0.00000  Uiso   1.00
C678   C     0.85943   0.64189   0.52996   0.00000  Uiso   1.00
C679   C     0.85943   0.35811   0.52996   0.00000  Uiso   1.00
C680   C     0.80724   0.64189   0.47004   0.00000  Uiso   1.00
C681   C     0.71123   0.50000   0.59427   0.00000  Uiso   1.00
C682   C     0.95544   0.50000   0.40573   0.00000  Uiso   1.00
C683   C     0.95264   0.50000   0.59239   0.00000  Uiso   1.00
C684   C     0.91244   0.50000   0.49977   0.00000  Uiso   1.00
C685   C     0.71403   0.50000   0.40760   0.00000  Uiso   1.00
C686   C     0.83310   0.50000   0.40688   0.00000  Uiso   1.00
C687   C     0.83357   0.50000   0.59312   0.00000  Uiso   1.00
C688   C     0.83324   0.50000   0.35518   0.00000  Uiso   1.00
C689   C     0.83342   0.50000   0.64482   0.00000  Uiso   1.00
C690   C     0.68811   0.50000   0.54567   0.00000  Uiso   1.00
C691   C     0.97856   0.50000   0.45433   0.00000  Uiso   1.00
C692   C     0.97791   0.50000   0.54516   0.00000  Uiso   1.00
Cu693  Cu    0.83333   0.54689   0.50000   0.00000  Uiso   1.00
Cu694  Cu    0.83333   0.45311   0.50000   0.00000  Uiso   1.00
H695   H     0.78631   0.37675   0.44601   0.00000  Uiso   1.00
H696   H     0.96365   0.46825   0.38442   0.00000  Uiso   1.00
H697   H     0.93269   0.46842   0.59359   0.00000  Uiso   1.00
H698   H     0.97120   0.49999   0.62645   0.00000  Uiso   1.00
H699   H     0.93269   0.53157   0.59359   0.00000  Uiso   1.00
H700   H     0.73398   0.53158   0.40641   0.00000  Uiso   1.00
H701   H     0.73398   0.46843   0.40641   0.00000  Uiso   1.00
H702   H     0.69547   0.50001   0.37355   0.00000  Uiso   1.00
H703   H     0.88036   0.62325   0.55399   0.00000  Uiso   1.00
H704   H     0.88036   0.37675   0.55399   0.00000  Uiso   1.00
H705   H     0.78631   0.62325   0.44601   0.00000  Uiso   1.00
H706   H     0.74528   0.50000   0.59055   0.00000  Uiso   1.00
H707   H     0.70302   0.53175   0.61558   0.00000  Uiso   1.00
H708   H     0.70302   0.46824   0.61557   0.00000  Uiso   1.00
H709   H     0.92139   0.50000   0.40945   0.00000  Uiso   1.00
H710   H     0.96365   0.53176   0.38443   0.00000  Uiso   1.00
N711   N     0.83333   0.61736   0.50000   0.00000  Uiso   1.00
N712   N     0.83333   0.38264   0.50000   0.00000  Uiso   1.00
O713   O     0.77321   0.53958   0.50000   0.00000  Uiso   1.00
O714   O     0.89345   0.46042   0.50000   0.00000  Uiso   1.00
O715   O     0.89345   0.53958   0.50000   0.00000  Uiso   1.00
O716   O     0.77321   0.46042   0.50000   0.00000  Uiso   1.00
O717   O     0.83333   0.53959   0.42946   0.00000  Uiso   1.00
O718   O     0.83333   0.46041   0.57054   0.00000  Uiso   1.00
O719   O     0.83333   0.53959   0.57054   0.00000  Uiso   1.00
O720   O     0.83333   0.46041   0.42946   0.00000  Uiso   1.00
C721   C     0.08756   0.83333   0.50023   0.00000  Uiso   1.00
C722   C     0.02209   0.83334   0.45484   0.00000  Uiso   1.00
C723   C     0.29046   0.83333   0.49959   0.00000  Uiso   1.00
C724   C     0.04287   0.83333   0.50041   0.00000  Uiso   1.00
C725   C     0.14057   0.69145   0.47004   0.00000  Uiso   1.00
C726   C     0.19277   0.97522   0.52996   0.00000  Uiso   1.00
C727   C     0.19277   0.69145   0.52996   0.00000  Uiso   1.00
C728   C     0.14057   0.97522   0.47004   0.00000  Uiso   1.00
C729   C     0.04456   0.83333   0.59427   0.00000  Uiso   1.00
C730   C     0.28877   0.83334   0.40573   0.00000  Uiso   1.00
C731   C     0.28597   0.83333   0.59239   0.00000  Uiso   1.00
C732   C     0.24578   0.83333   0.49977   0.00000  Uiso   1.00
C733   C     0.04736   0.83334   0.40760   0.00000  Uiso   1.00
C734   C     0.16643   0.83333   0.40688   0.00000  Uiso   1.00
C735   C     0.16691   0.83333   0.59312   0.00000  Uiso   1.00
C736   C     0.16658   0.83333   0.35518   0.00000  Uiso   1.00
C737   C     0.16676   0.83333   0.64482   0.00000  Uiso   1.00
C738   C     0.02144   0.83333   0.54567   0.00000  Uiso   1.00
C739   C     0.31190   0.83334   0.45433   0.00000  Uiso   1.00
C740   C     0.31124   0.83333   0.54516   0.00000  Uiso   1.00
Cu741  Cu    0.16667   0.88022   0.50000   0.00000  Uiso   1.00
Cu742  Cu    0.16667   0.78645   0.50000   0.00000  Uiso   1.00
H743   H     0.11964   0.71008   0.44601   0.00000  Uiso   1.00
H744   H     0.29698   0.80158   0.38442   0.00000  Uiso   1.00
H745   H     0.26602   0.80176   0.59359   0.00000  Uiso   1.00
H746   H     0.30453   0.83333   0.62645   0.00000  Uiso   1.00
H747   H     0.26602   0.86490   0.59359   0.00000  Uiso   1.00
H748   H     0.06731   0.86491   0.40641   0.00000  Uiso   1.00
H749   H     0.06731   0.80177   0.40641   0.00000  Uiso   1.00
H750   H     0.02880   0.83334   0.37355   0.00000  Uiso   1.00
H751   H     0.21369   0.95659   0.55399   0.00000  Uiso   1.00
H752   H     0.21369   0.71008   0.55399   0.00000  Uiso   1.00
H753   H     0.11964   0.95659   0.44601   0.00000  Uiso   1.00
H754   H     0.07861   0.83333   0.59055   0.00000  Uiso   1.00
H755   H     0.03635   0.86509   0.61558   0.00000  Uiso   1.00
H756   H     0.03635   0.80157   0.61557   0.00000  Uiso   1.00
H757   H     0.25472   0.83333   0.40945   0.00000  Uiso   1.00
H758   H     0.29698   0.86510   0.38443   0.00000  Uiso   1.00
N759   N     0.16667   0.95069   0.50000   0.00000  Uiso   1.00
N760   N     0.16667   0.71598   0.50000   0.00000  Uiso   1.00
O761   O     0.10655   0.87291   0.50000   0.00000  Uiso   1.00
O762   O     0.22679   0.79375   0.50000   0.00000  Uiso   1.00
O763   O     0.22679   0.87291   0.50000   0.00000  Uiso   1.00
O764   O     0.10655   0.79375   0.50000   0.00000  Uiso   1.00
O765   O     0.16667   0.87292   0.42946   0.00000  Uiso   1.00
O766   O     0.16667   0.79375   0.57054   0.00000  Uiso   1.00
O767   O     0.16667   0.87292   0.57054   0.00000  Uiso   1.00
O768   O     0.16667   0.79375   0.42946   0.00000  Uiso   1.00
C769   C     0.42089   0.83333   0.50023   0.00000  Uiso   1.00
C770   C     0.35543   0.83334   0.45484   0.00000  Uiso   1.00
C771   C     0.62379   0.83333   0.49959   0.00000  Uiso   1.00
C772   C     0.37621   0.83333   0.50041   0.00000  Uiso   1.00
C773   C     0.47390   0.69145   0.47004   0.00000  Uiso   1.00
C774   C     0.52610   0.97522   0.52996   0.00000  Uiso   1.00
C775   C     0.52610   0.69145   0.52996   0.00000  Uiso   1.00
C776   C     0.47390   0.97522   0.47004   0.00000  Uiso   1.00
C777   C     0.37789   0.83333   0.59427   0.00000  Uiso   1.00
C778   C     0.62211   0.83334   0.40573   0.00000  Uiso   1.00
C779   C     0.61931   0.83333   0.59239   0.00000  Uiso   1.00
C780   C     0.57911   0.83333   0.49977   0.00000  Uiso   1.00
C781   C     0.38069   0.83334   0.40760   0.00000  Uiso   1.00
C782   C     0.49976   0.83333   0.40688   0.00000  Uiso   1.00
C783   C     0.50024   0.83333   0.59312   0.00000  Uiso   1.00
C784   C     0.49991   0.83333   0.35518   0.00000  Uiso   1.00
C785   C     0.50009   0.83333   0.64482   0.00000  Uiso   1.00
C786   C     0.35477   0.83333   0.54567   0.00000  Uiso   1.00
C787   C     0.64523   0.83334   0.45433   0.00000  Uiso   1.00
C788   C     0.64457   0.83333   0.54516   0.00000  Uiso   1.00
Cu789  Cu    0.50000   0.88022   0.50000   0.00000  Uiso   1.00
Cu790  Cu    0.50000   0.78645   0.50000   0.00000  Uiso   1.00
H791   H     0.45298   0.71008   0.44601   0.00000  Uiso   1.00
H792   H     0.63032   0.80158   0.38442   0.00000  Uiso   1.00
H793   H     0.59936   0.80176   0.59359   0.00000  Uiso   1.00
H794   H     0.63786   0.83333   0.62645   0.00000  Uiso   1.00
H795   H     0.59936   0.86490   0.59359   0.00000  Uiso   1.00
H796   H     0.40064   0.86491   0.40641   0.00000  Uiso   1.00
H797   H     0.40064   0.80177   0.40641   0.00000  Uiso   1.00
H798   H     0.36214   0.83334   0.37355   0.00000  Uiso   1.00
H799   H     0.54702   0.95659   0.55399   0.00000  Uiso   1.00
H800   H     0.54702   0.71008   0.55399   0.00000  Uiso   1.00
H801   H     0.45298   0.95659   0.44601   0.00000  Uiso   1.00
H802   H     0.41194   0.83333   0.59055   0.00000  Uiso   1.00
H803   H     0.36968   0.86509   0.61558   0.00000  Uiso   1.00
H804   H     0.36968   0.80157   0.61557   0.00000  Uiso   1.00
H805   H     0.58806   0.83333   0.40945   0.00000  Uiso   1.00
H806   H     0.63032   0.86510   0.38443   0.00000  Uiso   1.00
N807   N     0.50000   0.95069   0.50000   0.00000  Uiso   1.00
N808   N     0.50000   0.71598   0.50000   0.00000  Uiso   1.00
O809   O     0.43988   0.87291   0.50000   0.00000  Uiso   1.00
O810   O     0.56012   0.79375   0.50000   0.00000  Uiso   1.00
O811   O     0.56012   0.87291   0.50000   0.00000  Uiso   1.00
O812   O     0.43988   0.79375   0.50000   0.00000  Uiso   1.00
O813   O     0.50000   0.87292   0.42946   0.00000  Uiso   1.00
O814   O     0.50000   0.79375   0.57054   0.00000  Uiso   1.00
O815   O     0.50000   0.87292   0.57054   0.00000  Uiso   1.00
O816   O     0.50000   0.79375   0.42946   0.00000  Uiso   1.00
C817   C     0.75422   0.83333   0.50023   0.00000  Uiso   1.00
C818   C     0.68876   0.83334   0.45484   0.00000  Uiso   1.00
C819   C     0.95713   0.83333   0.49959   0.00000  Uiso   1.00
C820   C     0.70954   0.83333   0.50041   0.00000  Uiso   1.00
C821   C     0.80724   0.69145   0.47004   0.00000  Uiso   1.00
C822   C     0.85943   0.97522   0.52996   0.00000  Uiso   1.00
C823   C     0.85943   0.69145   0.52996   0.00000  Uiso   1.00
C824   C     0.80724   0.97522   0.47004   0.00000  Uiso   1.00
C825   C     0.71123   0.83333   0.59427   0.00000  Uiso   1.00
C826   C     0.95544   0.83334   0.40573   0.00000  Uiso   1.00
C827   C     0.95264   0.83333   0.59239   0.00000  Uiso   1.00
C828   C     0.91244   0.83333   0.49977   0.00000  Uiso   1.00
C829   C     0.71403   0.83334   0.40760   0.00000  Uiso   1.00
C830   C     0.83310   0.83333   0.40688   0.00000  Uiso   1.00
C831   C     0.83357   0.83333   0.59312   0.00000  Uiso   1.00
C832   C     0.83324   0.83333   0.35518   0.00000  Uiso   1.00
C833   C     0.83342   0.83333   0.64482   0.00000  Uiso   1.00
C834   C     0.68811   0.83333   0.54567   0.00000  Uiso   1.00
C835   C     0.97856   0.83334   0.45433   0.00000  Uiso   1.00
C836   C     0.97791   0.83333   0.54516   0.00000  Uiso   1.00
Cu837  Cu    0.83333   0.88022   0.50000   0.00000  Uiso   1.00
Cu838  Cu    0.83333   0.78645   0.50000   0.00000  Uiso   1.00
H839   H     0.78631   0.71008   0.44601   0.00000  Uiso   1.00
H840   H     0.96365   0.80158   0.38442   0.00000  Uiso   1.00
H841   H     0.93269   0.80176   0.59359   0.00000  Uiso   1.00
H842   H     0.97120   0.83333   0.62645   0.00000  Uiso   1.00
H843   H     0.93269   0.86490   0.59359   0.00000  Uiso   1.00
H844   H     0.73398   0.86491   0.40641   0.00000  Uiso   1.00
H845   H     0.73398   0.80177   0.40641   0.00000  Uiso   1.00
H846   H     0.69547   0.83334   0.37355   0.00000  Uiso   1.00
H847   H     0.88036   0.95659   0.55399   0.00000  Uiso   1.00
H848   H     0.88036   0.71008   0.55399   0.00000  Uiso   1.00
H849   H     0.78631   0.95659   0.44601   0.00000  Uiso   1.00
H850   H     0.74528   0.83333   0.59055   0.00000  Uiso   1.00
H851   H     0.70302   0.86509   0.61558   0.00000  Uiso   1.00
H852   H     0.70302   0.80157   0.61557   0.00000  Uiso   1.00
H853   H     0.92139   0.83333   0.40945   0.00000  Uiso   1.00
H854   H     0.96365   0.86510   0.38443   0.00000  Uiso   1.00
N855   N     0.83333   0.95069   0.50000   0.00000  Uiso   1.00
N856   N     0.83333   0.71598   0.50000   0.00000  Uiso   1.00
O857   O     0.77321   0.87291   0.50000   0.00000  Uiso   1.00
O858   O     0.89345   0.79375   0.50000   0.00000  Uiso   1.00
O859   O     0.89345   0.87291   0.50000   0.00000  Uiso   1.00
O860   O     0.77321   0.79375   0.50000   0.00000  Uiso   1.00
O861   O     0.83333   0.87292   0.42946   0.00000  Uiso   1.00
O862   O     0.83333   0.79375   0.57054   0.00000  Uiso   1.00
O863   O     0.83333   0.87292   0.57054   0.00000  Uiso   1.00
O864   O     0.83333   0.79375   0.42946   0.00000  Uiso   1.00
C865   C     0.08756   0.16667   0.83357   0.00000  Uiso   1.00
C866   C     0.02209   0.16667   0.78817   0.00000  Uiso   1.00
C867   C     0.29046   0.16667   0.83292   0.00000  Uiso   1.00
C868   C     0.04287   0.16667   0.83374   0.00000  Uiso   1.00
C869   C     0.14057   0.02478   0.80337   0.00000  Uiso   1.00
C870   C     0.19277   0.30855   0.86329   0.00000  Uiso   1.00
C871   C     0.19277   0.02478   0.86329   0.00000  Uiso   1.00
C872   C     0.14057   0.30855   0.80337   0.00000  Uiso   1.00
C873   C     0.04456   0.16666   0.92760   0.00000  Uiso   1.00
C874   C     0.28877   0.16667   0.73907   0.00000  Uiso   1.00
C875   C     0.28597   0.16666   0.92573   0.00000  Uiso   1.00
C876   C     0.24578   0.16667   0.83310   0.00000  Uiso   1.00
C877   C     0.04736   0.16667   0.74094   0.00000  Uiso   1.00
C878   C     0.16643   0.16667   0.74021   0.00000  Uiso   1.00
C879   C     0.16691   0.16667   0.92645   0.00000  Uiso   1.00
C880   C     0.16658   0.16667   0.68851   0.00000  Uiso   1.00
C881   C     0.16676   0.16667   0.97815   0.00000  Uiso   1.00
C882   C     0.02144   0.16666   0.87901   0.00000  Uiso   1.00
C883   C     0.31190   0.16667   0.78766   0.00000  Uiso   1.00
C884   C     0.31124   0.16666   0.87850   0.00000  Uiso   1.00
Cu885  Cu    0.16667   0.21355   0.83333   0.00000  Uiso   1.00
Cu886  Cu    0.16667   0.11978   0.83333   0.00000  Uiso   1.00
H887   H     0.11964   0.04341   0.77934   0.00000  Uiso   1.00
H888   H     0.29698   0.13491   0.71776   0.00000  Uiso   1.00
H889   H     0.26602   0.13509   0.92692   0.00000  Uiso   1.00
H890   H     0.30453   0.16666   0.95979   0.00000  Uiso   1.00
H891   H     0.26602   0.19823   0.92692   0.00000  Uiso   1.00
H892   H     0.06731   0.19824   0.73975   0.00000  Uiso   1.00
H893   H     0.06731   0.13510   0.73974   0.00000  Uiso   1.00
H894   H     0.02880   0.16667   0.70688   0.00000  Uiso   1.00
H895   H     0.21369   0.28992   0.88732   0.00000  Uiso   1.00
H896   H     0.21369   0.04341   0.88732   0.00000  Uiso   1.00
H897   H     0.11964   0.28992   0.77934   0.00000  Uiso   1.00
H898   H     0.07861   0.16666   0.92388   0.00000  Uiso   1.00
H899   H     0.03635   0.19842   0.94891   0.00000  Uiso   1.00
H900   H     0.03635   0.13490   0.94891   0.00000  Uiso   1.00
H901   H     0.25472   0.16667   0.74279   0.00000  Uiso   1.00
H902   H     0.29698   0.19843   0.71776   0.00000  Uiso   1.00
N903   N     0.16667   0.28402   0.83333   0.00000  Uiso   1.00
N904   N     0.16667   0.04931   0.83333   0.00000  Uiso   1.00
O905   O     0.10655   0.20625   0.83333   0.00000  Uiso   1.00
O906   O     0.22679   0.12709   0.83334   0.00000  Uiso   1.00
O907   O     0.22679   0.20625   0.83334   0.00000  Uiso   1.00
O908   O     0.10655   0.12709   0.83333   0.00000  Uiso   1.00
O909   O     0.16667   0.20625   0.76280   0.00000  Uiso   1.00
O910   O     0.16667   0.12708   0.90387   0.00000  Uiso   1.00
O911   O     0.16667   0.20625   0.90387   0.00000  Uiso   1.00
O912   O     0.16667   0.12708   0.76280   0.00000  Uiso   1.00
C913   C     0.42089   0.16667   0.83357   0.00000  Uiso   1.00
C914   C     0.35543   0.16667   0.78817   0.00000  Uiso   1.00
C915   C     0.62379   0.16667   0.83292   0.00000  Uiso   1.00
C916   C     0.37621   0.16667   0.83374   0.00000  Uiso   1.00
C917   C     0.47390   0.02478   0.80337   0.00000  Uiso   1.00
C918   C     0.52610   0.30855   0.86329   0.00000  Uiso   1.00
C919   C     0.52610   0.02478   0.86329   0.00000  Uiso   1.00
C920   C     0.47390   0.30855   0.80337   0.00000  Uiso   1.00
C921   C     0.37789   0.16666   0.92760   0.00000  Uiso   1.00
C922   C     0.62211   0.16667   0.73907   0.00000  Uiso   1.00
C923   C     0.61931   0.16666   0.92573   0.00000  Uiso   1.00
C924   C     0.57911   0.16667   0.83310   0.00000  Uiso   1.00
C925   C     0.38069   0.16667   0.74094   0.00000  Uiso   1.00
C926   C     0.49976   0.16667   0.74021   0.00000  Uiso   1.00
C927   C     0.50024   0.16667   0.92645   0.00000  Uiso   1.00
C928   C     0.49991   0.16667   0.68851   0.00000  Uiso   1.00
C929   C     0.50009   0.16667   0.97815   0.00000  Uiso   1.00
C930   C     0.35477   0.16666   0.87901   0.00000  Uiso   1.00
C931   C     0.64523   0.16667   0.78766   0.00000  Uiso   1.00
C932   C     0.64457   0.16666   0.87850   0.00000  Uiso   1.00
Cu933  Cu    0.50000   0.21355   0.83333   0.00000  Uiso   1.00
Cu934  Cu    0.50000   0.11978   0.83333   0.00000  Uiso   1.00
H935   H     0.45298   0.04341   0.77934   0.00000  Uiso   1.00
H936   H     0.63032   0.13491   0.71776   0.00000  Uiso   1.00
H937   H     0.59936   0.13509   0.92692   0.00000  Uiso   1.00
H938   H     0.63786   0.16666   0.95979   0.00000  Uiso   1.00
H939   H     0.59936   0.19823   0.92692   0.00000  Uiso   1.00
H940   H     0.40064   0.19824   0.73975   0.00000  Uiso   1.00
H941   H     0.40064   0.13510   0.73974   0.00000  Uiso   1.00
H942   H     0.36214   0.16667   0.70688   0.00000  Uiso   1.00
H943   H     0.54702   0.28992   0.88732   0.00000  Uiso   1.00
H944   H     0.54702   0.04341   0.88732   0.00000  Uiso   1.00
H945   H     0.45298   0.28992   0.77934   0.00000  Uiso   1.00
H946   H     0.41194   0.16666   0.92388   0.00000  Uiso   1.00
H947   H     0.36968   0.19842   0.94891   0.00000  Uiso   1.00
H948   H     0.36968   0.13490   0.94891   0.00000  Uiso   1.00
H949   H     0.58806   0.16667   0.74279   0.00000  Uiso   1.00
H950   H     0.63032   0.19843   0.71776   0.00000  Uiso   1.00
N951   N     0.50000   0.28402   0.83333   0.00000  Uiso   1.00
N952   N     0.50000   0.04931   0.83333   0.00000  Uiso   1.00
O953   O     0.43988   0.20625   0.83333   0.00000  Uiso   1.00
O954   O     0.56012   0.12709   0.83334   0.00000  Uiso   1.00
O955   O     0.56012   0.20625   0.83334   0.00000  Uiso   1.00
O956   O     0.43988   0.12709   0.83333   0.00000  Uiso   1.00
O957   O     0.50000   0.20625   0.76280   0.00000  Uiso   1.00
O958   O     0.50000   0.12708   0.90387   0.00000  Uiso   1.00
O959   O     0.50000   0.20625   0.90387   0.00000  Uiso   1.00
O960   O     0.50000   0.12708   0.76280   0.00000  Uiso   1.00
C961   C     0.75422   0.16667   0.83357   0.00000  Uiso   1.00
C962   C     0.68876   0.16667   0.78817   0.00000  Uiso   1.00
C963   C     0.95713   0.16667   0.83292   0.00000  Uiso   1.00
C964   C     0.70954   0.16667   0.83374   0.00000  Uiso   1.00
C965   C     0.80724   0.02478   0.80337   0.00000  Uiso   1.00
C966   C     0.85943   0.30855   0.86329   0.00000  Uiso   1.00
C967   C     0.85943   0.02478   0.86329   0.00000  Uiso   1.00
C968   C     0.80724   0.30855   0.80337   0.00000  Uiso   1.00
C969   C     0.71123   0.16666   0.92760   0.00000  Uiso   1.00
C970   C     0.95544   0.16667   0.73907   0.00000  Uiso   1.00
C971   C     0.95264   0.16666   0.92573   0.00000  Uiso   1.00
C972   C     0.91244   0.16667   0.83310   0.00000  Uiso   1.00
C973   C     0.71403   0.16667   0.74094   0.00000  Uiso   1.00
C974   C     0.83310   0.16667   0.74021   0.00000  Uiso   1.00
C975   C     0.83357   0.16667   0.92645   0.00000  Uiso   1.00
C976   C     0.83324   0.16667   0.68851   0.00000  Uiso   1.00
C977   C     0.83342   0.16667   0.97815   0.00000  Uiso   1.00
C978   C     0.68811   0.16666   0.87901   0.00000  Uiso   1.00
C979   C     0.97856   0.16667   0.78766   0.00000  Uiso   1.00
C980   C     0.97791   0.16666   0.87850   0.00000  Uiso   1.00
Cu981  Cu    0.83333   0.21355   0.83333   0.00000  Uiso   1.00
Cu982  Cu    0.83333   0.11978   0.83333   0.00000  Uiso   1.00
H983   H     0.78631   0.04341   0.77934   0.00000  Uiso   1.00
H984   H     0.96365   0.13491   0.71776   0.00000  Uiso   1.00
H985   H     0.93269   0.13509   0.92692   0.00000  Uiso   1.00
H986   H     0.97120   0.16666   0.95979   0.00000  Uiso   1.00
H987   H     0.93269   0.19823   0.92692   0.00000  Uiso   1.00
H988   H     0.73398   0.19824   0.73975   0.00000  Uiso   1.00
H989   H     0.73398   0.13510   0.73974   0.00000  Uiso   1.00
H990   H     0.69547   0.16667   0.70688   0.00000  Uiso   1.00
H991   H     0.88036   0.28992   0.88732   0.00000  Uiso   1.00
H992   H     0.88036   0.04341   0.88732   0.00000  Uiso   1.00
H993   H     0.78631   0.28992   0.77934   0.00000  Uiso   1.00
H994   H     0.74528   0.16666   0.92388   0.00000  Uiso   1.00
H995   H     0.70302   0.19842   0.94891   0.00000  Uiso   1.00
H996   H     0.70302   0.13490   0.94891   0.00000  Uiso   1.00
H997   H     0.92139   0.16667   0.74279   0.00000  Uiso   1.00
H998   H     0.96365   0.19843   0.71776   0.00000  Uiso   1.00
N999   N     0.83333   0.28402   0.83333   0.00000  Uiso   1.00
N1000  N     0.83333   0.04931   0.83333   0.00000  Uiso   1.00
O1001  O     0.77321   0.20625   0.83333   0.00000  Uiso   1.00
O1002  O     0.89345   0.12709   0.83334   0.00000  Uiso   1.00
O1003  O     0.89345   0.20625   0.83334   0.00000  Uiso   1.00
O1004  O     0.77321   0.12709   0.83333   0.00000  Uiso   1.00
O1005  O     0.83333   0.20625   0.76280   0.00000  Uiso   1.00
O1006  O     0.83333   0.12708   0.90387   0.00000  Uiso   1.00
O1007  O     0.83333   0.20625   0.90387   0.00000  Uiso   1.00
O1008  O     0.83333   0.12708   0.76280   0.00000  Uiso   1.00
C1009  C     0.08756   0.50000   0.83357   0.00000  Uiso   1.00
C1010  C     0.02209   0.50000   0.78817   0.00000  Uiso   1.00
C1011  C     0.29046   0.50000   0.83292   0.00000  Uiso   1.00
C1012  C     0.04287   0.50000   0.83374   0.00000  Uiso   1.00
C1013  C     0.14057   0.35811   0.80337   0.00000  Uiso   1.00
C1014  C     0.19277   0.64189   0.86329   0.00000  Uiso   1.00
C1015  C     0.19277   0.35811   0.86329   0.00000  Uiso   1.00
C1016  C     0.14057   0.64189   0.80337   0.00000  Uiso   1.00
C1017  C     0.04456   0.50000   0.92760   0.00000  Uiso   1.00
C1018  C     0.28877   0.50000   0.73907   0.00000  Uiso   1.00
C1019  C     0.28597   0.50000   0.92573   0.00000  Uiso   1.00
C1020  C     0.24578   0.50000   0.83310   0.00000  Uiso   1.00
C1021  C     0.04736   0.50000   0.74094   0.00000  Uiso   1.00
C1022  C     0.16643   0.50000   0.74021   0.00000  Uiso   1.00
C1023  C     0.16691   0.50000   0.92645   0.00000  Uiso   1.00
C1024  C     0.16658   0.50000   0.68851   0.00000  Uiso   1.00
C1025  C     0.16676   0.50000   0.97815   0.00000  Uiso   1.00
C1026  C     0.02144   0.50000   0.87901   0.00000  Uiso   1.00
C1027  C     0.31190   0.50000   0.78766   0.00000  Uiso   1.00
C1028  C     0.31124   0.50000   0.87850   0.00000  Uiso   1.00
Cu1029 Cu    0.16667   0.54689   0.83333   0.00000  Uiso   1.00
Cu1030 Cu    0.16667   0.45311   0.83333   0.00000  Uiso   1.00
H1031  H     0.11964   0.37675   0.77934   0.00000  Uiso   1.00
H1032  H     0.29698   0.46825   0.71776   0.00000  Uiso   1.00
H1033  H     0.26602   0.46842   0.92692   0.00000  Uiso   1.00
H1034  H     0.30453   0.49999   0.95979   0.00000  Uiso   1.00
H1035  H     0.26602   0.53157   0.92692   0.00000  Uiso   1.00
H1036  H     0.06731   0.53158   0.73975   0.00000  Uiso   1.00
H1037  H     0.06731   0.46843   0.73974   0.00000  Uiso   1.00
H1038  H     0.02880   0.50001   0.70688   0.00000  Uiso   1.00
H1039  H     0.21369   0.62325   0.88732   0.00000  Uiso   1.00
H1040  H     0.21369   0.37675   0.88732   0.00000  Uiso   1.00
H1041  H     0.11964   0.62325   0.77934   0.00000  Uiso   1.00
H1042  H     0.07861   0.50000   0.92388   0.00000  Uiso   1.00
H1043  H     0.03635   0.53175   0.94891   0.00000  Uiso   1.00
H1044  H     0.03635   0.46824   0.94891   0.00000  Uiso   1.00
H1045  H     0.25472   0.50000   0.74279   0.00000  Uiso   1.00
H1046  H     0.29698   0.53176   0.71776   0.00000  Uiso   1.00
N1047  N     0.16667   0.61736   0.83333   0.00000  Uiso   1.00
N1048  N     0.16667   0.38264   0.83333   0.00000  Uiso   1.00
O1049  O     0.10655   0.53958   0.83333   0.00000  Uiso   1.00
O1050  O     0.22679   0.46042   0.83334   0.00000  Uiso   1.00
O1051  O     0.22679   0.53958   0.83334   0.00000  Uiso   1.00
O1052  O     0.10655   0.46042   0.83333   0.00000  Uiso   1.00
O1053  O     0.16667   0.53959   0.76280   0.00000  Uiso   1.00
O1054  O     0.16667   0.46041   0.90387   0.00000  Uiso   1.00
O1055  O     0.16667   0.53959   0.90387   0.00000  Uiso   1.00
O1056  O     0.16667   0.46041   0.76280   0.00000  Uiso   1.00
C1057  C     0.42089   0.50000   0.83357   0.00000  Uiso   1.00
C1058  C     0.35543   0.50000   0.78817   0.00000  Uiso   1.00
C1059  C     0.62379   0.50000   0.83292   0.00000  Uiso   1.00
C1060  C     0.37621   0.50000   0.83374   0.00000  Uiso   1.00
C1061  C     0.47390   0.35811   0.80337   0.00000  Uiso   1.00
C1062  C     0.52610   0.64189   0.86329   0.00000  Uiso   1.00
C1063  C     0.52610   0.35811   0.86329   0.00000  Uiso   1.00
C1064  C     0.47390   0.64189   0.80337   0.00000  Uiso   1.00
C1065  C     0.37789   0.50000   0.92760   0.00000  Uiso   1.00
C1066  C     0.62211   0.50000   0.73907   0.00000  Uiso   1.00
C1067  C     0.61931   0.50000   0.92573   0.00000  Uiso   1.00
C1068  C     0.57911   0.50000   0.83310   0.00000  Uiso   1.00
C1069  C     0.38069   0.50000   0.74094   0.00000  Uiso   1.00
C1070  C     0.49976   0.50000   0.74021   0.00000  Uiso   1.00
C1071  C     0.50024   0.50000   0.92645   0.00000  Uiso   1.00
C1072  C     0.49991   0.50000   0.68851   0.00000  Uiso   1.00
C1073  C     0.50009   0.50000   0.97815   0.00000  Uiso   1.00
C1074  C     0.35477   0.50000   0.87901   0.00000  Uiso   1.00
C1075  C     0.64523   0.50000   0.78766   0.00000  Uiso   1.00
C1076  C     0.64457   0.50000   0.87850   0.00000  Uiso   1.00
Cu1077 Cu    0.50000   0.54689   0.83333   0.00000  Uiso   1.00
Cu1078 Cu    0.50000   0.45311   0.83333   0.00000  Uiso   1.00
H1079  H     0.45298   0.37675   0.77934   0.00000  Uiso   1.00
H1080  H     0.63032   0.46825   0.71776   0.00000  Uiso   1.00
H1081  H     0.59936   0.46842   0.92692   0.00000  Uiso   1.00
H1082  H     0.63786   0.49999   0.95979   0.00000  Uiso   1.00
H1083  H     0.59936   0.53157   0.92692   0.00000  Uiso   1.00
H1084  H     0.40064   0.53158   0.73975   0.00000  Uiso   1.00
H1085  H     0.40064   0.46843   0.73974   0.00000  Uiso   1.00
H1086  H     0.36214   0.50001   0.70688   0.00000  Uiso   1.00
H1087  H     0.54702   0.62325   0.88732   0.00000  Uiso   1.00
H1088  H     0.54702   0.37675   0.88732   0.00000  Uiso   1.00
H1089  H     0.45298   0.62325   0.77934   0.00000  Uiso   1.00
H1090  H     0.41194   0.50000   0.92388   0.00000  Uiso   1.00
H1091  H     0.36968   0.53175   0.94891   0.00000  Uiso   1.00
H1092  H     0.36968   0.46824   0.94891   0.00000  Uiso   1.00
H1093  H     0.58806   0.50000   0.74279   0.00000  Uiso   1.00
H1094  H     0.63032   0.53176   0.71776   0.00000  Uiso   1.00
N1095  N     0.50000   0.61736   0.83333   0.00000  Uiso   1.00
N1096  N     0.50000   0.38264   0.83333   0.00000  Uiso   1.00
O1097  O     0.43988   0.53958   0.83333   0.00000  Uiso   1.00
O1098  O     0.56012   0.46042   0.83334   0.00000  Uiso   1.00
O1099  O     0.56012   0.53958   0.83334   0.00000  Uiso   1.00
O1100  O     0.43988   0.46042   0.83333   0.00000  Uiso   1.00
O1101  O     0.50000   0.53959   0.76280   0.00000  Uiso   1.00
O1102  O     0.50000   0.46041   0.90387   0.00000  Uiso   1.00
O1103  O     0.50000   0.53959   0.90387   0.00000  Uiso   1.00
O1104  O     0.50000   0.46041   0.76280   0.00000  Uiso   1.00
C1105  C     0.75422   0.50000   0.83357   0.00000  Uiso   1.00
C1106  C     0.68876   0.50000   0.78817   0.00000  Uiso   1.00
C1107  C     0.95713   0.50000   0.83292   0.00000  Uiso   1.00
C1108  C     0.70954   0.50000   0.83374   0.00000  Uiso   1.00
C1109  C     0.80724   0.35811   0.80337   0.00000  Uiso   1.00
C1110  C     0.85943   0.64189   0.86329   0.00000  Uiso   1.00
C1111  C     0.85943   0.35811   0.86329   0.00000  Uiso   1.00
C1112  C     0.80724   0.64189   0.80337   0.00000  Uiso   1.00
C1113  C     0.71123   0.50000   0.92760   0.00000  Uiso   1.00
C1114  C     0.95544   0.50000   0.73907   0.00000  Uiso   1.00
C1115  C     0.95264   0.50000   0.92573   0.00000  Uiso   1.00
C1116  C     0.91244   0.50000   0.83310   0.00000  Uiso   1.00
C1117  C     0.71403   0.50000   0.74094   0.00000  Uiso   1.00
C1118  C     0.83310   0.50000   0.74021   0.00000  Uiso   1.00
C1119  C     0.83357   0.50000   0.92645   0.00000  Uiso   1.00
C1120  C     0.83324   0.50000   0.68851   0.00000  Uiso   1.00
C1121  C     0.83342   0.50000   0.97815   0.00000  Uiso   1.00
C1122  C     0.68811   0.50000   0.87901   0.00000  Uiso   1.00
C1123  C     0.97856   0.50000   0.78766   0.00000  Uiso   1.00
C1124  C     0.97791   0.50000   0.87850   0.00000  Uiso   1.00
Cu1125 Cu    0.83333   0.54689   0.83333   0.00000  Uiso   1.00
Cu1126 Cu    0.83333   0.45311   0.83333   0.00000  Uiso   1.00
H1127  H     0.78631   0.37675   0.77934   0.00000  Uiso   1.00
H1128  H     0.96365   0.46825   0.71776   0.00000  Uiso   1.00
H1129  H     0.93269   0.46842   0.92692   0.00000  Uiso   1.00
H1130  H     0.97120   0.49999   0.95979   0.00000  Uiso   1.00
H1131  H     0.93269   0.53157   0.92692   0.00000  Uiso   1.00
H1132  H     0.73398   0.53158   0.73975   0.00000  Uiso   1.00
H1133  H     0.73398   0.46843   0.73974   0.00000  Uiso   1.00
H1134  H     0.69547   0.50001   0.70688   0.00000  Uiso   1.00
H1135  H     0.88036   0.62325   0.88732   0.00000  Uiso   1.00
H1136  H     0.88036   0.37675   0.88732   0.00000  Uiso   1.00
H1137  H     0.78631   0.62325   0.77934   0.00000  Uiso   1.00
H1138  H     0.74528   0.50000   0.92388   0.00000  Uiso   1.00
H1139  H     0.70302   0.53175   0.94891   0.00000  Uiso   1.00
H1140  H     0.70302   0.46824   0.94891   0.00000  Uiso   1.00
H1141  H     0.92139   0.50000   0.74279   0.00000  Uiso   1.00
H1142  H     0.96365   0.53176   0.71776   0.00000  Uiso   1.00
N1143  N     0.83333   0.61736   0.83333   0.00000  Uiso   1.00
N1144  N     0.83333   0.38264   0.83333   0.00000  Uiso   1.00
O1145  O     0.77321   0.53958   0.83333   0.00000  Uiso   1.00
O1146  O     0.89345   0.46042   0.83334   0.00000  Uiso   1.00
O1147  O     0.89345   0.53958   0.83334   0.00000  Uiso   1.00
O1148  O     0.77321   0.46042   0.83333   0.00000  Uiso   1.00
O1149  O     0.83333   0.53959   0.76280   0.00000  Uiso   1.00
O1150  O     0.83333   0.46041   0.90387   0.00000  Uiso   1.00
O1151  O     0.83333   0.53959   0.90387   0.00000  Uiso   1.00
O1152  O     0.83333   0.46041   0.76280   0.00000  Uiso   1.00
C1153  C     0.08756   0.83333   0.83357   0.00000  Uiso   1.00
C1154  C     0.02209   0.83334   0.78817   0.00000  Uiso   1.00
C1155  C     0.29046   0.83333   0.83292   0.00000  Uiso   1.00
C1156  C     0.04287   0.83333   0.83374   0.00000  Uiso   1.00
C1157  C     0.14057   0.69145   0.80337   0.00000  Uiso   1.00
C1158  C     0.19277   0.97522   0.86329   0.00000  Uiso   1.00
C1159  C     0.19277   0.69145   0.86329   0.00000  Uiso   1.00
C1160  C     0.14057   0.97522   0.80337   0.00000  Uiso   1.00
C1161  C     0.04456   0.83333   0.92760   0.00000  Uiso   1.00
C1162  C     0.28877   0.83334   0.73907   0.00000  Uiso   1.00
C1163  C     0.28597   0.83333   0.92573   0.00000  Uiso   1.00
C1164  C     0.24578   0.83333   0.83310   0.00000  Uiso   1.00
C1165  C     0.04736   0.83334   0.74094   0.00000  Uiso   1.00
C1166  C     0.16643   0.83333   0.74021   0.00000  Uiso   1.00
C1167  C     0.16691   0.83333   0.92645   0.00000  Uiso   1.00
C1168  C     0.16658   0.83333   0.68851   0.00000  Uiso   1.00
C1169  C     0.16676   0.83333   0.97815   0.00000  Uiso   1.00
C1170  C     0.02144   0.83333   0.87901   0.00000  Uiso   1.00
C1171  C     0.31190   0.83334   0.78766   0.00000  Uiso   1.00
C1172  C     0.31124   0.83333   0.87850   0.00000  Uiso   1.00
Cu1173 Cu    0.16667   0.88022   0.83333   0.00000  Uiso   1.00
Cu1174 Cu    0.16667   0.78645   0.83333   0.00000  Uiso   1.00
H1175  H     0.11964   0.71008   0.77934   0.00000  Uiso   1.00
H1176  H     0.29698   0.80158   0.71776   0.00000  Uiso   1.00
H1177  H     0.26602   0.80176   0.92692   0.00000  Uiso   1.00
H1178  H     0.30453   0.83333   0.95979   0.00000  Uiso   1.00
H1179  H     0.26602   0.86490   0.92692   0.00000  Uiso   1.00
H1180  H     0.06731   0.86491   0.73975   0.00000  Uiso   1.00
H1181  H     0.06731   0.80177   0.73974   0.00000  Uiso   1.00
H1182  H     0.02880   0.83334   0.70688   0.00000  Uiso   1.00
H1183  H     0.21369   0.95659   0.88732   0.00000  Uiso   1.00
H1184  H     0.21369   0.71008   0.88732   0.00000  Uiso   1.00
H1185  H     0.11964   0.95659   0.77934   0.00000  Uiso   1.00
H1186  H     0.07861   0.83333   0.92388   0.00000  Uiso   1.00
H1187  H     0.03635   0.86509   0.94891   0.00000  Uiso   1.00
H1188  H     0.03635   0.80157   0.94891   0.00000  Uiso   1.00
H1189  H     0.25472   0.83333   0.74279   0.00000  Uiso   1.00
H1190  H     0.29698   0.86510   0.71776   0.00000  Uiso   1.00
N1191  N     0.16667   0.95069   0.83333   0.00000  Uiso   1.00
N1192  N     0.16667   0.71598   0.83333   0.00000  Uiso   1.00
O1193  O     0.10655   0.87291   0.83333   0.00000  Uiso   1.00
O1194  O     0.22679   0.79375   0.83334   0.00000  Uiso   1.00
O1195  O     0.22679   0.87291   0.83334   0.00000  Uiso   1.00
O1196  O     0.10655   0.79375   0.83333   0.00000  Uiso   1.00
O1197  O     0.16667   0.87292   0.76280   0.00000  Uiso   1.00
O1198  O     0.16667   0.79375   0.90387   0.00000  Uiso   1.00
O1199  O     0.16667   0.87292   0.90387   0.00000  Uiso   1.00
O1200  O     0.16667   0.79375   0.76280   0.00000  Uiso   1.00
C1201  C     0.42089   0.83333   0.83357   0.00000  Uiso   1.00
C1202  C     0.35543   0.83334   0.78817   0.00000  Uiso   1.00
C1203  C     0.62379   0.83333   0.83292   0.00000  Uiso   1.00
C1204  C     0.37621   0.83333   0.83374   0.00000  Uiso   1.00
C1205  C     0.47390   0.69145   0.80337   0.00000  Uiso   1.00
C1206  C     0.52610   0.97522   0.86329   0.00000  Uiso   1.00
C1207  C     0.52610   0.69145   0.86329   0.00000  Uiso   1.00
C1208  C     0.47390   0.97522   0.80337   0.00000  Uiso   1.00
C1209  C     0.37789   0.83333   0.92760   0.00000  Uiso   1.00
C1210  C     0.62211   0.83334   0.73907   0.00000  Uiso   1.00
C1211  C     0.61931   0.83333   0.92573   0.00000  Uiso   1.00
C1212  C     0.57911   0.83333   0.83310   0.00000  Uiso   1.00
C1213  C     0.38069   0.83334   0.74094   0.00000  Uiso   1.00
C1214  C     0.49976   0.83333   0.74021   0.00000  Uiso   1.00
C1215  C     0.50024   0.83333   0.92645   0.00000  Uiso   1.00
C1216  C     0.49991   0.83333   0.68851   0.00000  Uiso   1.00
C1217  C     0.50009   0.83333   0.97815   0.00000  Uiso   1.00
C1218  C     0.35477   0.83333   0.87901   0.00000  Uiso   1.00
C1219  C     0.64523   0.83334   0.78766   0.00000  Uiso   1.00
C1220  C     0.64457   0.83333   0.87850   0.00000  Uiso   1.00
Cu1221 Cu    0.50000   0.88022   0.83333   0.00000  Uiso   1.00
Cu1222 Cu    0.50000   0.78645   0.83333   0.00000  Uiso   1.00
H1223  H     0.45298   0.71008   0.77934   0.00000  Uiso   1.00
H1224  H     0.63032   0.80158   0.71776   0.00000  Uiso   1.00
H1225  H     0.59936   0.80176   0.92692   0.00000  Uiso   1.00
H1226  H     0.63786   0.83333   0.95979   0.00000  Uiso   1.00
H1227  H     0.59936   0.86490   0.92692   0.00000  Uiso   1.00
H1228  H     0.40064   0.86491   0.73975   0.00000  Uiso   1.00
H1229  H     0.40064   0.80177   0.73974   0.00000  Uiso   1.00
H1230  H     0.36214   0.83334   0.70688   0.00000  Uiso   1.00
H1231  H     0.54702   0.95659   0.88732   0.00000  Uiso   1.00
H1232  H     0.54702   0.71008   0.88732   0.00000  Uiso   1.00
H1233  H     0.45298   0.95659   0.77934   0.00000  Uiso   1.00
H1234  H     0.41194   0.83333   0.92388   0.00000  Uiso   1.00
H1235  H     0.36968   0.86509   0.94891   0.00000  Uiso   1.00
H1236  H     0.36968   0.80157   0.94891   0.00000  Uiso   1.00
H1237  H     0.58806   0.83333   0.74279   0.00000  Uiso   1.00
H1238  H     0.63032   0.86510   0.71776   0.00000  Uiso   1.00
N1239  N     0.50000   0.95069   0.83333   0.00000  Uiso   1.00
N1240  N     0.50000   0.71598   0.83333   0.00000  Uiso   1.00
O1241  O     0.43988   0.87291   0.83333   0.00000  Uiso   1.00
O1242  O     0.56012   0.79375   0.83334   0.00000  Uiso   1.00
O1243  O     0.56012   0.87291   0.83334   0.00000  Uiso   1.00
O1244  O     0.43988   0.79375   0.83333   0.00000  Uiso   1.00
O1245  O     0.50000   0.87292   0.76280   0.00000  Uiso   1.00
O1246  O     0.50000   0.79375   0.90387   0.00000  Uiso   1.00
O1247  O     0.50000   0.87292   0.90387   0.00000  Uiso   1.00
O1248  O     0.50000   0.79375   0.76280   0.00000  Uiso   1.00
C1249  C     0.75422   0.83333   0.83357   0.00000  Uiso   1.00
C1250  C     0.68876   0.83334   0.78817   0.00000  Uiso   1.00
C1251  C     0.95713   0.83333   0.83292   0.00000  Uiso   1.00
C1252  C     0.70954   0.83333   0.83374   0.00000  Uiso   1.00
C1253  C     0.80724   0.69145   0.80337   0.00000  Uiso   1.00
C1254  C     0.85943   0.97522   0.86329   0.00000  Uiso   1.00
C1255  C     0.85943   0.69145   0.86329   0.00000  Uiso   1.00
C1256  C     0.80724   0.97522   0.80337   0.00000  Uiso   1.00
C1257  C     0.71123   0.83333   0.92760   0.00000  Uiso   1.00
C1258  C     0.95544   0.83334   0.73907   0.00000  Uiso   1.00
C1259  C     0.95264   0.83333   0.92573   0.00000  Uiso   1.00
C1260  C     0.91244   0.83333   0.83310   0.00000  Uiso   1.00
C1261  C     0.71403   0.83334   0.74094   0.00000  Uiso   1.00
C1262  C     0.83310   0.83333   0.74021   0.00000  Uiso   1.00
C1263  C     0.83357   0.83333   0.92645   0.00000  Uiso   1.00
C1264  C     0.83324   0.83333   0.68851   0.00000  Uiso   1.00
C1265  C     0.83342   0.83333   0.97815   0.00000  Uiso   1.00
C1266  C     0.68811   0.83333   0.87901   0.00000  Uiso   1.00
C1267  C     0.97856   0.83334   0.78766   0.00000  Uiso   1.00
C1268  C     0.97791   0.83333   0.87850   0.00000  Uiso   1.00
Cu1269 Cu    0.83333   0.88022   0.83333   0.00000  Uiso   1.00
Cu1270 Cu    0.83333   0.78645   0.83333   0.00000  Uiso   1.00
H1271  H     0.78631   0.71008   0.77934   0.00000  Uiso   1.00
H1272  H     0.96365   0.80158   0.71776   0.00000  Uiso   1.00
H1273  H     0.93269   0.80176   0.92692   0.00000  Uiso   1.00
H1274  H     0.97120   0.83333   0.95979   0.00000  Uiso   1.00
H1275  H     0.93269   0.86490   0.92692   0.00000  Uiso   1.00
H1276  H     0.73398   0.86491   0.73975   0.00000  Uiso   1.00
H1277  H     0.73398   0.80177   0.73974   0.00000  Uiso   1.00
H1278  H     0.69547   0.83334   0.70688   0.00000  Uiso   1.00
H1279  H     0.88036   0.95659   0.88732   0.00000  Uiso   1.00
H1280  H     0.88036   0.71008   0.88732   0.00000  Uiso   1.00
H1281  H     0.78631   0.95659   0.77934   0.00000  Uiso   1.00
H1282  H     0.74528   0.83333   0.92388   0.00000  Uiso   1.00
H1283  H     0.70302   0.86509   0.94891   0.00000  Uiso   1.00
H1284  H     0.70302   0.80157   0.94891   0.00000  Uiso   1.00
H1285  H     0.92139   0.83333   0.74279   0.00000  Uiso   1.00
H1286  H     0.96365   0.86510   0.71776   0.00000  Uiso   1.00
N1287  N     0.83333   0.95069   0.83333   0.00000  Uiso   1.00
N1288  N     0.83333   0.71598   0.83333   0.00000  Uiso   1.00
O1289  O     0.77321   0.87291   0.83333   0.00000  Uiso   1.00
O1290  O     0.89345   0.79375   0.83334   0.00000  Uiso   1.00
O1291  O     0.89345   0.87291   0.83334   0.00000  Uiso   1.00
O1292  O     0.77321   0.79375   0.83333   0.00000  Uiso   1.00
O1293  O     0.83333   0.87292   0.76280   0.00000  Uiso   1.00
O1294  O     0.83333   0.79375   0.90387   0.00000  Uiso   1.00
O1295  O     0.83333   0.87292   0.90387   0.00000  Uiso   1.00
O1296  O     0.83333   0.79375   0.76280   0.00000  Uiso   1.00
loop_
_geom_bond_atom_site_label_1
_geom_bond_atom_site_label_2
_geom_bond_distance
_geom_bond_site_symmetry_2
_ccdc_geom_bond_type
C1     O44     1.288   .     A
C1     C4      1.444   .     S
C1     O41     1.288   .     A
C2     C4      1.411   .     A
C2     C13     1.523   .     S
C2     C115    1.407   1_455 S
C3     C19     1.414   .     A
C3     C20     1.411   .     A
C3     C12     1.444   .     S
C4     C18     1.414   .     A
C5     H23     1.082   .     S
C5     N40     1.368   .     A
C5     C296    1.418   1_545 S
C6     H31     1.082   .     S
C6     N39     1.368   .     A
C6     C151    1.418   .     S
C7     N40     1.368   .     A
C7     H32     1.082   .     S
C7     C294    1.418   1_545 S
C8     N39     1.368   .     A
C8     H33     1.082   .     S
C8     C149    1.418   .     S
C9     H36     1.110   .     S
C9     C18     1.520   .     S
C9     H34     1.105   .     S
C9     H35     1.110   .     S
C10    C19     1.520   .     S
C10    H38     1.110   .     S
C10    H37     1.105   .     S
C10    H24     1.110   .     S
C11    H27     1.110   .     S
C11    C20     1.523   .     S
C11    H25     1.110   .     S
C11    H26     1.105   .     S
C12    O43     1.288   .     A
C12    O42     1.288   .     A
C13    H28     1.110   .     S
C13    H29     1.110   .     S
C13    H30     1.105   .     S
C14    O45     1.289   .     A
C14    C16     1.408   .     S
C14    O48     1.289   .     A
C15    O47     1.289   .     A
C15    C17     1.408   .     S
C15    O46     1.289   .     A
C16    C881    1.190   1_554 S
C17    C448    1.190   .     S
C18    C116    1.407   1_455 S
C19    C50     1.407   .     S
C20    C66     1.407   .     S
Cu21   Cu22    2.684   .     S
Cu21   O41     1.954   .     S
Cu21   O43     1.954   .     S
Cu21   O47     1.932   .     S
Cu21   O45     1.932   .     S
Cu21   N39     2.017   .     S
Cu22   O48     1.932   .     S
Cu22   N40     2.017   .     S
Cu22   O42     1.954   .     S
Cu22   O46     1.932   .     S
Cu22   O44     1.954   .     S
C49    O92     1.288   .     A
C49    C52     1.444   .     S
C49    O89     1.288   .     A
C50    C52     1.411   .     A
C50    C61     1.523   .     S
C51    C67     1.414   .     A
C51    C68     1.411   .     A
C51    C60     1.444   .     S
C52    C66     1.414   .     A
C53    H71     1.082   .     S
C53    N88     1.368   .     A
C53    C344    1.418   1_545 S
C54    H79     1.082   .     S
C54    N87     1.368   .     A
C54    C199    1.418   .     S
C55    N88     1.368   .     A
C55    H80     1.082   .     S
C55    C342    1.418   1_545 S
C56    N87     1.368   .     A
C56    H81     1.082   .     S
C56    C197    1.418   .     S
C57    H84     1.110   .     S
C57    C66     1.520   .     S
C57    H82     1.105   .     S
C57    H83     1.110   .     S
C58    C67     1.520   .     S
C58    H86     1.110   .     S
C58    H85     1.105   .     S
C58    H72     1.110   .     S
C59    H75     1.110   .     S
C59    C68     1.523   .     S
C59    H73     1.110   .     S
C59    H74     1.105   .     S
C60    O91     1.288   .     A
C60    O90     1.288   .     A
C61    H76     1.110   .     S
C61    H77     1.110   .     S
C61    H78     1.105   .     S
C62    O93     1.289   .     A
C62    C64     1.408   .     S
C62    O96     1.289   .     A
C63    O95     1.289   .     A
C63    C65     1.408   .     S
C63    O94     1.289   .     A
C64    C929    1.190   1_554 S
C65    C496    1.190   .     S
C67    C98     1.407   .     S
C68    C114    1.407   .     S
Cu69   Cu70    2.684   .     S
Cu69   O89     1.954   .     S
Cu69   O91     1.954   .     S
Cu69   O95     1.932   .     S
Cu69   O93     1.932   .     S
Cu69   N87     2.017   .     S
Cu70   O96     1.932   .     S
Cu70   N88     2.017   .     S
Cu70   O90     1.954   .     S
Cu70   O94     1.932   .     S
Cu70   O92     1.954   .     S
C97    O140    1.288   .     A
C97    C100    1.444   .     S
C97    O137    1.288   .     A
C98    C100    1.411   .     A
C98    C109    1.523   .     S
C99    C115    1.414   .     A
C99    C116    1.411   .     A
C99    C108    1.444   .     S
C100   C114    1.414   .     A
C101   H119    1.082   .     S
C101   N136    1.368   .     A
C101   C392    1.418   1_545 S
C102   H127    1.082   .     S
C102   N135    1.368   .     A
C102   C247    1.418   .     S
C103   N136    1.368   .     A
C103   H128    1.082   .     S
C103   C390    1.418   1_545 S
C104   N135    1.368   .     A
C104   H129    1.082   .     S
C104   C245    1.418   .     S
C105   H132    1.110   .     S
C105   C114    1.520   .     S
C105   H130    1.105   .     S
C105   H131    1.110   .     S
C106   C115    1.520   .     S
C106   H134    1.110   .     S
C106   H133    1.105   .     S
C106   H120    1.110   .     S
C107   H123    1.110   .     S
C107   C116    1.523   .     S
C107   H121    1.110   .     S
C107   H122    1.105   .     S
C108   O139    1.288   .     A
C108   O138    1.288   .     A
C109   H124    1.110   .     S
C109   H125    1.110   .     S
C109   H126    1.105   .     S
C110   O141    1.289   .     A
C110   C112    1.408   .     S
C110   O144    1.289   .     A
C111   O143    1.289   .     A
C111   C113    1.408   .     S
C111   O142    1.289   .     A
C112   C977    1.190   1_554 S
C113   C544    1.190   .     S
C115   C2      1.407   1_655 S
C116   C18     1.407   1_655 S
Cu117  Cu118   2.684   .     S
Cu117  O137    1.954   .     S
Cu117  O139    1.954   .     S
Cu117  O143    1.932   .     S
Cu117  O141    1.932   .     S
Cu117  N135    2.017   .     S
Cu118  O144    1.932   .     S
Cu118  N136    2.017   .     S
Cu118  O138    1.954   .     S
Cu118  O142    1.932   .     S
Cu118  O140    1.954   .     S
C145   O188    1.288   .     A
C145   C148    1.444   .     S
C145   O185    1.288   .     A
C146   C148    1.411   .     A
C146   C157    1.523   .     S
C146   C259    1.407   1_455 S
C147   C163    1.414   .     A
C147   C164    1.411   .     A
C147   C156    1.444   .     S
C148   C162    1.414   .     A
C149   H167    1.082   .     S
C149   N184    1.368   .     A
C150   H175    1.082   .     S
C150   N183    1.368   .     A
C150   C295    1.418   .     S
C151   N184    1.368   .     A
C151   H176    1.082   .     S
C152   N183    1.368   .     A
C152   H177    1.082   .     S
C152   C293    1.418   .     S
C153   H180    1.110   .     S
C153   C162    1.520   .     S
C153   H178    1.105   .     S
C153   H179    1.110   .     S
C154   C163    1.520   .     S
C154   H182    1.110   .     S
C154   H181    1.105   .     S
C154   H168    1.110   .     S
C155   H171    1.110   .     S
C155   C164    1.523   .     S
C155   H169    1.110   .     S
C155   H170    1.105   .     S
C156   O187    1.288   .     A
C156   O186    1.288   .     A
C157   H172    1.110   .     S
C157   H173    1.110   .     S
C157   H174    1.105   .     S
C158   O189    1.289   .     A
C158   C160    1.408   .     S
C158   O192    1.289   .     A
C159   O191    1.289   .     A
C159   C161    1.408   .     S
C159   O190    1.289   .     A
C160   C1025   1.190   1_554 S
C161   C592    1.190   .     S
C162   C260    1.407   1_455 S
C163   C194    1.407   .     S
C164   C210    1.407   .     S
Cu165  Cu166   2.684   .     S
Cu165  O185    1.954   .     S
Cu165  O187    1.954   .     S
Cu165  O191    1.932   .     S
Cu165  O189    1.932   .     S
Cu165  N183    2.017   .     S
Cu166  O192    1.932   .     S
Cu166  N184    2.017   .     S
Cu166  O186    1.954   .     S
Cu166  O190    1.932   .     S
Cu166  O188    1.954   .     S
C193   O236    1.288   .     A
C193   C196    1.444   .     S
C193   O233    1.288   .     A
C194   C196    1.411   .     A
C194   C205    1.523   .     S
C195   C211    1.414   .     A
C195   C212    1.411   .     A
C195   C204    1.444   .     S
C196   C210    1.414   .     A
C197   H215    1.082   .     S
C197   N232    1.368   .     A
C198   H223    1.082   .     S
C198   N231    1.368   .     A
C198   C343    1.418   .     S
C199   N232    1.368   .     A
C199   H224    1.082   .     S
C200   N231    1.368   .     A
C200   H225    1.082   .     S
C200   C341    1.418   .     S
C201   H228    1.110   .     S
C201   C210    1.520   .     S
C201   H226    1.105   .     S
C201   H227    1.110   .     S
C202   C211    1.520   .     S
C202   H230    1.110   .     S
C202   H229    1.105   .     S
C202   H216    1.110   .     S
C203   H219    1.110   .     S
C203   C212    1.523   .     S
C203   H217    1.110   .     S
C203   H218    1.105   .     S
C204   O235    1.288   .     A
C204   O234    1.288   .     A
C205   H220    1.110   .     S
C205   H221    1.110   .     S
C205   H222    1.105   .     S
C206   O237    1.289   .     A
C206   C208    1.408   .     S
C206   O240    1.289   .     A
C207   O239    1.289   .     A
C207   C209    1.408   .     S
C207   O238    1.289   .     A
C208   C1073   1.190   1_554 S
C209   C640    1.190   .     S
C211   C242    1.407   .     S
C212   C258    1.407   .     S
Cu213  Cu214   2.684   .     S
Cu213  O233    1.954   .     S
Cu213  O235    1.954   .     S
Cu213  O239    1.932   .     S
Cu213  O237    1.932   .     S
Cu213  N231    2.017   .     S
Cu214  O240    1.932   .     S
Cu214  N232    2.017   .     S
Cu214  O234    1.954   .     S
Cu214  O238    1.932   .     S
Cu214  O236    1.954   .     S
C241   O284    1.288   .     A
C241   C244    1.444   .     S
C241   O281    1.288   .     A
C242   C244    1.411   .     A
C242   C253    1.523   .     S
C243   C259    1.414   .     A
C243   C260    1.411   .     A
C243   C252    1.444   .     S
C244   C258    1.414   .     A
C245   H263    1.082   .     S
C245   N280    1.368   .     A
C246   H271    1.082   .     S
C246   N279    1.368   .     A
C246   C391    1.418   .     S
C247   N280    1.368   .     A
C247   H272    1.082   .     S
C248   N279    1.368   .     A
C248   H273    1.082   .     S
C248   C389    1.418   .     S
C249   H276    1.110   .     S
C249   C258    1.520   .     S
C249   H274    1.105   .     S
C249   H275    1.110   .     S
C250   C259    1.520   .     S
C250   H278    1.110   .     S
C250   H277    1.105   .     S
C250   H264    1.110   .     S
C251   H267    1.110   .     S
C251   C260    1.523   .     S
C251   H265    1.110   .     S
C251   H266    1.105   .     S
C252   O283    1.288   .     A
C252   O282    1.288   .     A
C253   H268    1.110   .     S
C253   H269    1.110   .     S
C253   H270    1.105   .     S
C254   O285    1.289   .     A
C254   C256    1.408   .     S
C254   O288    1.289   .     A
C255   O287    1.289   .     A
C255   C257    1.408   .     S
C255   O286    1.289   .     A
C256   C1121   1.190   1_554 S
C257   C688    1.190   .     S
C259   C146    1.407   1_655 S
C260   C162    1.407   1_655 S
Cu261  Cu262   2.684   .     S
Cu261  O281    1.954   .     S
Cu261  O283    1.954   .     S
Cu261  O287    1.932   .     S
Cu261  O285    1.932   .     S
Cu261  N279    2.017   .     S
Cu262  O288    1.932   .     S
Cu262  N280    2.017   .     S
Cu262  O282    1.954   .     S
Cu262  O286    1.932   .     S
Cu262  O284    1.954   .     S
C289   O332    1.288   .     A
C289   C292    1.444   .     S
C289   O329    1.288   .     A
C290   C292    1.411   .     A
C290   C301    1.523   .     S
C290   C403    1.407   1_455 S
C291   C307    1.414   .     A
C291   C308    1.411   .     A
C291   C300    1.444   .     S
C292   C306    1.414   .     A
C293   H311    1.082   .     S
C293   N328    1.368   .     A
C294   H319    1.082   .     S
C294   N327    1.368   .     A
C294   C7      1.418   1_565 S
C295   N328    1.368   .     A
C295   H320    1.082   .     S
C296   N327    1.368   .     A
C296   H321    1.082   .     S
C296   C5      1.418   1_565 S
C297   H324    1.110   .     S
C297   C306    1.520   .     S
C297   H322    1.105   .     S
C297   H323    1.110   .     S
C298   C307    1.520   .     S
C298   H326    1.110   .     S
C298   H325    1.105   .     S
C298   H312    1.110   .     S
C299   H315    1.110   .     S
C299   C308    1.523   .     S
C299   H313    1.110   .     S
C299   H314    1.105   .     S
C300   O331    1.288   .     A
C300   O330    1.288   .     A
C301   H316    1.110   .     S
C301   H317    1.110   .     S
C301   H318    1.105   .     S
C302   O333    1.289   .     A
C302   C304    1.408   .     S
C302   O336    1.289   .     A
C303   O335    1.289   .     A
C303   C305    1.408   .     S
C303   O334    1.289   .     A
C304   C1169   1.190   1_554 S
C305   C736    1.190   .     S
C306   C404    1.407   1_455 S
C307   C338    1.407   .     S
C308   C354    1.407   .     S
Cu309  Cu310   2.684   .     S
Cu309  O329    1.954   .     S
Cu309  O331    1.954   .     S
Cu309  O335    1.932   .     S
Cu309  O333    1.932   .     S
Cu309  N327    2.017   .     S
Cu310  O336    1.932   .     S
Cu310  N328    2.017   .     S
Cu310  O330    1.954   .     S
Cu310  O334    1.932   .     S
Cu310  O332    1.954   .     S
C337   O380    1.288   .     A
C337   C340    1.444   .     S
C337   O377    1.288   .     A
C338   C340    1.411   .     A
C338   C349    1.523   .     S
C339   C355    1.414   .     A
C339   C356    1.411   .     A
C339   C348    1.444   .     S
C340   C354    1.414   .     A
C341   H359    1.082   .     S
C341   N376    1.368   .     A
C342   H367    1.082   .     S
C342   N375    1.368   .     A
C342   C55     1.418   1_565 S
C343   N376    1.368   .     A
C343   H368    1.082   .     S
C344   N375    1.368   .     A
C344   H369    1.082   .     S
C344   C53     1.418   1_565 S
C345   H372    1.110   .     S
C345   C354    1.520   .     S
C345   H370    1.105   .     S
C345   H371    1.110   .     S
C346   C355    1.520   .     S
C346   H374    1.110   .     S
C346   H373    1.105   .     S
C346   H360    1.110   .     S
C347   H363    1.110   .     S
C347   C356    1.523   .     S
C347   H361    1.110   .     S
C347   H362    1.105   .     S
C348   O379    1.288   .     A
C348   O378    1.288   .     A
C349   H364    1.110   .     S
C349   H365    1.110   .     S
C349   H366    1.105   .     S
C350   O381    1.289   .     A
C350   C352    1.408   .     S
C350   O384    1.289   .     A
C351   O383    1.289   .     A
C351   C353    1.408   .     S
C351   O382    1.289   .     A
C352   C1217   1.190   1_554 S
C353   C784    1.190   .     S
C355   C386    1.407   .     S
C356   C402    1.407   .     S
Cu357  Cu358   2.684   .     S
Cu357  O377    1.954   .     S
Cu357  O379    1.954   .     S
Cu357  O383    1.932   .     S
Cu357  O381    1.932   .     S
Cu357  N375    2.017   .     S
Cu358  O384    1.932   .     S
Cu358  N376    2.017   .     S
Cu358  O378    1.954   .     S
Cu358  O382    1.932   .     S
Cu358  O380    1.954   .     S
C385   O428    1.288   .     A
C385   C388    1.444   .     S
C385   O425    1.288   .     A
C386   C388    1.411   .     A
C386   C397    1.523   .     S
C387   C403    1.414   .     A
C387   C404    1.411   .     A
C387   C396    1.444   .     S
C388   C402    1.414   .     A
C389   H407    1.082   .     S
C389   N424    1.368   .     A
C390   H415    1.082   .     S
C390   N423    1.368   .     A
C390   C103    1.418   1_565 S
C391   N424    1.368   .     A
C391   H416    1.082   .     S
C392   N423    1.368   .     A
C392   H417    1.082   .     S
C392   C101    1.418   1_565 S
C393   H420    1.110   .     S
C393   C402    1.520   .     S
C393   H418    1.105   .     S
C393   H419    1.110   .     S
C394   C403    1.520   .     S
C394   H422    1.110   .     S
C394   H421    1.105   .     S
C394   H408    1.110   .     S
C395   H411    1.110   .     S
C395   C404    1.523   .     S
C395   H409    1.110   .     S
C395   H410    1.105   .     S
C396   O427    1.288   .     A
C396   O426    1.288   .     A
C397   H412    1.110   .     S
C397   H413    1.110   .     S
C397   H414    1.105   .     S
C398   O429    1.289   .     A
C398   C400    1.408   .     S
C398   O432    1.289   .     A
C399   O431    1.289   .     A
C399   C401    1.408   .     S
C399   O430    1.289   .     A
C400   C1265   1.190   1_554 S
C401   C832    1.190   .     S
C403   C290    1.407   1_655 S
C404   C306    1.407   1_655 S
Cu405  Cu406   2.684   .     S
Cu405  O425    1.954   .     S
Cu405  O427    1.954   .     S
Cu405  O431    1.932   .     S
Cu405  O429    1.932   .     S
Cu405  N423    2.017   .     S
Cu406  O432    1.932   .     S
Cu406  N424    2.017   .     S
Cu406  O426    1.954   .     S
Cu406  O430    1.932   .     S
Cu406  O428    1.954   .     S
C433   O476    1.288   .     A
C433   C436    1.444   .     S
C433   O473    1.288   .     A
C434   C436    1.411   .     A
C434   C445    1.523   .     S
C434   C547    1.407   1_455 S
C435   C451    1.414   .     A
C435   C452    1.411   .     A
C435   C444    1.444   .     S
C436   C450    1.414   .     A
C437   H455    1.082   .     S
C437   N472    1.368   .     A
C437   C728    1.418   1_545 S
C438   H463    1.082   .     S
C438   N471    1.368   .     A
C438   C583    1.418   .     S
C439   N472    1.368   .     A
C439   H464    1.082   .     S
C439   C726    1.418   1_545 S
C440   N471    1.368   .     A
C440   H465    1.082   .     S
C440   C581    1.418   .     S
C441   H468    1.110   .     S
C441   C450    1.520   .     S
C441   H466    1.105   .     S
C441   H467    1.110   .     S
C442   C451    1.520   .     S
C442   H470    1.110   .     S
C442   H469    1.105   .     S
C442   H456    1.110   .     S
C443   H459    1.110   .     S
C443   C452    1.523   .     S
C443   H457    1.110   .     S
C443   H458    1.105   .     S
C444   O475    1.288   .     A
C444   O474    1.288   .     A
C445   H460    1.110   .     S
C445   H461    1.110   .     S
C445   H462    1.105   .     S
C446   O477    1.289   .     A
C446   C448    1.408   .     S
C446   O480    1.289   .     A
C447   O479    1.289   .     A
C447   C449    1.408   .     S
C447   O478    1.289   .     A
C449   C880    1.190   .     S
C450   C548    1.407   1_455 S
C451   C482    1.407   .     S
C452   C498    1.407   .     S
Cu453  Cu454   2.684   .     S
Cu453  O473    1.954   .     S
Cu453  O475    1.954   .     S
Cu453  O479    1.932   .     S
Cu453  O477    1.932   .     S
Cu453  N471    2.017   .     S
Cu454  O480    1.932   .     S
Cu454  N472    2.017   .     S
Cu454  O474    1.954   .     S
Cu454  O478    1.932   .     S
Cu454  O476    1.954   .     S
C481   O524    1.288   .     A
C481   C484    1.444   .     S
C481   O521    1.288   .     A
C482   C484    1.411   .     A
C482   C493    1.523   .     S
C483   C499    1.414   .     A
C483   C500    1.411   .     A
C483   C492    1.444   .     S
C484   C498    1.414   .     A
C485   H503    1.082   .     S
C485   N520    1.368   .     A
C485   C776    1.418   1_545 S
C486   H511    1.082   .     S
C486   N519    1.368   .     A
C486   C631    1.418   .     S
C487   N520    1.368   .     A
C487   H512    1.082   .     S
C487   C774    1.418   1_545 S
C488   N519    1.368   .     A
C488   H513    1.082   .     S
C488   C629    1.418   .     S
C489   H516    1.110   .     S
C489   C498    1.520   .     S
C489   H514    1.105   .     S
C489   H515    1.110   .     S
C490   C499    1.520   .     S
C490   H518    1.110   .     S
C490   H517    1.105   .     S
C490   H504    1.110   .     S
C491   H507    1.110   .     S
C491   C500    1.523   .     S
C491   H505    1.110   .     S
C491   H506    1.105   .     S
C492   O523    1.288   .     A
C492   O522    1.288   .     A
C493   H508    1.110   .     S
C493   H509    1.110   .     S
C493   H510    1.105   .     S
C494   O525    1.289   .     A
C494   C496    1.408   .     S
C494   O528    1.289   .     A
C495   O527    1.289   .     A
C495   C497    1.408   .     S
C495   O526    1.289   .     A
C497   C928    1.190   .     S
C499   C530    1.407   .     S
C500   C546    1.407   .     S
Cu501  Cu502   2.684   .     S
Cu501  O521    1.954   .     S
Cu501  O523    1.954   .     S
Cu501  O527    1.932   .     S
Cu501  O525    1.932   .     S
Cu501  N519    2.017   .     S
Cu502  O528    1.932   .     S
Cu502  N520    2.017   .     S
Cu502  O522    1.954   .     S
Cu502  O526    1.932   .     S
Cu502  O524    1.954   .     S
C529   O572    1.288   .     A
C529   C532    1.444   .     S
C529   O569    1.288   .     A
C530   C532    1.411   .     A
C530   C541    1.523   .     S
C531   C547    1.414   .     A
C531   C548    1.411   .     A
C531   C540    1.444   .     S
C532   C546    1.414   .     A
C533   H551    1.082   .     S
C533   N568    1.368   .     A
C533   C824    1.418   1_545 S
C534   H559    1.082   .     S
C534   N567    1.368   .     A
C534   C679    1.418   .     S
C535   N568    1.368   .     A
C535   H560    1.082   .     S
C535   C822    1.418   1_545 S
C536   N567    1.368   .     A
C536   H561    1.082   .     S
C536   C677    1.418   .     S
C537   H564    1.110   .     S
C537   C546    1.520   .     S
C537   H562    1.105   .     S
C537   H563    1.110   .     S
C538   C547    1.520   .     S
C538   H566    1.110   .     S
C538   H565    1.105   .     S
C538   H552    1.110   .     S
C539   H555    1.110   .     S
C539   C548    1.523   .     S
C539   H553    1.110   .     S
C539   H554    1.105   .     S
C540   O571    1.288   .     A
C540   O570    1.288   .     A
C541   H556    1.110   .     S
C541   H557    1.110   .     S
C541   H558    1.105   .     S
C542   O573    1.289   .     A
C542   C544    1.408   .     S
C542   O576    1.289   .     A
C543   O575    1.289   .     A
C543   C545    1.408   .     S
C543   O574    1.289   .     A
C545   C976    1.190   .     S
C547   C434    1.407   1_655 S
C548   C450    1.407   1_655 S
Cu549  Cu550   2.684   .     S
Cu549  O569    1.954   .     S
Cu549  O571    1.954   .     S
Cu549  O575    1.932   .     S
Cu549  O573    1.932   .     S
Cu549  N567    2.017   .     S
Cu550  O576    1.932   .     S
Cu550  N568    2.017   .     S
Cu550  O570    1.954   .     S
Cu550  O574    1.932   .     S
Cu550  O572    1.954   .     S
C577   O620    1.288   .     A
C577   C580    1.444   .     S
C577   O617    1.288   .     A
C578   C580    1.411   .     A
C578   C589    1.523   .     S
C578   C691    1.407   1_455 S
C579   C595    1.414   .     A
C579   C596    1.411   .     A
C579   C588    1.444   .     S
C580   C594    1.414   .     A
C581   H599    1.082   .     S
C581   N616    1.368   .     A
C582   H607    1.082   .     S
C582   N615    1.368   .     A
C582   C727    1.418   .     S
C583   N616    1.368   .     A
C583   H608    1.082   .     S
C584   N615    1.368   .     A
C584   H609    1.082   .     S
C584   C725    1.418   .     S
C585   H612    1.110   .     S
C585   C594    1.520   .     S
C585   H610    1.105   .     S
C585   H611    1.110   .     S
C586   C595    1.520   .     S
C586   H614    1.110   .     S
C586   H613    1.105   .     S
C586   H600    1.110   .     S
C587   H603    1.110   .     S
C587   C596    1.523   .     S
C587   H601    1.110   .     S
C587   H602    1.105   .     S
C588   O619    1.288   .     A
C588   O618    1.288   .     A
C589   H604    1.110   .     S
C589   H605    1.110   .     S
C589   H606    1.105   .     S
C590   O621    1.289   .     A
C590   C592    1.408   .     S
C590   O624    1.289   .     A
C591   O623    1.289   .     A
C591   C593    1.408   .     S
C591   O622    1.289   .     A
C593   C1024   1.190   .     S
C594   C692    1.407   1_455 S
C595   C626    1.407   .     S
C596   C642    1.407   .     S
Cu597  Cu598   2.684   .     S
Cu597  O617    1.954   .     S
Cu597  O619    1.954   .     S
Cu597  O623    1.932   .     S
Cu597  O621    1.932   .     S
Cu597  N615    2.017   .     S
Cu598  O624    1.932   .     S
Cu598  N616    2.017   .     S
Cu598  O618    1.954   .     S
Cu598  O622    1.932   .     S
Cu598  O620    1.954   .     S
C625   O668    1.288   .     A
C625   C628    1.444   .     S
C625   O665    1.288   .     A
C626   C628    1.411   .     A
C626   C637    1.523   .     S
C627   C643    1.414   .     A
C627   C644    1.411   .     A
C627   C636    1.444   .     S
C628   C642    1.414   .     A
C629   H647    1.082   .     S
C629   N664    1.368   .     A
C630   H655    1.082   .     S
C630   N663    1.368   .     A
C630   C775    1.418   .     S
C631   N664    1.368   .     A
C631   H656    1.082   .     S
C632   N663    1.368   .     A
C632   H657    1.082   .     S
C632   C773    1.418   .     S
C633   H660    1.110   .     S
C633   C642    1.520   .     S
C633   H658    1.105   .     S
C633   H659    1.110   .     S
C634   C643    1.520   .     S
C634   H662    1.110   .     S
C634   H661    1.105   .     S
C634   H648    1.110   .     S
C635   H651    1.110   .     S
C635   C644    1.523   .     S
C635   H649    1.110   .     S
C635   H650    1.105   .     S
C636   O667    1.288   .     A
C636   O666    1.288   .     A
C637   H652    1.110   .     S
C637   H653    1.110   .     S
C637   H654    1.105   .     S
C638   O669    1.289   .     A
C638   C640    1.408   .     S
C638   O672    1.289   .     A
C639   O671    1.289   .     A
C639   C641    1.408   .     S
C639   O670    1.289   .     A
C641   C1072   1.190   .     S
C643   C674    1.407   .     S
C644   C690    1.407   .     S
Cu645  Cu646   2.684   .     S
Cu645  O665    1.954   .     S
Cu645  O667    1.954   .     S
Cu645  O671    1.932   .     S
Cu645  O669    1.932   .     S
Cu645  N663    2.017   .     S
Cu646  O672    1.932   .     S
Cu646  N664    2.017   .     S
Cu646  O666    1.954   .     S
Cu646  O670    1.932   .     S
Cu646  O668    1.954   .     S
C673   O716    1.288   .     A
C673   C676    1.444   .     S
C673   O713    1.288   .     A
C674   C676    1.411   .     A
C674   C685    1.523   .     S
C675   C691    1.414   .     A
C675   C692    1.411   .     A
C675   C684    1.444   .     S
C676   C690    1.414   .     A
C677   H695    1.082   .     S
C677   N712    1.368   .     A
C678   H703    1.082   .     S
C678   N711    1.368   .     A
C678   C823    1.418   .     S
C679   N712    1.368   .     A
C679   H704    1.082   .     S
C680   N711    1.368   .     A
C680   H705    1.082   .     S
C680   C821    1.418   .     S
C681   H708    1.110   .     S
C681   C690    1.520   .     S
C681   H706    1.105   .     S
C681   H707    1.110   .     S
C682   C691    1.520   .     S
C682   H710    1.110   .     S
C682   H709    1.105   .     S
C682   H696    1.110   .     S
C683   H699    1.110   .     S
C683   C692    1.523   .     S
C683   H697    1.110   .     S
C683   H698    1.105   .     S
C684   O715    1.288   .     A
C684   O714    1.288   .     A
C685   H700    1.110   .     S
C685   H701    1.110   .     S
C685   H702    1.105   .     S
C686   O717    1.289   .     A
C686   C688    1.408   .     S
C686   O720    1.289   .     A
C687   O719    1.289   .     A
C687   C689    1.408   .     S
C687   O718    1.289   .     A
C689   C1120   1.190   .     S
C691   C578    1.407   1_655 S
C692   C594    1.407   1_655 S
Cu693  Cu694   2.684   .     S
Cu693  O713    1.954   .     S
Cu693  O715    1.954   .     S
Cu693  O719    1.932   .     S
Cu693  O717    1.932   .     S
Cu693  N711    2.017   .     S
Cu694  O720    1.932   .     S
Cu694  N712    2.017   .     S
Cu694  O714    1.954   .     S
Cu694  O718    1.932   .     S
Cu694  O716    1.954   .     S
C721   O764    1.288   .     A
C721   C724    1.444   .     S
C721   O761    1.288   .     A
C722   C724    1.411   .     A
C722   C733    1.523   .     S
C722   C835    1.407   1_455 S
C723   C739    1.414   .     A
C723   C740    1.411   .     A
C723   C732    1.444   .     S
C724   C738    1.414   .     A
C725   H743    1.082   .     S
C725   N760    1.368   .     A
C726   H751    1.082   .     S
C726   N759    1.368   .     A
C726   C439    1.418   1_565 S
C727   N760    1.368   .     A
C727   H752    1.082   .     S
C728   N759    1.368   .     A
C728   H753    1.082   .     S
C728   C437    1.418   1_565 S
C729   H756    1.110   .     S
C729   C738    1.520   .     S
C729   H754    1.105   .     S
C729   H755    1.110   .     S
C730   C739    1.520   .     S
C730   H758    1.110   .     S
C730   H757    1.105   .     S
C730   H744    1.110   .     S
C731   H747    1.110   .     S
C731   C740    1.523   .     S
C731   H745    1.110   .     S
C731   H746    1.105   .     S
C732   O763    1.288   .     A
C732   O762    1.288   .     A
C733   H748    1.110   .     S
C733   H749    1.110   .     S
C733   H750    1.105   .     S
C734   O765    1.289   .     A
C734   C736    1.408   .     S
C734   O768    1.289   .     A
C735   O767    1.289   .     A
C735   C737    1.408   .     S
C735   O766    1.289   .     A
C737   C1168   1.190   .     S
C738   C836    1.407   1_455 S
C739   C770    1.407   .     S
C740   C786    1.407   .     S
Cu741  Cu742   2.684   .     S
Cu741  O761    1.954   .     S
Cu741  O763    1.954   .     S
Cu741  O767    1.932   .     S
Cu741  O765    1.932   .     S
Cu741  N759    2.017   .     S
Cu742  O768    1.932   .     S
Cu742  N760    2.017   .     S
Cu742  O762    1.954   .     S
Cu742  O766    1.932   .     S
Cu742  O764    1.954   .     S
C769   O812    1.288   .     A
C769   C772    1.444   .     S
C769   O809    1.288   .     A
C770   C772    1.411   .     A
C770   C781    1.523   .     S
C771   C787    1.414   .     A
C771   C788    1.411   .     A
C771   C780    1.444   .     S
C772   C786    1.414   .     A
C773   H791    1.082   .     S
C773   N808    1.368   .     A
C774   H799    1.082   .     S
C774   N807    1.368   .     A
C774   C487    1.418   1_565 S
C775   N808    1.368   .     A
C775   H800    1.082   .     S
C776   N807    1.368   .     A
C776   H801    1.082   .     S
C776   C485    1.418   1_565 S
C777   H804    1.110   .     S
C777   C786    1.520   .     S
C777   H802    1.105   .     S
C777   H803    1.110   .     S
C778   C787    1.520   .     S
C778   H806    1.110   .     S
C778   H805    1.105   .     S
C778   H792    1.110   .     S
C779   H795    1.110   .     S
C779   C788    1.523   .     S
C779   H793    1.110   .     S
C779   H794    1.105   .     S
C780   O811    1.288   .     A
C780   O810    1.288   .     A
C781   H796    1.110   .     S
C781   H797    1.110   .     S
C781   H798    1.105   .     S
C782   O813    1.289   .     A
C782   C784    1.408   .     S
C782   O816    1.289   .     A
C783   O815    1.289   .     A
C783   C785    1.408   .     S
C783   O814    1.289   .     A
C785   C1216   1.190   .     S
C787   C818    1.407   .     S
C788   C834    1.407   .     S
Cu789  Cu790   2.684   .     S
Cu789  O809    1.954   .     S
Cu789  O811    1.954   .     S
Cu789  O815    1.932   .     S
Cu789  O813    1.932   .     S
Cu789  N807    2.017   .     S
Cu790  O816    1.932   .     S
Cu790  N808    2.017   .     S
Cu790  O810    1.954   .     S
Cu790  O814    1.932   .     S
Cu790  O812    1.954   .     S
C817   O860    1.288   .     A
C817   C820    1.444   .     S
C817   O857    1.288   .     A
C818   C820    1.411   .     A
C818   C829    1.523   .     S
C819   C835    1.414   .     A
C819   C836    1.411   .     A
C819   C828    1.444   .     S
C820   C834    1.414   .     A
C821   H839    1.082   .     S
C821   N856    1.368   .     A
C822   H847    1.082   .     S
C822   N855    1.368   .     A
C822   C535    1.418   1_565 S
C823   N856    1.368   .     A
C823   H848    1.082   .     S
C824   N855    1.368   .     A
C824   H849    1.082   .     S
C824   C533    1.418   1_565 S
C825   H852    1.110   .     S
C825   C834    1.520   .     S
C825   H850    1.105   .     S
C825   H851    1.110   .     S
C826   C835    1.520   .     S
C826   H854    1.110   .     S
C826   H853    1.105   .     S
C826   H840    1.110   .     S
C827   H843    1.110   .     S
C827   C836    1.523   .     S
C827   H841    1.110   .     S
C827   H842    1.105   .     S
C828   O859    1.288   .     A
C828   O858    1.288   .     A
C829   H844    1.110   .     S
C829   H845    1.110   .     S
C829   H846    1.105   .     S
C830   O861    1.289   .     A
C830   C832    1.408   .     S
C830   O864    1.289   .     A
C831   O863    1.289   .     A
C831   C833    1.408   .     S
C831   O862    1.289   .     A
C833   C1264   1.190   .     S
C835   C722    1.407   1_655 S
C836   C738    1.407   1_655 S
Cu837  Cu838   2.684   .     S
Cu837  O857    1.954   .     S
Cu837  O859    1.954   .     S
Cu837  O863    1.932   .     S
Cu837  O861    1.932   .     S
Cu837  N855    2.017   .     S
Cu838  O864    1.932   .     S
Cu838  N856    2.017   .     S
Cu838  O858    1.954   .     S
Cu838  O862    1.932   .     S
Cu838  O860    1.954   .     S
C865   O908    1.288   .     A
C865   C868    1.444   .     S
C865   O905    1.288   .     A
C866   C868    1.411   .     A
C866   C877    1.523   .     S
C866   C979    1.407   1_455 S
C867   C883    1.414   .     A
C867   C884    1.411   .     A
C867   C876    1.444   .     S
C868   C882    1.414   .     A
C869   H887    1.082   .     S
C869   N904    1.368   .     A
C869   C1160   1.418   1_545 S
C870   H895    1.082   .     S
C870   N903    1.368   .     A
C870   C1015   1.418   .     S
C871   N904    1.368   .     A
C871   H896    1.082   .     S
C871   C1158   1.418   1_545 S
C872   N903    1.368   .     A
C872   H897    1.082   .     S
C872   C1013   1.418   .     S
C873   H900    1.110   .     S
C873   C882    1.520   .     S
C873   H898    1.105   .     S
C873   H899    1.110   .     S
C874   C883    1.520   .     S
C874   H902    1.110   .     S
C874   H901    1.105   .     S
C874   H888    1.110   .     S
C875   H891    1.110   .     S
C875   C884    1.523   .     S
C875   H889    1.110   .     S
C875   H890    1.105   .     S
C876   O907    1.288   .     A
C876   O906    1.288   .     A
C877   H892    1.110   .     S
C877   H893    1.110   .     S
C877   H894    1.105   .     S
C878   O909    1.289   .     A
C878   C880    1.408   .     S
C878   O912    1.289   .     A
C879   O911    1.289   .     A
C879   C881    1.408   .     S
C879   O910    1.289   .     A
C881   C16     1.190   1_556 S
C882   C980    1.407   1_455 S
C883   C914    1.407   .     S
C884   C930    1.407   .     S
Cu885  Cu886   2.684   .     S
Cu885  O905    1.954   .     S
Cu885  O907    1.954   .     S
Cu885  O911    1.932   .     S
Cu885  O909    1.932   .     S
Cu885  N903    2.017   .     S
Cu886  O912    1.932   .     S
Cu886  N904    2.017   .     S
Cu886  O906    1.954   .     S
Cu886  O910    1.932   .     S
Cu886  O908    1.954   .     S
C913   O956    1.288   .     A
C913   C916    1.444   .     S
C913   O953    1.288   .     A
C914   C916    1.411   .     A
C914   C925    1.523   .     S
C915   C931    1.414   .     A
C915   C932    1.411   .     A
C915   C924    1.444   .     S
C916   C930    1.414   .     A
C917   H935    1.082   .     S
C917   N952    1.368   .     A
C917   C1208   1.418   1_545 S
C918   H943    1.082   .     S
C918   N951    1.368   .     A
C918   C1063   1.418   .     S
C919   N952    1.368   .     A
C919   H944    1.082   .     S
C919   C1206   1.418   1_545 S
C920   N951    1.368   .     A
C920   H945    1.082   .     S
C920   C1061   1.418   .     S
C921   H948    1.110   .     S
C921   C930    1.520   .     S
C921   H946    1.105   .     S
C921   H947    1.110   .     S
C922   C931    1.520   .     S
C922   H950    1.110   .     S
C922   H949    1.105   .     S
C922   H936    1.110   .     S
C923   H939    1.110   .     S
C923   C932    1.523   .     S
C923   H937    1.110   .     S
C923   H938    1.105   .     S
C924   O955    1.288   .     A
C924   O954    1.288   .     A
C925   H940    1.110   .     S
C925   H941    1.110   .     S
C925   H942    1.105   .     S
C926   O957    1.289   .     A
C926   C928    1.408   .     S
C926   O960    1.289   .     A
C927   O959    1.289   .     A
C927   C929    1.408   .     S
C927   O958    1.289   .     A
C929   C64     1.190   1_556 S
C931   C962    1.407   .     S
C932   C978    1.407   .     S
Cu933  Cu934   2.684   .     S
Cu933  O953    1.954   .     S
Cu933  O955    1.954   .     S
Cu933  O959    1.932   .     S
Cu933  O957    1.932   .     S
Cu933  N951    2.017   .     S
Cu934  O960    1.932   .     S
Cu934  N952    2.017   .     S
Cu934  O954    1.954   .     S
Cu934  O958    1.932   .     S
Cu934  O956    1.954   .     S
C961   O1004   1.288   .     A
C961   C964    1.444   .     S
C961   O1001   1.288   .     A
C962   C964    1.411   .     A
C962   C973    1.523   .     S
C963   C979    1.414   .     A
C963   C980    1.411   .     A
C963   C972    1.444   .     S
C964   C978    1.414   .     A
C965   H983    1.082   .     S
C965   N1000   1.368   .     A
C965   C1256   1.418   1_545 S
C966   H991    1.082   .     S
C966   N999    1.368   .     A
C966   C1111   1.418   .     S
C967   N1000   1.368   .     A
C967   H992    1.082   .     S
C967   C1254   1.418   1_545 S
C968   N999    1.368   .     A
C968   H993    1.082   .     S
C968   C1109   1.418   .     S
C969   H996    1.110   .     S
C969   C978    1.520   .     S
C969   H994    1.105   .     S
C969   H995    1.110   .     S
C970   C979    1.520   .     S
C970   H998    1.110   .     S
C970   H997    1.105   .     S
C970   H984    1.110   .     S
C971   H987    1.110   .     S
C971   C980    1.523   .     S
C971   H985    1.110   .     S
C971   H986    1.105   .     S
C972   O1003   1.288   .     A
C972   O1002   1.288   .     A
C973   H988    1.110   .     S
C973   H989    1.110   .     S
C973   H990    1.105   .     S
C974   O1005   1.289   .     A
C974   C976    1.408   .     S
C974   O1008   1.289   .     A
C975   O1007   1.289   .     A
C975   C977    1.408   .     S
C975   O1006   1.289   .     A
C977   C112    1.190   1_556 S
C979   C866    1.407   1_655 S
C980   C882    1.407   1_655 S
Cu981  Cu982   2.684   .     S
Cu981  O1001   1.954   .     S
Cu981  O1003   1.954   .     S
Cu981  O1007   1.932   .     S
Cu981  O1005   1.932   .     S
Cu981  N999    2.017   .     S
Cu982  O1008   1.932   .     S
Cu982  N1000   2.017   .     S
Cu982  O1002   1.954   .     S
Cu982  O1006   1.932   .     S
Cu982  O1004   1.954   .     S
C1009  O1052   1.288   .     A
C1009  C1012   1.444   .     S
C1009  O1049   1.288   .     A
C1010  C1012   1.411   .     A
C1010  C1021   1.523   .     S
C1010  C1123   1.407   1_455 S
C1011  C1027   1.414   .     A
C1011  C1028   1.411   .     A
C1011  C1020   1.444   .     S
C1012  C1026   1.414   .     A
C1013  H1031   1.082   .     S
C1013  N1048   1.368   .     A
C1014  H1039   1.082   .     S
C1014  N1047   1.368   .     A
C1014  C1159   1.418   .     S
C1015  N1048   1.368   .     A
C1015  H1040   1.082   .     S
C1016  N1047   1.368   .     A
C1016  H1041   1.082   .     S
C1016  C1157   1.418   .     S
C1017  H1044   1.110   .     S
C1017  C1026   1.520   .     S
C1017  H1042   1.105   .     S
C1017  H1043   1.110   .     S
C1018  C1027   1.520   .     S
C1018  H1046   1.110   .     S
C1018  H1045   1.105   .     S
C1018  H1032   1.110   .     S
C1019  H1035   1.110   .     S
C1019  C1028   1.523   .     S
C1019  H1033   1.110   .     S
C1019  H1034   1.105   .     S
C1020  O1051   1.288   .     A
C1020  O1050   1.288   .     A
C1021  H1036   1.110   .     S
C1021  H1037   1.110   .     S
C1021  H1038   1.105   .     S
C1022  O1053   1.289   .     A
C1022  C1024   1.408   .     S
C1022  O1056   1.289   .     A
C1023  O1055   1.289   .     A
C1023  C1025   1.408   .     S
C1023  O1054   1.289   .     A
C1025  C160    1.190   1_556 S
C1026  C1124   1.407   1_455 S
C1027  C1058   1.407   .     S
C1028  C1074   1.407   .     S
Cu1029 Cu1030  2.684   .     S
Cu1029 O1049   1.954   .     S
Cu1029 O1051   1.954   .     S
Cu1029 O1055   1.932   .     S
Cu1029 O1053   1.932   .     S
Cu1029 N1047   2.017   .     S
Cu1030 O1056   1.932   .     S
Cu1030 N1048   2.017   .     S
Cu1030 O1050   1.954   .     S
Cu1030 O1054   1.932   .     S
Cu1030 O1052   1.954   .     S
C1057  O1100   1.288   .     A
C1057  C1060   1.444   .     S
C1057  O1097   1.288   .     A
C1058  C1060   1.411   .     A
C1058  C1069   1.523   .     S
C1059  C1075   1.414   .     A
C1059  C1076   1.411   .     A
C1059  C1068   1.444   .     S
C1060  C1074   1.414   .     A
C1061  H1079   1.082   .     S
C1061  N1096   1.368   .     A
C1062  H1087   1.082   .     S
C1062  N1095   1.368   .     A
C1062  C1207   1.418   .     S
C1063  N1096   1.368   .     A
C1063  H1088   1.082   .     S
C1064  N1095   1.368   .     A
C1064  H1089   1.082   .     S
C1064  C1205   1.418   .     S
C1065  H1092   1.110   .     S
C1065  C1074   1.520   .     S
C1065  H1090   1.105   .     S
C1065  H1091   1.110   .     S
C1066  C1075   1.520   .     S
C1066  H1094   1.110   .     S
C1066  H1093   1.105   .     S
C1066  H1080   1.110   .     S
C1067  H1083   1.110   .     S
C1067  C1076   1.523   .     S
C1067  H1081   1.110   .     S
C1067  H1082   1.105   .     S
C1068  O1099   1.288   .     A
C1068  O1098   1.288   .     A
C1069  H1084   1.110   .     S
C1069  H1085   1.110   .     S
C1069  H1086   1.105   .     S
C1070  O1101   1.289   .     A
C1070  C1072   1.408   .     S
C1070  O1104   1.289   .     A
C1071  O1103   1.289   .     A
C1071  C1073   1.408   .     S
C1071  O1102   1.289   .     A
C1073  C208    1.190   1_556 S
C1075  C1106   1.407   .     S
C1076  C1122   1.407   .     S
Cu1077 Cu1078  2.684   .     S
Cu1077 O1097   1.954   .     S
Cu1077 O1099   1.954   .     S
Cu1077 O1103   1.932   .     S
Cu1077 O1101   1.932   .     S
Cu1077 N1095   2.017   .     S
Cu1078 O1104   1.932   .     S
Cu1078 N1096   2.017   .     S
Cu1078 O1098   1.954   .     S
Cu1078 O1102   1.932   .     S
Cu1078 O1100   1.954   .     S
C1105  O1148   1.288   .     A
C1105  C1108   1.444   .     S
C1105  O1145   1.288   .     A
C1106  C1108   1.411   .     A
C1106  C1117   1.523   .     S
C1107  C1123   1.414   .     A
C1107  C1124   1.411   .     A
C1107  C1116   1.444   .     S
C1108  C1122   1.414   .     A
C1109  H1127   1.082   .     S
C1109  N1144   1.368   .     A
C1110  H1135   1.082   .     S
C1110  N1143   1.368   .     A
C1110  C1255   1.418   .     S
C1111  N1144   1.368   .     A
C1111  H1136   1.082   .     S
C1112  N1143   1.368   .     A
C1112  H1137   1.082   .     S
C1112  C1253   1.418   .     S
C1113  H1140   1.110   .     S
C1113  C1122   1.520   .     S
C1113  H1138   1.105   .     S
C1113  H1139   1.110   .     S
C1114  C1123   1.520   .     S
C1114  H1142   1.110   .     S
C1114  H1141   1.105   .     S
C1114  H1128   1.110   .     S
C1115  H1131   1.110   .     S
C1115  C1124   1.523   .     S
C1115  H1129   1.110   .     S
C1115  H1130   1.105   .     S
C1116  O1147   1.288   .     A
C1116  O1146   1.288   .     A
C1117  H1132   1.110   .     S
C1117  H1133   1.110   .     S
C1117  H1134   1.105   .     S
C1118  O1149   1.289   .     A
C1118  C1120   1.408   .     S
C1118  O1152   1.289   .     A
C1119  O1151   1.289   .     A
C1119  C1121   1.408   .     S
C1119  O1150   1.289   .     A
C1121  C256    1.190   1_556 S
C1123  C1010   1.407   1_655 S
C1124  C1026   1.407   1_655 S
Cu1125 Cu1126  2.684   .     S
Cu1125 O1145   1.954   .     S
Cu1125 O1147   1.954   .     S
Cu1125 O1151   1.932   .     S
Cu1125 O1149   1.932   .     S
Cu1125 N1143   2.017   .     S
Cu1126 O1152   1.932   .     S
Cu1126 N1144   2.017   .     S
Cu1126 O1146   1.954   .     S
Cu1126 O1150   1.932   .     S
Cu1126 O1148   1.954   .     S
C1153  O1196   1.288   .     A
C1153  C1156   1.444   .     S
C1153  O1193   1.288   .     A
C1154  C1156   1.411   .     A
C1154  C1165   1.523   .     S
C1154  C1267   1.407   1_455 S
C1155  C1171   1.414   .     A
C1155  C1172   1.411   .     A
C1155  C1164   1.444   .     S
C1156  C1170   1.414   .     A
C1157  H1175   1.082   .     S
C1157  N1192   1.368   .     A
C1158  H1183   1.082   .     S
C1158  N1191   1.368   .     A
C1158  C871    1.418   1_565 S
C1159  N1192   1.368   .     A
C1159  H1184   1.082   .     S
C1160  N1191   1.368   .     A
C1160  H1185   1.082   .     S
C1160  C869    1.418   1_565 S
C1161  H1188   1.110   .     S
C1161  C1170   1.520   .     S
C1161  H1186   1.105   .     S
C1161  H1187   1.110   .     S
C1162  C1171   1.520   .     S
C1162  H1190   1.110   .     S
C1162  H1189   1.105   .     S
C1162  H1176   1.110   .     S
C1163  H1179   1.110   .     S
C1163  C1172   1.523   .     S
C1163  H1177   1.110   .     S
C1163  H1178   1.105   .     S
C1164  O1195   1.288   .     A
C1164  O1194   1.288   .     A
C1165  H1180   1.110   .     S
C1165  H1181   1.110   .     S
C1165  H1182   1.105   .     S
C1166  O1197   1.289   .     A
C1166  C1168   1.408   .     S
C1166  O1200   1.289   .     A
C1167  O1199   1.289   .     A
C1167  C1169   1.408   .     S
C1167  O1198   1.289   .     A
C1169  C304    1.190   1_556 S
C1170  C1268   1.407   1_455 S
C1171  C1202   1.407   .     S
C1172  C1218   1.407   .     S
Cu1173 Cu1174  2.684   .     S
Cu1173 O1193   1.954   .     S
Cu1173 O1195   1.954   .     S
Cu1173 O1199   1.932   .     S
Cu1173 O1197   1.932   .     S
Cu1173 N1191   2.017   .     S
Cu1174 O1200   1.932   .     S
Cu1174 N1192   2.017   .     S
Cu1174 O1194   1.954   .     S
Cu1174 O1198   1.932   .     S
Cu1174 O1196   1.954   .     S
C1201  O1244   1.288   .     A
C1201  C1204   1.444   .     S
C1201  O1241   1.288   .     A
C1202  C1204   1.411   .     A
C1202  C1213   1.523   .     S
C1203  C1219   1.414   .     A
C1203  C1220   1.411   .     A
C1203  C1212   1.444   .     S
C1204  C1218   1.414   .     A
C1205  H1223   1.082   .     S
C1205  N1240   1.368   .     A
C1206  H1231   1.082   .     S
C1206  N1239   1.368   .     A
C1206  C919    1.418   1_565 S
C1207  N1240   1.368   .     A
C1207  H1232   1.082   .     S
C1208  N1239   1.368   .     A
C1208  H1233   1.082   .     S
C1208  C917    1.418   1_565 S
C1209  H1236   1.110   .     S
C1209  C1218   1.520   .     S
C1209  H1234   1.105   .     S
C1209  H1235   1.110   .     S
C1210  C1219   1.520   .     S
C1210  H1238   1.110   .     S
C1210  H1237   1.105   .     S
C1210  H1224   1.110   .     S
C1211  H1227   1.110   .     S
C1211  C1220   1.523   .     S
C1211  H1225   1.110   .     S
C1211  H1226   1.105   .     S
C1212  O1243   1.288   .     A
C1212  O1242   1.288   .     A
C1213  H1228   1.110   .     S
C1213  H1229   1.110   .     S
C1213  H1230   1.105   .     S
C1214  O1245   1.289   .     A
C1214  C1216   1.408   .     S
C1214  O1248   1.289   .     A
C1215  O1247   1.289   .     A
C1215  C1217   1.408   .     S
C1215  O1246   1.289   .     A
C1217  C352    1.190   1_556 S
C1219  C1250   1.407   .     S
C1220  C1266   1.407   .     S
Cu1221 Cu1222  2.684   .     S
Cu1221 O1241   1.954   .     S
Cu1221 O1243   1.954   .     S
Cu1221 O1247   1.932   .     S
Cu1221 O1245   1.932   .     S
Cu1221 N1239   2.017   .     S
Cu1222 O1248   1.932   .     S
Cu1222 N1240   2.017   .     S
Cu1222 O1242   1.954   .     S
Cu1222 O1246   1.932   .     S
Cu1222 O1244   1.954   .     S
C1249  O1292   1.288   .     A
C1249  C1252   1.444   .     S
C1249  O1289   1.288   .     A
C1250  C1252   1.411   .     A
C1250  C1261   1.523   .     S
C1251  C1267   1.414   .     A
C1251  C1268   1.411   .     A
C1251  C1260   1.444   .     S
C1252  C1266   1.414   .     A
C1253  H1271   1.082   .     S
C1253  N1288   1.368   .     A
C1254  H1279   1.082   .     S
C1254  N1287   1.368   .     A
C1254  C967    1.418   1_565 S
C1255  N1288   1.368   .     A
C1255  H1280   1.082   .     S
C1256  N1287   1.368   .     A
C1256  H1281   1.082   .     S
C1256  C965    1.418   1_565 S
C1257  H1284   1.110   .     S
C1257  C1266   1.520   .     S
C1257  H1282   1.105   .     S
C1257  H1283   1.110   .     S
C1258  C1267   1.520   .     S
C1258  H1286   1.110   .     S
C1258  H1285   1.105   .     S
C1258  H1272   1.110   .     S
C1259  H1275   1.110   .     S
C1259  C1268   1.523   .     S
C1259  H1273   1.110   .     S
C1259  H1274   1.105   .     S
C1260  O1291   1.288   .     A
C1260  O1290   1.288   .     A
C1261  H1276   1.110   .     S
C1261  H1277   1.110   .     S
C1261  H1278   1.105   .     S
C1262  O1293   1.289   .     A
C1262  C1264   1.408   .     S
C1262  O1296   1.289   .     A
C1263  O1295   1.289   .     A
C1263  C1265   1.408   .     S
C1263  O1294   1.289   .     A
C1265  C400    1.190   1_556 S
C1267  C1154   1.407   1_655 S
C1268  C1170   1.407   1_655 S
Cu1269 Cu1270  2.684   .     S
Cu1269 O1289   1.954   .     S
Cu1269 O1291   1.954   .     S
Cu1269 O1295   1.932   .     S
Cu1269 O1293   1.932   .     S
Cu1269 N1287   2.017   .     S
Cu1270 O1296   1.932   .     S
Cu1270 N1288   2.017   .     S
Cu1270 O1290   1.954   .     S
Cu1270 O1294   1.932   .     S
Cu1270 O1292   1.954   .     S
