data_str_m2_o10_o17_pcu_sym.165
_audit_creation_date              2020-01-03
_audit_creation_method            'Materials Studio'
_symmetry_space_group_name_H-M    'P1'
_symmetry_Int_Tables_number       1
_symmetry_cell_setting            triclinic
loop_
_symmetry_equiv_pos_as_xyz
  x,y,z
_cell_length_a                    29.9811
_cell_length_b                    26.0106
_cell_length_c                    22.8649
_cell_angle_alpha                 103.1549
_cell_angle_beta                  96.0461
_cell_angle_gamma                 95.4117
loop_
_atom_site_label
_atom_site_type_symbol
_atom_site_fract_x
_atom_site_fract_y
_atom_site_fract_z
_atom_site_U_iso_or_equiv
_atom_site_adp_type
_atom_site_occupancy
C1     C     0.24839   0.06668   0.15103   0.00000  Uiso   1.00
C2     C     0.25160   0.26666   0.18231   0.00000  Uiso   1.00
C3     C     0.01365   0.07171   0.12282   0.00000  Uiso   1.00
C4     C     0.48636   0.26162   0.21052   0.00000  Uiso   1.00
C5     C     0.24775   0.01043   0.14260   0.00000  Uiso   1.00
C6     C     0.25224   0.32290   0.19074   0.00000  Uiso   1.00
C7     C     0.16480   0.16730   0.16656   0.00000  Uiso   1.00
C8     C     0.33520   0.16604   0.16677   0.00000  Uiso   1.00
C9     C     0.41161   0.21242   0.18881   0.00000  Uiso   1.00
C10    C     0.08839   0.12092   0.14453   0.00000  Uiso   1.00
C11    C     0.38333   0.16461   0.16690   0.00000  Uiso   1.00
C12    C     0.11667   0.16873   0.16644   0.00000  Uiso   1.00
C13    C     0.40101   0.11638   0.14568   0.00000  Uiso   1.00
C14    C     0.09899   0.21695   0.18766   0.00000  Uiso   1.00
C15    C     0.44800   0.11717   0.14517   0.00000  Uiso   1.00
C16    C     0.05200   0.21617   0.18818   0.00000  Uiso   1.00
C17    C     0.47650   0.16600   0.16686   0.00000  Uiso   1.00
C18    C     0.02350   0.16734   0.16648   0.00000  Uiso   1.00
C19    C     0.45808   0.21354   0.18890   0.00000  Uiso   1.00
C20    C     0.04192   0.11979   0.14444   0.00000  Uiso   1.00
C21    C     0.46714   0.07038   0.12290   0.00000  Uiso   1.00
C22    C     0.03286   0.26295   0.21045   0.00000  Uiso   1.00
Cu23   Cu    0.25500   0.17246   0.22813   0.00000  Uiso   1.00
Cu24   Cu    0.24499   0.16087   0.10521   0.00000  Uiso   1.00
H25    H     0.39717   0.24890   0.20527   0.00000  Uiso   1.00
H26    H     0.10283   0.08444   0.12807   0.00000  Uiso   1.00
H27    H     0.44636   0.03250   0.10527   0.00000  Uiso   1.00
H28    H     0.05364   0.30084   0.22809   0.00000  Uiso   1.00
H29    H     0.02753   0.03504   0.10574   0.00000  Uiso   1.00
H30    H     0.47247   0.29830   0.22760   0.00000  Uiso   1.00
H31    H     0.24370   0.31946   0.09646   0.00000  Uiso   1.00
H32    H     0.25629   0.01387   0.23687   0.00000  Uiso   1.00
N33    N     0.23744   0.15214   0.01284   0.00000  Uiso   1.00
N34    N     0.26255   0.18119   0.32049   0.00000  Uiso   1.00
O35    O     0.25325   0.09538   0.20659   0.00000  Uiso   1.00
O36    O     0.24674   0.23796   0.12674   0.00000  Uiso   1.00
O37    O     0.24480   0.08559   0.10279   0.00000  Uiso   1.00
O38    O     0.25520   0.24774   0.23055   0.00000  Uiso   1.00
O39    O     0.18935   0.17155   0.21857   0.00000  Uiso   1.00
O40    O     0.31064   0.16179   0.11476   0.00000  Uiso   1.00
O41    O     0.18090   0.16176   0.11477   0.00000  Uiso   1.00
O42    O     0.31910   0.17157   0.21857   0.00000  Uiso   1.00
N43    N     0.37201   0.06727   0.12555   0.00000  Uiso   1.00
H44    H     0.34149   0.06946   0.10147   0.00000  Uiso   1.00
C45    C     0.36724   0.03795   0.17172   0.00000  Uiso   1.00
H46    H     0.34941   0.06010   0.20786   0.00000  Uiso   1.00
H47    H     0.40084   0.03117   0.19207   0.00000  Uiso   1.00
H48    H     0.34736   0.33189   0.15113   0.00000  Uiso   1.00
N49    N     0.12799   0.26606   0.20781   0.00000  Uiso   1.00
H50    H     0.15852   0.26387   0.23186   0.00000  Uiso   1.00
C51    C     0.13274   0.29543   0.16167   0.00000  Uiso   1.00
H52    H     0.15057   0.27331   0.12551   0.00000  Uiso   1.00
H53    H     0.15262   0.00148   0.18229   0.00000  Uiso   1.00
H54    H     0.09914   0.30221   0.14134   0.00000  Uiso   1.00
N55    N     0.21040   0.10792   0.30950   0.00000  Uiso   1.00
H56    H     0.20188   0.10929   0.26612   0.00000  Uiso   1.00
C57    C     0.16946   0.09136   0.33189   0.00000  Uiso   1.00
H58    H     0.14967   0.05751   0.29737   0.00000  Uiso   1.00
H59    H     0.14811   0.12432   0.00634   0.00000  Uiso   1.00
H60    H     0.17654   0.07660   0.03964   0.00000  Uiso   1.00
N61    N     0.28959   0.22541   0.02383   0.00000  Uiso   1.00
H62    H     0.29812   0.22403   0.06721   0.00000  Uiso   1.00
C63    C     0.33053   0.24200   0.00143   0.00000  Uiso   1.00
H64    H     0.35032   0.27582   0.03596   0.00000  Uiso   1.00
H65    H     0.32342   0.25679   0.29371   0.00000  Uiso   1.00
H66    H     0.35187   0.20903   0.32693   0.00000  Uiso   1.00
C67    C     0.74839   0.06668   0.15103   0.00000  Uiso   1.00
C68    C     0.75160   0.26666   0.18231   0.00000  Uiso   1.00
C69    C     0.51365   0.07171   0.12282   0.00000  Uiso   1.00
C70    C     0.98636   0.26162   0.21052   0.00000  Uiso   1.00
C71    C     0.74775   0.01043   0.14260   0.00000  Uiso   1.00
C72    C     0.75224   0.32290   0.19074   0.00000  Uiso   1.00
C73    C     0.66480   0.16730   0.16656   0.00000  Uiso   1.00
C74    C     0.83520   0.16604   0.16677   0.00000  Uiso   1.00
C75    C     0.91161   0.21242   0.18881   0.00000  Uiso   1.00
C76    C     0.58839   0.12092   0.14453   0.00000  Uiso   1.00
C77    C     0.88333   0.16461   0.16690   0.00000  Uiso   1.00
C78    C     0.61667   0.16873   0.16644   0.00000  Uiso   1.00
C79    C     0.90101   0.11638   0.14568   0.00000  Uiso   1.00
C80    C     0.59899   0.21695   0.18766   0.00000  Uiso   1.00
C81    C     0.94800   0.11717   0.14517   0.00000  Uiso   1.00
C82    C     0.55200   0.21617   0.18818   0.00000  Uiso   1.00
C83    C     0.97650   0.16600   0.16686   0.00000  Uiso   1.00
C84    C     0.52350   0.16734   0.16648   0.00000  Uiso   1.00
C85    C     0.95808   0.21354   0.18890   0.00000  Uiso   1.00
C86    C     0.54192   0.11979   0.14444   0.00000  Uiso   1.00
C87    C     0.96714   0.07038   0.12290   0.00000  Uiso   1.00
C88    C     0.53286   0.26295   0.21045   0.00000  Uiso   1.00
Cu89   Cu    0.75500   0.17246   0.22813   0.00000  Uiso   1.00
Cu90   Cu    0.74499   0.16087   0.10521   0.00000  Uiso   1.00
H91    H     0.89717   0.24890   0.20527   0.00000  Uiso   1.00
H92    H     0.60283   0.08444   0.12807   0.00000  Uiso   1.00
H93    H     0.94636   0.03250   0.10527   0.00000  Uiso   1.00
H94    H     0.55364   0.30084   0.22809   0.00000  Uiso   1.00
H95    H     0.52753   0.03504   0.10574   0.00000  Uiso   1.00
H96    H     0.97247   0.29830   0.22760   0.00000  Uiso   1.00
H97    H     0.74370   0.31946   0.09646   0.00000  Uiso   1.00
H98    H     0.75629   0.01387   0.23687   0.00000  Uiso   1.00
N99    N     0.73744   0.15214   0.01284   0.00000  Uiso   1.00
N100   N     0.76255   0.18119   0.32049   0.00000  Uiso   1.00
O101   O     0.75325   0.09538   0.20659   0.00000  Uiso   1.00
O102   O     0.74674   0.23796   0.12674   0.00000  Uiso   1.00
O103   O     0.74480   0.08559   0.10279   0.00000  Uiso   1.00
O104   O     0.75520   0.24774   0.23055   0.00000  Uiso   1.00
O105   O     0.68935   0.17155   0.21857   0.00000  Uiso   1.00
O106   O     0.81064   0.16179   0.11476   0.00000  Uiso   1.00
O107   O     0.68090   0.16176   0.11477   0.00000  Uiso   1.00
O108   O     0.81910   0.17157   0.21857   0.00000  Uiso   1.00
N109   N     0.87201   0.06727   0.12555   0.00000  Uiso   1.00
H110   H     0.84149   0.06946   0.10147   0.00000  Uiso   1.00
C111   C     0.86724   0.03795   0.17172   0.00000  Uiso   1.00
H112   H     0.84941   0.06010   0.20786   0.00000  Uiso   1.00
H113   H     0.90084   0.03117   0.19207   0.00000  Uiso   1.00
H114   H     0.84736   0.33189   0.15113   0.00000  Uiso   1.00
N115   N     0.62799   0.26606   0.20781   0.00000  Uiso   1.00
H116   H     0.65852   0.26387   0.23186   0.00000  Uiso   1.00
C117   C     0.63274   0.29543   0.16167   0.00000  Uiso   1.00
H118   H     0.65057   0.27331   0.12551   0.00000  Uiso   1.00
H119   H     0.65262   0.00148   0.18229   0.00000  Uiso   1.00
H120   H     0.59914   0.30221   0.14134   0.00000  Uiso   1.00
N121   N     0.71040   0.10792   0.30950   0.00000  Uiso   1.00
H122   H     0.70188   0.10929   0.26612   0.00000  Uiso   1.00
C123   C     0.66946   0.09136   0.33189   0.00000  Uiso   1.00
H124   H     0.64967   0.05751   0.29737   0.00000  Uiso   1.00
H125   H     0.64811   0.12432   0.00634   0.00000  Uiso   1.00
H126   H     0.67654   0.07660   0.03964   0.00000  Uiso   1.00
N127   N     0.78959   0.22541   0.02383   0.00000  Uiso   1.00
H128   H     0.79812   0.22403   0.06721   0.00000  Uiso   1.00
C129   C     0.83053   0.24200   0.00143   0.00000  Uiso   1.00
H130   H     0.85032   0.27582   0.03596   0.00000  Uiso   1.00
H131   H     0.82342   0.25679   0.29371   0.00000  Uiso   1.00
H132   H     0.85187   0.20903   0.32693   0.00000  Uiso   1.00
C133   C     0.24839   0.40001   0.15103   0.00000  Uiso   1.00
C134   C     0.25160   0.59999   0.18231   0.00000  Uiso   1.00
C135   C     0.01365   0.40505   0.12282   0.00000  Uiso   1.00
C136   C     0.48636   0.59496   0.21052   0.00000  Uiso   1.00
C137   C     0.24775   0.34376   0.14260   0.00000  Uiso   1.00
C138   C     0.25224   0.65624   0.19074   0.00000  Uiso   1.00
C139   C     0.16480   0.50063   0.16656   0.00000  Uiso   1.00
C140   C     0.33520   0.49937   0.16677   0.00000  Uiso   1.00
C141   C     0.41161   0.54575   0.18881   0.00000  Uiso   1.00
C142   C     0.08839   0.45425   0.14453   0.00000  Uiso   1.00
C143   C     0.38333   0.49795   0.16690   0.00000  Uiso   1.00
C144   C     0.11667   0.50206   0.16644   0.00000  Uiso   1.00
C145   C     0.40101   0.44972   0.14568   0.00000  Uiso   1.00
C146   C     0.09899   0.55029   0.18766   0.00000  Uiso   1.00
C147   C     0.44800   0.45050   0.14517   0.00000  Uiso   1.00
C148   C     0.05200   0.54951   0.18818   0.00000  Uiso   1.00
C149   C     0.47650   0.49933   0.16686   0.00000  Uiso   1.00
C150   C     0.02350   0.50068   0.16648   0.00000  Uiso   1.00
C151   C     0.45808   0.54688   0.18890   0.00000  Uiso   1.00
C152   C     0.04192   0.45313   0.14444   0.00000  Uiso   1.00
C153   C     0.46714   0.40372   0.12290   0.00000  Uiso   1.00
C154   C     0.03286   0.59629   0.21045   0.00000  Uiso   1.00
Cu155  Cu    0.25500   0.50579   0.22813   0.00000  Uiso   1.00
Cu156  Cu    0.24499   0.49421   0.10521   0.00000  Uiso   1.00
H157   H     0.39717   0.58224   0.20527   0.00000  Uiso   1.00
H158   H     0.10283   0.41777   0.12807   0.00000  Uiso   1.00
H159   H     0.44636   0.36583   0.10527   0.00000  Uiso   1.00
H160   H     0.05364   0.63417   0.22809   0.00000  Uiso   1.00
H161   H     0.02753   0.36837   0.10574   0.00000  Uiso   1.00
H162   H     0.47247   0.63163   0.22760   0.00000  Uiso   1.00
H163   H     0.24370   0.65280   0.09646   0.00000  Uiso   1.00
H164   H     0.25629   0.34720   0.23687   0.00000  Uiso   1.00
N165   N     0.23744   0.48547   0.01284   0.00000  Uiso   1.00
N166   N     0.26255   0.51453   0.32049   0.00000  Uiso   1.00
O167   O     0.25325   0.42871   0.20659   0.00000  Uiso   1.00
O168   O     0.24674   0.57129   0.12674   0.00000  Uiso   1.00
O169   O     0.24480   0.41892   0.10279   0.00000  Uiso   1.00
O170   O     0.25520   0.58108   0.23055   0.00000  Uiso   1.00
O171   O     0.18935   0.50488   0.21857   0.00000  Uiso   1.00
O172   O     0.31064   0.49512   0.11476   0.00000  Uiso   1.00
O173   O     0.18090   0.49510   0.11477   0.00000  Uiso   1.00
O174   O     0.31910   0.50490   0.21857   0.00000  Uiso   1.00
N175   N     0.37201   0.40060   0.12555   0.00000  Uiso   1.00
H176   H     0.34149   0.40280   0.10147   0.00000  Uiso   1.00
C177   C     0.36724   0.37128   0.17172   0.00000  Uiso   1.00
H178   H     0.34941   0.39343   0.20786   0.00000  Uiso   1.00
H179   H     0.40084   0.36451   0.19207   0.00000  Uiso   1.00
H180   H     0.34736   0.66523   0.15113   0.00000  Uiso   1.00
N181   N     0.12799   0.59940   0.20781   0.00000  Uiso   1.00
H182   H     0.15852   0.59720   0.23186   0.00000  Uiso   1.00
C183   C     0.13274   0.62876   0.16167   0.00000  Uiso   1.00
H184   H     0.15057   0.60664   0.12551   0.00000  Uiso   1.00
H185   H     0.15262   0.33481   0.18229   0.00000  Uiso   1.00
H186   H     0.09914   0.63554   0.14134   0.00000  Uiso   1.00
N187   N     0.21040   0.44126   0.30950   0.00000  Uiso   1.00
H188   H     0.20188   0.44263   0.26612   0.00000  Uiso   1.00
C189   C     0.16946   0.42469   0.33189   0.00000  Uiso   1.00
H190   H     0.14967   0.39084   0.29737   0.00000  Uiso   1.00
H191   H     0.14811   0.45765   0.00634   0.00000  Uiso   1.00
H192   H     0.17654   0.40994   0.03964   0.00000  Uiso   1.00
N193   N     0.28959   0.55875   0.02383   0.00000  Uiso   1.00
H194   H     0.29812   0.55737   0.06721   0.00000  Uiso   1.00
C195   C     0.33053   0.57533   0.00143   0.00000  Uiso   1.00
H196   H     0.35032   0.60915   0.03596   0.00000  Uiso   1.00
H197   H     0.32342   0.59012   0.29371   0.00000  Uiso   1.00
H198   H     0.35187   0.54237   0.32693   0.00000  Uiso   1.00
C199   C     0.74839   0.40001   0.15103   0.00000  Uiso   1.00
C200   C     0.75160   0.59999   0.18231   0.00000  Uiso   1.00
C201   C     0.51365   0.40505   0.12282   0.00000  Uiso   1.00
C202   C     0.98636   0.59496   0.21052   0.00000  Uiso   1.00
C203   C     0.74775   0.34376   0.14260   0.00000  Uiso   1.00
C204   C     0.75224   0.65624   0.19074   0.00000  Uiso   1.00
C205   C     0.66480   0.50063   0.16656   0.00000  Uiso   1.00
C206   C     0.83520   0.49937   0.16677   0.00000  Uiso   1.00
C207   C     0.91161   0.54575   0.18881   0.00000  Uiso   1.00
C208   C     0.58839   0.45425   0.14453   0.00000  Uiso   1.00
C209   C     0.88333   0.49795   0.16690   0.00000  Uiso   1.00
C210   C     0.61667   0.50206   0.16644   0.00000  Uiso   1.00
C211   C     0.90101   0.44972   0.14568   0.00000  Uiso   1.00
C212   C     0.59899   0.55029   0.18766   0.00000  Uiso   1.00
C213   C     0.94800   0.45050   0.14517   0.00000  Uiso   1.00
C214   C     0.55200   0.54951   0.18818   0.00000  Uiso   1.00
C215   C     0.97650   0.49933   0.16686   0.00000  Uiso   1.00
C216   C     0.52350   0.50068   0.16648   0.00000  Uiso   1.00
C217   C     0.95808   0.54688   0.18890   0.00000  Uiso   1.00
C218   C     0.54192   0.45313   0.14444   0.00000  Uiso   1.00
C219   C     0.96714   0.40372   0.12290   0.00000  Uiso   1.00
C220   C     0.53286   0.59629   0.21045   0.00000  Uiso   1.00
Cu221  Cu    0.75500   0.50579   0.22813   0.00000  Uiso   1.00
Cu222  Cu    0.74499   0.49421   0.10521   0.00000  Uiso   1.00
H223   H     0.89717   0.58224   0.20527   0.00000  Uiso   1.00
H224   H     0.60283   0.41777   0.12807   0.00000  Uiso   1.00
H225   H     0.94636   0.36583   0.10527   0.00000  Uiso   1.00
H226   H     0.55364   0.63417   0.22809   0.00000  Uiso   1.00
H227   H     0.52753   0.36837   0.10574   0.00000  Uiso   1.00
H228   H     0.97247   0.63163   0.22760   0.00000  Uiso   1.00
H229   H     0.74370   0.65280   0.09646   0.00000  Uiso   1.00
H230   H     0.75629   0.34720   0.23687   0.00000  Uiso   1.00
N231   N     0.73744   0.48547   0.01284   0.00000  Uiso   1.00
N232   N     0.76255   0.51453   0.32049   0.00000  Uiso   1.00
O233   O     0.75325   0.42871   0.20659   0.00000  Uiso   1.00
O234   O     0.74674   0.57129   0.12674   0.00000  Uiso   1.00
O235   O     0.74480   0.41892   0.10279   0.00000  Uiso   1.00
O236   O     0.75520   0.58108   0.23055   0.00000  Uiso   1.00
O237   O     0.68935   0.50488   0.21857   0.00000  Uiso   1.00
O238   O     0.81064   0.49512   0.11476   0.00000  Uiso   1.00
O239   O     0.68090   0.49510   0.11477   0.00000  Uiso   1.00
O240   O     0.81910   0.50490   0.21857   0.00000  Uiso   1.00
N241   N     0.87201   0.40060   0.12555   0.00000  Uiso   1.00
H242   H     0.84149   0.40280   0.10147   0.00000  Uiso   1.00
C243   C     0.86724   0.37128   0.17172   0.00000  Uiso   1.00
H244   H     0.84941   0.39343   0.20786   0.00000  Uiso   1.00
H245   H     0.90084   0.36451   0.19207   0.00000  Uiso   1.00
H246   H     0.84736   0.66523   0.15113   0.00000  Uiso   1.00
N247   N     0.62799   0.59940   0.20781   0.00000  Uiso   1.00
H248   H     0.65852   0.59720   0.23186   0.00000  Uiso   1.00
C249   C     0.63274   0.62876   0.16167   0.00000  Uiso   1.00
H250   H     0.65057   0.60664   0.12551   0.00000  Uiso   1.00
H251   H     0.65262   0.33481   0.18229   0.00000  Uiso   1.00
H252   H     0.59914   0.63554   0.14134   0.00000  Uiso   1.00
N253   N     0.71040   0.44126   0.30950   0.00000  Uiso   1.00
H254   H     0.70188   0.44263   0.26612   0.00000  Uiso   1.00
C255   C     0.66946   0.42469   0.33189   0.00000  Uiso   1.00
H256   H     0.64967   0.39084   0.29737   0.00000  Uiso   1.00
H257   H     0.64811   0.45765   0.00634   0.00000  Uiso   1.00
H258   H     0.67654   0.40994   0.03964   0.00000  Uiso   1.00
N259   N     0.78959   0.55875   0.02383   0.00000  Uiso   1.00
H260   H     0.79812   0.55737   0.06721   0.00000  Uiso   1.00
C261   C     0.83053   0.57533   0.00143   0.00000  Uiso   1.00
H262   H     0.85032   0.60915   0.03596   0.00000  Uiso   1.00
H263   H     0.82342   0.59012   0.29371   0.00000  Uiso   1.00
H264   H     0.85187   0.54237   0.32693   0.00000  Uiso   1.00
C265   C     0.24839   0.73334   0.15103   0.00000  Uiso   1.00
C266   C     0.25160   0.93332   0.18231   0.00000  Uiso   1.00
C267   C     0.01365   0.73838   0.12282   0.00000  Uiso   1.00
C268   C     0.48636   0.92829   0.21052   0.00000  Uiso   1.00
C269   C     0.24775   0.67709   0.14260   0.00000  Uiso   1.00
C270   C     0.25224   0.98957   0.19074   0.00000  Uiso   1.00
C271   C     0.16480   0.83397   0.16656   0.00000  Uiso   1.00
C272   C     0.33520   0.83270   0.16677   0.00000  Uiso   1.00
C273   C     0.41161   0.87908   0.18881   0.00000  Uiso   1.00
C274   C     0.08839   0.78759   0.14453   0.00000  Uiso   1.00
C275   C     0.38333   0.83128   0.16690   0.00000  Uiso   1.00
C276   C     0.11667   0.83539   0.16644   0.00000  Uiso   1.00
C277   C     0.40101   0.78305   0.14568   0.00000  Uiso   1.00
C278   C     0.09899   0.88362   0.18766   0.00000  Uiso   1.00
C279   C     0.44800   0.78383   0.14517   0.00000  Uiso   1.00
C280   C     0.05200   0.88284   0.18818   0.00000  Uiso   1.00
C281   C     0.47650   0.83266   0.16686   0.00000  Uiso   1.00
C282   C     0.02350   0.83401   0.16648   0.00000  Uiso   1.00
C283   C     0.45808   0.88021   0.18890   0.00000  Uiso   1.00
C284   C     0.04192   0.78646   0.14444   0.00000  Uiso   1.00
C285   C     0.46714   0.73705   0.12290   0.00000  Uiso   1.00
C286   C     0.03286   0.92962   0.21045   0.00000  Uiso   1.00
Cu287  Cu    0.25500   0.83913   0.22813   0.00000  Uiso   1.00
Cu288  Cu    0.24499   0.82754   0.10521   0.00000  Uiso   1.00
H289   H     0.39717   0.91557   0.20527   0.00000  Uiso   1.00
H290   H     0.10283   0.75110   0.12807   0.00000  Uiso   1.00
H291   H     0.44636   0.69917   0.10527   0.00000  Uiso   1.00
H292   H     0.05364   0.96750   0.22809   0.00000  Uiso   1.00
H293   H     0.02753   0.70170   0.10574   0.00000  Uiso   1.00
H294   H     0.47247   0.96497   0.22760   0.00000  Uiso   1.00
H295   H     0.24370   0.98613   0.09646   0.00000  Uiso   1.00
H296   H     0.25629   0.68054   0.23687   0.00000  Uiso   1.00
N297   N     0.23744   0.81881   0.01284   0.00000  Uiso   1.00
N298   N     0.26255   0.84786   0.32049   0.00000  Uiso   1.00
O299   O     0.25325   0.76204   0.20659   0.00000  Uiso   1.00
O300   O     0.24674   0.90462   0.12674   0.00000  Uiso   1.00
O301   O     0.24480   0.75226   0.10279   0.00000  Uiso   1.00
O302   O     0.25520   0.91441   0.23055   0.00000  Uiso   1.00
O303   O     0.18935   0.83821   0.21857   0.00000  Uiso   1.00
O304   O     0.31064   0.82845   0.11476   0.00000  Uiso   1.00
O305   O     0.18090   0.82843   0.11477   0.00000  Uiso   1.00
O306   O     0.31910   0.83824   0.21857   0.00000  Uiso   1.00
N307   N     0.37201   0.73394   0.12555   0.00000  Uiso   1.00
H308   H     0.34149   0.73613   0.10147   0.00000  Uiso   1.00
C309   C     0.36724   0.70462   0.17172   0.00000  Uiso   1.00
H310   H     0.34941   0.72677   0.20786   0.00000  Uiso   1.00
H311   H     0.40084   0.69784   0.19207   0.00000  Uiso   1.00
H312   H     0.34736   0.99856   0.15113   0.00000  Uiso   1.00
N313   N     0.12799   0.93273   0.20781   0.00000  Uiso   1.00
H314   H     0.15852   0.93053   0.23186   0.00000  Uiso   1.00
C315   C     0.13274   0.96209   0.16167   0.00000  Uiso   1.00
H316   H     0.15057   0.93997   0.12551   0.00000  Uiso   1.00
H317   H     0.15262   0.66815   0.18229   0.00000  Uiso   1.00
H318   H     0.09914   0.96887   0.14134   0.00000  Uiso   1.00
N319   N     0.21040   0.77459   0.30950   0.00000  Uiso   1.00
H320   H     0.20188   0.77596   0.26612   0.00000  Uiso   1.00
C321   C     0.16946   0.75802   0.33189   0.00000  Uiso   1.00
H322   H     0.14967   0.72418   0.29737   0.00000  Uiso   1.00
H323   H     0.14811   0.79098   0.00634   0.00000  Uiso   1.00
H324   H     0.17654   0.74327   0.03964   0.00000  Uiso   1.00
N325   N     0.28959   0.89208   0.02383   0.00000  Uiso   1.00
H326   H     0.29812   0.89070   0.06721   0.00000  Uiso   1.00
C327   C     0.33053   0.90866   0.00143   0.00000  Uiso   1.00
H328   H     0.35032   0.94249   0.03596   0.00000  Uiso   1.00
H329   H     0.32342   0.92345   0.29371   0.00000  Uiso   1.00
H330   H     0.35187   0.87570   0.32693   0.00000  Uiso   1.00
C331   C     0.74839   0.73334   0.15103   0.00000  Uiso   1.00
C332   C     0.75160   0.93332   0.18231   0.00000  Uiso   1.00
C333   C     0.51365   0.73838   0.12282   0.00000  Uiso   1.00
C334   C     0.98636   0.92829   0.21052   0.00000  Uiso   1.00
C335   C     0.74775   0.67709   0.14260   0.00000  Uiso   1.00
C336   C     0.75224   0.98957   0.19074   0.00000  Uiso   1.00
C337   C     0.66480   0.83397   0.16656   0.00000  Uiso   1.00
C338   C     0.83520   0.83270   0.16677   0.00000  Uiso   1.00
C339   C     0.91161   0.87908   0.18881   0.00000  Uiso   1.00
C340   C     0.58839   0.78759   0.14453   0.00000  Uiso   1.00
C341   C     0.88333   0.83128   0.16690   0.00000  Uiso   1.00
C342   C     0.61667   0.83539   0.16644   0.00000  Uiso   1.00
C343   C     0.90101   0.78305   0.14568   0.00000  Uiso   1.00
C344   C     0.59899   0.88362   0.18766   0.00000  Uiso   1.00
C345   C     0.94800   0.78383   0.14517   0.00000  Uiso   1.00
C346   C     0.55200   0.88284   0.18818   0.00000  Uiso   1.00
C347   C     0.97650   0.83266   0.16686   0.00000  Uiso   1.00
C348   C     0.52350   0.83401   0.16648   0.00000  Uiso   1.00
C349   C     0.95808   0.88021   0.18890   0.00000  Uiso   1.00
C350   C     0.54192   0.78646   0.14444   0.00000  Uiso   1.00
C351   C     0.96714   0.73705   0.12290   0.00000  Uiso   1.00
C352   C     0.53286   0.92962   0.21045   0.00000  Uiso   1.00
Cu353  Cu    0.75500   0.83913   0.22813   0.00000  Uiso   1.00
Cu354  Cu    0.74499   0.82754   0.10521   0.00000  Uiso   1.00
H355   H     0.89717   0.91557   0.20527   0.00000  Uiso   1.00
H356   H     0.60283   0.75110   0.12807   0.00000  Uiso   1.00
H357   H     0.94636   0.69917   0.10527   0.00000  Uiso   1.00
H358   H     0.55364   0.96750   0.22809   0.00000  Uiso   1.00
H359   H     0.52753   0.70170   0.10574   0.00000  Uiso   1.00
H360   H     0.97247   0.96497   0.22760   0.00000  Uiso   1.00
H361   H     0.74370   0.98613   0.09646   0.00000  Uiso   1.00
H362   H     0.75629   0.68054   0.23687   0.00000  Uiso   1.00
N363   N     0.73744   0.81881   0.01284   0.00000  Uiso   1.00
N364   N     0.76255   0.84786   0.32049   0.00000  Uiso   1.00
O365   O     0.75325   0.76204   0.20659   0.00000  Uiso   1.00
O366   O     0.74674   0.90462   0.12674   0.00000  Uiso   1.00
O367   O     0.74480   0.75226   0.10279   0.00000  Uiso   1.00
O368   O     0.75520   0.91441   0.23055   0.00000  Uiso   1.00
O369   O     0.68935   0.83821   0.21857   0.00000  Uiso   1.00
O370   O     0.81064   0.82845   0.11476   0.00000  Uiso   1.00
O371   O     0.68090   0.82843   0.11477   0.00000  Uiso   1.00
O372   O     0.81910   0.83824   0.21857   0.00000  Uiso   1.00
N373   N     0.87201   0.73394   0.12555   0.00000  Uiso   1.00
H374   H     0.84149   0.73613   0.10147   0.00000  Uiso   1.00
C375   C     0.86724   0.70462   0.17172   0.00000  Uiso   1.00
H376   H     0.84941   0.72677   0.20786   0.00000  Uiso   1.00
H377   H     0.90084   0.69784   0.19207   0.00000  Uiso   1.00
H378   H     0.84736   0.99856   0.15113   0.00000  Uiso   1.00
N379   N     0.62799   0.93273   0.20781   0.00000  Uiso   1.00
H380   H     0.65852   0.93053   0.23186   0.00000  Uiso   1.00
C381   C     0.63274   0.96209   0.16167   0.00000  Uiso   1.00
H382   H     0.65057   0.93997   0.12551   0.00000  Uiso   1.00
H383   H     0.65262   0.66815   0.18229   0.00000  Uiso   1.00
H384   H     0.59914   0.96887   0.14134   0.00000  Uiso   1.00
N385   N     0.71040   0.77459   0.30950   0.00000  Uiso   1.00
H386   H     0.70188   0.77596   0.26612   0.00000  Uiso   1.00
C387   C     0.66946   0.75802   0.33189   0.00000  Uiso   1.00
H388   H     0.64967   0.72418   0.29737   0.00000  Uiso   1.00
H389   H     0.64811   0.79098   0.00634   0.00000  Uiso   1.00
H390   H     0.67654   0.74327   0.03964   0.00000  Uiso   1.00
N391   N     0.78959   0.89208   0.02383   0.00000  Uiso   1.00
H392   H     0.79812   0.89070   0.06721   0.00000  Uiso   1.00
C393   C     0.83053   0.90866   0.00143   0.00000  Uiso   1.00
H394   H     0.85032   0.94249   0.03596   0.00000  Uiso   1.00
H395   H     0.82342   0.92345   0.29371   0.00000  Uiso   1.00
H396   H     0.85187   0.87570   0.32693   0.00000  Uiso   1.00
C397   C     0.24839   0.06668   0.48436   0.00000  Uiso   1.00
C398   C     0.25160   0.26666   0.51564   0.00000  Uiso   1.00
C399   C     0.01365   0.07171   0.45615   0.00000  Uiso   1.00
C400   C     0.48636   0.26162   0.54386   0.00000  Uiso   1.00
C401   C     0.24775   0.01043   0.47593   0.00000  Uiso   1.00
C402   C     0.25224   0.32290   0.52407   0.00000  Uiso   1.00
C403   C     0.16480   0.16730   0.49990   0.00000  Uiso   1.00
C404   C     0.33520   0.16604   0.50010   0.00000  Uiso   1.00
C405   C     0.41161   0.21242   0.52214   0.00000  Uiso   1.00
C406   C     0.08839   0.12092   0.47786   0.00000  Uiso   1.00
C407   C     0.38333   0.16461   0.50023   0.00000  Uiso   1.00
C408   C     0.11667   0.16873   0.49977   0.00000  Uiso   1.00
C409   C     0.40101   0.11638   0.47901   0.00000  Uiso   1.00
C410   C     0.09899   0.21695   0.52099   0.00000  Uiso   1.00
C411   C     0.44800   0.11717   0.47850   0.00000  Uiso   1.00
C412   C     0.05200   0.21617   0.52151   0.00000  Uiso   1.00
C413   C     0.47650   0.16600   0.50020   0.00000  Uiso   1.00
C414   C     0.02350   0.16734   0.49981   0.00000  Uiso   1.00
C415   C     0.45808   0.21354   0.52223   0.00000  Uiso   1.00
C416   C     0.04192   0.11979   0.47777   0.00000  Uiso   1.00
C417   C     0.46714   0.07038   0.45623   0.00000  Uiso   1.00
C418   C     0.03286   0.26295   0.54378   0.00000  Uiso   1.00
Cu419  Cu    0.25500   0.17246   0.56146   0.00000  Uiso   1.00
Cu420  Cu    0.24499   0.16087   0.43854   0.00000  Uiso   1.00
H421   H     0.39717   0.24890   0.53860   0.00000  Uiso   1.00
H422   H     0.10283   0.08444   0.46140   0.00000  Uiso   1.00
H423   H     0.44636   0.03250   0.43860   0.00000  Uiso   1.00
H424   H     0.05364   0.30084   0.56142   0.00000  Uiso   1.00
H425   H     0.02753   0.03504   0.43908   0.00000  Uiso   1.00
H426   H     0.47247   0.29830   0.56094   0.00000  Uiso   1.00
H427   H     0.24370   0.31946   0.42980   0.00000  Uiso   1.00
H428   H     0.25629   0.01387   0.57020   0.00000  Uiso   1.00
N429   N     0.23744   0.15214   0.34617   0.00000  Uiso   1.00
N430   N     0.26255   0.18119   0.65383   0.00000  Uiso   1.00
O431   O     0.25325   0.09538   0.53992   0.00000  Uiso   1.00
O432   O     0.24674   0.23796   0.46008   0.00000  Uiso   1.00
O433   O     0.24480   0.08559   0.43612   0.00000  Uiso   1.00
O434   O     0.25520   0.24774   0.56388   0.00000  Uiso   1.00
O435   O     0.18935   0.17155   0.55191   0.00000  Uiso   1.00
O436   O     0.31064   0.16179   0.44809   0.00000  Uiso   1.00
O437   O     0.18090   0.16176   0.44810   0.00000  Uiso   1.00
O438   O     0.31910   0.17157   0.55190   0.00000  Uiso   1.00
N439   N     0.37201   0.06727   0.45888   0.00000  Uiso   1.00
H440   H     0.34149   0.06946   0.43481   0.00000  Uiso   1.00
C441   C     0.36724   0.03795   0.50505   0.00000  Uiso   1.00
H442   H     0.34941   0.06010   0.54119   0.00000  Uiso   1.00
H443   H     0.40084   0.03117   0.52540   0.00000  Uiso   1.00
H444   H     0.34736   0.33189   0.48446   0.00000  Uiso   1.00
N445   N     0.12799   0.26606   0.54114   0.00000  Uiso   1.00
H446   H     0.15852   0.26387   0.56519   0.00000  Uiso   1.00
C447   C     0.13274   0.29543   0.49500   0.00000  Uiso   1.00
H448   H     0.15057   0.27331   0.45884   0.00000  Uiso   1.00
H449   H     0.15262   0.00148   0.51563   0.00000  Uiso   1.00
H450   H     0.09914   0.30221   0.47468   0.00000  Uiso   1.00
N451   N     0.21040   0.10792   0.64283   0.00000  Uiso   1.00
H452   H     0.20188   0.10929   0.59946   0.00000  Uiso   1.00
C453   C     0.16946   0.09136   0.66523   0.00000  Uiso   1.00
H454   H     0.14967   0.05751   0.63071   0.00000  Uiso   1.00
H455   H     0.14811   0.12432   0.33967   0.00000  Uiso   1.00
H456   H     0.17654   0.07660   0.37297   0.00000  Uiso   1.00
N457   N     0.28959   0.22541   0.35717   0.00000  Uiso   1.00
H458   H     0.29812   0.22403   0.40054   0.00000  Uiso   1.00
C459   C     0.33053   0.24200   0.33476   0.00000  Uiso   1.00
H460   H     0.35032   0.27582   0.36930   0.00000  Uiso   1.00
H461   H     0.32342   0.25679   0.62705   0.00000  Uiso   1.00
H462   H     0.35187   0.20903   0.66027   0.00000  Uiso   1.00
C463   C     0.74839   0.06668   0.48436   0.00000  Uiso   1.00
C464   C     0.75160   0.26666   0.51564   0.00000  Uiso   1.00
C465   C     0.51365   0.07171   0.45615   0.00000  Uiso   1.00
C466   C     0.98636   0.26162   0.54386   0.00000  Uiso   1.00
C467   C     0.74775   0.01043   0.47593   0.00000  Uiso   1.00
C468   C     0.75224   0.32290   0.52407   0.00000  Uiso   1.00
C469   C     0.66480   0.16730   0.49990   0.00000  Uiso   1.00
C470   C     0.83520   0.16604   0.50010   0.00000  Uiso   1.00
C471   C     0.91161   0.21242   0.52214   0.00000  Uiso   1.00
C472   C     0.58839   0.12092   0.47786   0.00000  Uiso   1.00
C473   C     0.88333   0.16461   0.50023   0.00000  Uiso   1.00
C474   C     0.61667   0.16873   0.49977   0.00000  Uiso   1.00
C475   C     0.90101   0.11638   0.47901   0.00000  Uiso   1.00
C476   C     0.59899   0.21695   0.52099   0.00000  Uiso   1.00
C477   C     0.94800   0.11717   0.47850   0.00000  Uiso   1.00
C478   C     0.55200   0.21617   0.52151   0.00000  Uiso   1.00
C479   C     0.97650   0.16600   0.50020   0.00000  Uiso   1.00
C480   C     0.52350   0.16734   0.49981   0.00000  Uiso   1.00
C481   C     0.95808   0.21354   0.52223   0.00000  Uiso   1.00
C482   C     0.54192   0.11979   0.47777   0.00000  Uiso   1.00
C483   C     0.96714   0.07038   0.45623   0.00000  Uiso   1.00
C484   C     0.53286   0.26295   0.54378   0.00000  Uiso   1.00
Cu485  Cu    0.75500   0.17246   0.56146   0.00000  Uiso   1.00
Cu486  Cu    0.74499   0.16087   0.43854   0.00000  Uiso   1.00
H487   H     0.89717   0.24890   0.53860   0.00000  Uiso   1.00
H488   H     0.60283   0.08444   0.46140   0.00000  Uiso   1.00
H489   H     0.94636   0.03250   0.43860   0.00000  Uiso   1.00
H490   H     0.55364   0.30084   0.56142   0.00000  Uiso   1.00
H491   H     0.52753   0.03504   0.43908   0.00000  Uiso   1.00
H492   H     0.97247   0.29830   0.56094   0.00000  Uiso   1.00
H493   H     0.74370   0.31946   0.42980   0.00000  Uiso   1.00
H494   H     0.75629   0.01387   0.57020   0.00000  Uiso   1.00
N495   N     0.73744   0.15214   0.34617   0.00000  Uiso   1.00
N496   N     0.76255   0.18119   0.65383   0.00000  Uiso   1.00
O497   O     0.75325   0.09538   0.53992   0.00000  Uiso   1.00
O498   O     0.74674   0.23796   0.46008   0.00000  Uiso   1.00
O499   O     0.74480   0.08559   0.43612   0.00000  Uiso   1.00
O500   O     0.75520   0.24774   0.56388   0.00000  Uiso   1.00
O501   O     0.68935   0.17155   0.55191   0.00000  Uiso   1.00
O502   O     0.81064   0.16179   0.44809   0.00000  Uiso   1.00
O503   O     0.68090   0.16176   0.44810   0.00000  Uiso   1.00
O504   O     0.81910   0.17157   0.55190   0.00000  Uiso   1.00
N505   N     0.87201   0.06727   0.45888   0.00000  Uiso   1.00
H506   H     0.84149   0.06946   0.43481   0.00000  Uiso   1.00
C507   C     0.86724   0.03795   0.50505   0.00000  Uiso   1.00
H508   H     0.84941   0.06010   0.54119   0.00000  Uiso   1.00
H509   H     0.90084   0.03117   0.52540   0.00000  Uiso   1.00
H510   H     0.84736   0.33189   0.48446   0.00000  Uiso   1.00
N511   N     0.62799   0.26606   0.54114   0.00000  Uiso   1.00
H512   H     0.65852   0.26387   0.56519   0.00000  Uiso   1.00
C513   C     0.63274   0.29543   0.49500   0.00000  Uiso   1.00
H514   H     0.65057   0.27331   0.45884   0.00000  Uiso   1.00
H515   H     0.65262   0.00148   0.51563   0.00000  Uiso   1.00
H516   H     0.59914   0.30221   0.47468   0.00000  Uiso   1.00
N517   N     0.71040   0.10792   0.64283   0.00000  Uiso   1.00
H518   H     0.70188   0.10929   0.59946   0.00000  Uiso   1.00
C519   C     0.66946   0.09136   0.66523   0.00000  Uiso   1.00
H520   H     0.64967   0.05751   0.63071   0.00000  Uiso   1.00
H521   H     0.64811   0.12432   0.33967   0.00000  Uiso   1.00
H522   H     0.67654   0.07660   0.37297   0.00000  Uiso   1.00
N523   N     0.78959   0.22541   0.35717   0.00000  Uiso   1.00
H524   H     0.79812   0.22403   0.40054   0.00000  Uiso   1.00
C525   C     0.83053   0.24200   0.33476   0.00000  Uiso   1.00
H526   H     0.85032   0.27582   0.36930   0.00000  Uiso   1.00
H527   H     0.82342   0.25679   0.62705   0.00000  Uiso   1.00
H528   H     0.85187   0.20903   0.66027   0.00000  Uiso   1.00
C529   C     0.24839   0.40001   0.48436   0.00000  Uiso   1.00
C530   C     0.25160   0.59999   0.51564   0.00000  Uiso   1.00
C531   C     0.01365   0.40505   0.45615   0.00000  Uiso   1.00
C532   C     0.48636   0.59496   0.54386   0.00000  Uiso   1.00
C533   C     0.24775   0.34376   0.47593   0.00000  Uiso   1.00
C534   C     0.25224   0.65624   0.52407   0.00000  Uiso   1.00
C535   C     0.16480   0.50063   0.49990   0.00000  Uiso   1.00
C536   C     0.33520   0.49937   0.50010   0.00000  Uiso   1.00
C537   C     0.41161   0.54575   0.52214   0.00000  Uiso   1.00
C538   C     0.08839   0.45425   0.47786   0.00000  Uiso   1.00
C539   C     0.38333   0.49795   0.50023   0.00000  Uiso   1.00
C540   C     0.11667   0.50206   0.49977   0.00000  Uiso   1.00
C541   C     0.40101   0.44972   0.47901   0.00000  Uiso   1.00
C542   C     0.09899   0.55029   0.52099   0.00000  Uiso   1.00
C543   C     0.44800   0.45050   0.47850   0.00000  Uiso   1.00
C544   C     0.05200   0.54951   0.52151   0.00000  Uiso   1.00
C545   C     0.47650   0.49933   0.50020   0.00000  Uiso   1.00
C546   C     0.02350   0.50068   0.49981   0.00000  Uiso   1.00
C547   C     0.45808   0.54688   0.52223   0.00000  Uiso   1.00
C548   C     0.04192   0.45313   0.47777   0.00000  Uiso   1.00
C549   C     0.46714   0.40372   0.45623   0.00000  Uiso   1.00
C550   C     0.03286   0.59629   0.54378   0.00000  Uiso   1.00
Cu551  Cu    0.25500   0.50579   0.56146   0.00000  Uiso   1.00
Cu552  Cu    0.24499   0.49421   0.43854   0.00000  Uiso   1.00
H553   H     0.39717   0.58224   0.53860   0.00000  Uiso   1.00
H554   H     0.10283   0.41777   0.46140   0.00000  Uiso   1.00
H555   H     0.44636   0.36583   0.43860   0.00000  Uiso   1.00
H556   H     0.05364   0.63417   0.56142   0.00000  Uiso   1.00
H557   H     0.02753   0.36837   0.43908   0.00000  Uiso   1.00
H558   H     0.47247   0.63163   0.56094   0.00000  Uiso   1.00
H559   H     0.24370   0.65280   0.42980   0.00000  Uiso   1.00
H560   H     0.25629   0.34720   0.57020   0.00000  Uiso   1.00
N561   N     0.23744   0.48547   0.34617   0.00000  Uiso   1.00
N562   N     0.26255   0.51453   0.65383   0.00000  Uiso   1.00
O563   O     0.25325   0.42871   0.53992   0.00000  Uiso   1.00
O564   O     0.24674   0.57129   0.46008   0.00000  Uiso   1.00
O565   O     0.24480   0.41892   0.43612   0.00000  Uiso   1.00
O566   O     0.25520   0.58108   0.56388   0.00000  Uiso   1.00
O567   O     0.18935   0.50488   0.55191   0.00000  Uiso   1.00
O568   O     0.31064   0.49512   0.44809   0.00000  Uiso   1.00
O569   O     0.18090   0.49510   0.44810   0.00000  Uiso   1.00
O570   O     0.31910   0.50490   0.55190   0.00000  Uiso   1.00
N571   N     0.37201   0.40060   0.45888   0.00000  Uiso   1.00
H572   H     0.34149   0.40280   0.43481   0.00000  Uiso   1.00
C573   C     0.36724   0.37128   0.50505   0.00000  Uiso   1.00
H574   H     0.34941   0.39343   0.54119   0.00000  Uiso   1.00
H575   H     0.40084   0.36451   0.52540   0.00000  Uiso   1.00
H576   H     0.34736   0.66523   0.48446   0.00000  Uiso   1.00
N577   N     0.12799   0.59940   0.54114   0.00000  Uiso   1.00
H578   H     0.15852   0.59720   0.56519   0.00000  Uiso   1.00
C579   C     0.13274   0.62876   0.49500   0.00000  Uiso   1.00
H580   H     0.15057   0.60664   0.45884   0.00000  Uiso   1.00
H581   H     0.15262   0.33481   0.51563   0.00000  Uiso   1.00
H582   H     0.09914   0.63554   0.47468   0.00000  Uiso   1.00
N583   N     0.21040   0.44126   0.64283   0.00000  Uiso   1.00
H584   H     0.20188   0.44263   0.59946   0.00000  Uiso   1.00
C585   C     0.16946   0.42469   0.66523   0.00000  Uiso   1.00
H586   H     0.14967   0.39084   0.63071   0.00000  Uiso   1.00
H587   H     0.14811   0.45765   0.33967   0.00000  Uiso   1.00
H588   H     0.17654   0.40994   0.37297   0.00000  Uiso   1.00
N589   N     0.28959   0.55875   0.35717   0.00000  Uiso   1.00
H590   H     0.29812   0.55737   0.40054   0.00000  Uiso   1.00
C591   C     0.33053   0.57533   0.33476   0.00000  Uiso   1.00
H592   H     0.35032   0.60915   0.36930   0.00000  Uiso   1.00
H593   H     0.32342   0.59012   0.62705   0.00000  Uiso   1.00
H594   H     0.35187   0.54237   0.66027   0.00000  Uiso   1.00
C595   C     0.74839   0.40001   0.48436   0.00000  Uiso   1.00
C596   C     0.75160   0.59999   0.51564   0.00000  Uiso   1.00
C597   C     0.51365   0.40505   0.45615   0.00000  Uiso   1.00
C598   C     0.98636   0.59496   0.54386   0.00000  Uiso   1.00
C599   C     0.74775   0.34376   0.47593   0.00000  Uiso   1.00
C600   C     0.75224   0.65624   0.52407   0.00000  Uiso   1.00
C601   C     0.66480   0.50063   0.49990   0.00000  Uiso   1.00
C602   C     0.83520   0.49937   0.50010   0.00000  Uiso   1.00
C603   C     0.91161   0.54575   0.52214   0.00000  Uiso   1.00
C604   C     0.58839   0.45425   0.47786   0.00000  Uiso   1.00
C605   C     0.88333   0.49795   0.50023   0.00000  Uiso   1.00
C606   C     0.61667   0.50206   0.49977   0.00000  Uiso   1.00
C607   C     0.90101   0.44972   0.47901   0.00000  Uiso   1.00
C608   C     0.59899   0.55029   0.52099   0.00000  Uiso   1.00
C609   C     0.94800   0.45050   0.47850   0.00000  Uiso   1.00
C610   C     0.55200   0.54951   0.52151   0.00000  Uiso   1.00
C611   C     0.97650   0.49933   0.50020   0.00000  Uiso   1.00
C612   C     0.52350   0.50068   0.49981   0.00000  Uiso   1.00
C613   C     0.95808   0.54688   0.52223   0.00000  Uiso   1.00
C614   C     0.54192   0.45313   0.47777   0.00000  Uiso   1.00
C615   C     0.96714   0.40372   0.45623   0.00000  Uiso   1.00
C616   C     0.53286   0.59629   0.54378   0.00000  Uiso   1.00
Cu617  Cu    0.75500   0.50579   0.56146   0.00000  Uiso   1.00
Cu618  Cu    0.74499   0.49421   0.43854   0.00000  Uiso   1.00
H619   H     0.89717   0.58224   0.53860   0.00000  Uiso   1.00
H620   H     0.60283   0.41777   0.46140   0.00000  Uiso   1.00
H621   H     0.94636   0.36583   0.43860   0.00000  Uiso   1.00
H622   H     0.55364   0.63417   0.56142   0.00000  Uiso   1.00
H623   H     0.52753   0.36837   0.43908   0.00000  Uiso   1.00
H624   H     0.97247   0.63163   0.56094   0.00000  Uiso   1.00
H625   H     0.74370   0.65280   0.42980   0.00000  Uiso   1.00
H626   H     0.75629   0.34720   0.57020   0.00000  Uiso   1.00
N627   N     0.73744   0.48547   0.34617   0.00000  Uiso   1.00
N628   N     0.76255   0.51453   0.65383   0.00000  Uiso   1.00
O629   O     0.75325   0.42871   0.53992   0.00000  Uiso   1.00
O630   O     0.74674   0.57129   0.46008   0.00000  Uiso   1.00
O631   O     0.74480   0.41892   0.43612   0.00000  Uiso   1.00
O632   O     0.75520   0.58108   0.56388   0.00000  Uiso   1.00
O633   O     0.68935   0.50488   0.55191   0.00000  Uiso   1.00
O634   O     0.81064   0.49512   0.44809   0.00000  Uiso   1.00
O635   O     0.68090   0.49510   0.44810   0.00000  Uiso   1.00
O636   O     0.81910   0.50490   0.55190   0.00000  Uiso   1.00
N637   N     0.87201   0.40060   0.45888   0.00000  Uiso   1.00
H638   H     0.84149   0.40280   0.43481   0.00000  Uiso   1.00
C639   C     0.86724   0.37128   0.50505   0.00000  Uiso   1.00
H640   H     0.84941   0.39343   0.54119   0.00000  Uiso   1.00
H641   H     0.90084   0.36451   0.52540   0.00000  Uiso   1.00
H642   H     0.84736   0.66523   0.48446   0.00000  Uiso   1.00
N643   N     0.62799   0.59940   0.54114   0.00000  Uiso   1.00
H644   H     0.65852   0.59720   0.56519   0.00000  Uiso   1.00
C645   C     0.63274   0.62876   0.49500   0.00000  Uiso   1.00
H646   H     0.65057   0.60664   0.45884   0.00000  Uiso   1.00
H647   H     0.65262   0.33481   0.51563   0.00000  Uiso   1.00
H648   H     0.59914   0.63554   0.47468   0.00000  Uiso   1.00
N649   N     0.71040   0.44126   0.64283   0.00000  Uiso   1.00
H650   H     0.70188   0.44263   0.59946   0.00000  Uiso   1.00
C651   C     0.66946   0.42469   0.66523   0.00000  Uiso   1.00
H652   H     0.64967   0.39084   0.63071   0.00000  Uiso   1.00
H653   H     0.64811   0.45765   0.33967   0.00000  Uiso   1.00
H654   H     0.67654   0.40994   0.37297   0.00000  Uiso   1.00
N655   N     0.78959   0.55875   0.35717   0.00000  Uiso   1.00
H656   H     0.79812   0.55737   0.40054   0.00000  Uiso   1.00
C657   C     0.83053   0.57533   0.33476   0.00000  Uiso   1.00
H658   H     0.85032   0.60915   0.36930   0.00000  Uiso   1.00
H659   H     0.82342   0.59012   0.62705   0.00000  Uiso   1.00
H660   H     0.85187   0.54237   0.66027   0.00000  Uiso   1.00
C661   C     0.24839   0.73334   0.48436   0.00000  Uiso   1.00
C662   C     0.25160   0.93332   0.51564   0.00000  Uiso   1.00
C663   C     0.01365   0.73838   0.45615   0.00000  Uiso   1.00
C664   C     0.48636   0.92829   0.54386   0.00000  Uiso   1.00
C665   C     0.24775   0.67709   0.47593   0.00000  Uiso   1.00
C666   C     0.25224   0.98957   0.52407   0.00000  Uiso   1.00
C667   C     0.16480   0.83397   0.49990   0.00000  Uiso   1.00
C668   C     0.33520   0.83270   0.50010   0.00000  Uiso   1.00
C669   C     0.41161   0.87908   0.52214   0.00000  Uiso   1.00
C670   C     0.08839   0.78759   0.47786   0.00000  Uiso   1.00
C671   C     0.38333   0.83128   0.50023   0.00000  Uiso   1.00
C672   C     0.11667   0.83539   0.49977   0.00000  Uiso   1.00
C673   C     0.40101   0.78305   0.47901   0.00000  Uiso   1.00
C674   C     0.09899   0.88362   0.52099   0.00000  Uiso   1.00
C675   C     0.44800   0.78383   0.47850   0.00000  Uiso   1.00
C676   C     0.05200   0.88284   0.52151   0.00000  Uiso   1.00
C677   C     0.47650   0.83266   0.50020   0.00000  Uiso   1.00
C678   C     0.02350   0.83401   0.49981   0.00000  Uiso   1.00
C679   C     0.45808   0.88021   0.52223   0.00000  Uiso   1.00
C680   C     0.04192   0.78646   0.47777   0.00000  Uiso   1.00
C681   C     0.46714   0.73705   0.45623   0.00000  Uiso   1.00
C682   C     0.03286   0.92962   0.54378   0.00000  Uiso   1.00
Cu683  Cu    0.25500   0.83913   0.56146   0.00000  Uiso   1.00
Cu684  Cu    0.24499   0.82754   0.43854   0.00000  Uiso   1.00
H685   H     0.39717   0.91557   0.53860   0.00000  Uiso   1.00
H686   H     0.10283   0.75110   0.46140   0.00000  Uiso   1.00
H687   H     0.44636   0.69917   0.43860   0.00000  Uiso   1.00
H688   H     0.05364   0.96750   0.56142   0.00000  Uiso   1.00
H689   H     0.02753   0.70170   0.43908   0.00000  Uiso   1.00
H690   H     0.47247   0.96497   0.56094   0.00000  Uiso   1.00
H691   H     0.24370   0.98613   0.42980   0.00000  Uiso   1.00
H692   H     0.25629   0.68054   0.57020   0.00000  Uiso   1.00
N693   N     0.23744   0.81881   0.34617   0.00000  Uiso   1.00
N694   N     0.26255   0.84786   0.65383   0.00000  Uiso   1.00
O695   O     0.25325   0.76204   0.53992   0.00000  Uiso   1.00
O696   O     0.24674   0.90462   0.46008   0.00000  Uiso   1.00
O697   O     0.24480   0.75226   0.43612   0.00000  Uiso   1.00
O698   O     0.25520   0.91441   0.56388   0.00000  Uiso   1.00
O699   O     0.18935   0.83821   0.55191   0.00000  Uiso   1.00
O700   O     0.31064   0.82845   0.44809   0.00000  Uiso   1.00
O701   O     0.18090   0.82843   0.44810   0.00000  Uiso   1.00
O702   O     0.31910   0.83824   0.55190   0.00000  Uiso   1.00
N703   N     0.37201   0.73394   0.45888   0.00000  Uiso   1.00
H704   H     0.34149   0.73613   0.43481   0.00000  Uiso   1.00
C705   C     0.36724   0.70462   0.50505   0.00000  Uiso   1.00
H706   H     0.34941   0.72677   0.54119   0.00000  Uiso   1.00
H707   H     0.40084   0.69784   0.52540   0.00000  Uiso   1.00
H708   H     0.34736   0.99856   0.48446   0.00000  Uiso   1.00
N709   N     0.12799   0.93273   0.54114   0.00000  Uiso   1.00
H710   H     0.15852   0.93053   0.56519   0.00000  Uiso   1.00
C711   C     0.13274   0.96209   0.49500   0.00000  Uiso   1.00
H712   H     0.15057   0.93997   0.45884   0.00000  Uiso   1.00
H713   H     0.15262   0.66815   0.51563   0.00000  Uiso   1.00
H714   H     0.09914   0.96887   0.47468   0.00000  Uiso   1.00
N715   N     0.21040   0.77459   0.64283   0.00000  Uiso   1.00
H716   H     0.20188   0.77596   0.59946   0.00000  Uiso   1.00
C717   C     0.16946   0.75802   0.66523   0.00000  Uiso   1.00
H718   H     0.14967   0.72418   0.63071   0.00000  Uiso   1.00
H719   H     0.14811   0.79098   0.33967   0.00000  Uiso   1.00
H720   H     0.17654   0.74327   0.37297   0.00000  Uiso   1.00
N721   N     0.28959   0.89208   0.35717   0.00000  Uiso   1.00
H722   H     0.29812   0.89070   0.40054   0.00000  Uiso   1.00
C723   C     0.33053   0.90866   0.33476   0.00000  Uiso   1.00
H724   H     0.35032   0.94249   0.36930   0.00000  Uiso   1.00
H725   H     0.32342   0.92345   0.62705   0.00000  Uiso   1.00
H726   H     0.35187   0.87570   0.66027   0.00000  Uiso   1.00
C727   C     0.74839   0.73334   0.48436   0.00000  Uiso   1.00
C728   C     0.75160   0.93332   0.51564   0.00000  Uiso   1.00
C729   C     0.51365   0.73838   0.45615   0.00000  Uiso   1.00
C730   C     0.98636   0.92829   0.54386   0.00000  Uiso   1.00
C731   C     0.74775   0.67709   0.47593   0.00000  Uiso   1.00
C732   C     0.75224   0.98957   0.52407   0.00000  Uiso   1.00
C733   C     0.66480   0.83397   0.49990   0.00000  Uiso   1.00
C734   C     0.83520   0.83270   0.50010   0.00000  Uiso   1.00
C735   C     0.91161   0.87908   0.52214   0.00000  Uiso   1.00
C736   C     0.58839   0.78759   0.47786   0.00000  Uiso   1.00
C737   C     0.88333   0.83128   0.50023   0.00000  Uiso   1.00
C738   C     0.61667   0.83539   0.49977   0.00000  Uiso   1.00
C739   C     0.90101   0.78305   0.47901   0.00000  Uiso   1.00
C740   C     0.59899   0.88362   0.52099   0.00000  Uiso   1.00
C741   C     0.94800   0.78383   0.47850   0.00000  Uiso   1.00
C742   C     0.55200   0.88284   0.52151   0.00000  Uiso   1.00
C743   C     0.97650   0.83266   0.50020   0.00000  Uiso   1.00
C744   C     0.52350   0.83401   0.49981   0.00000  Uiso   1.00
C745   C     0.95808   0.88021   0.52223   0.00000  Uiso   1.00
C746   C     0.54192   0.78646   0.47777   0.00000  Uiso   1.00
C747   C     0.96714   0.73705   0.45623   0.00000  Uiso   1.00
C748   C     0.53286   0.92962   0.54378   0.00000  Uiso   1.00
Cu749  Cu    0.75500   0.83913   0.56146   0.00000  Uiso   1.00
Cu750  Cu    0.74499   0.82754   0.43854   0.00000  Uiso   1.00
H751   H     0.89717   0.91557   0.53860   0.00000  Uiso   1.00
H752   H     0.60283   0.75110   0.46140   0.00000  Uiso   1.00
H753   H     0.94636   0.69917   0.43860   0.00000  Uiso   1.00
H754   H     0.55364   0.96750   0.56142   0.00000  Uiso   1.00
H755   H     0.52753   0.70170   0.43908   0.00000  Uiso   1.00
H756   H     0.97247   0.96497   0.56094   0.00000  Uiso   1.00
H757   H     0.74370   0.98613   0.42980   0.00000  Uiso   1.00
H758   H     0.75629   0.68054   0.57020   0.00000  Uiso   1.00
N759   N     0.73744   0.81881   0.34617   0.00000  Uiso   1.00
N760   N     0.76255   0.84786   0.65383   0.00000  Uiso   1.00
O761   O     0.75325   0.76204   0.53992   0.00000  Uiso   1.00
O762   O     0.74674   0.90462   0.46008   0.00000  Uiso   1.00
O763   O     0.74480   0.75226   0.43612   0.00000  Uiso   1.00
O764   O     0.75520   0.91441   0.56388   0.00000  Uiso   1.00
O765   O     0.68935   0.83821   0.55191   0.00000  Uiso   1.00
O766   O     0.81064   0.82845   0.44809   0.00000  Uiso   1.00
O767   O     0.68090   0.82843   0.44810   0.00000  Uiso   1.00
O768   O     0.81910   0.83824   0.55190   0.00000  Uiso   1.00
N769   N     0.87201   0.73394   0.45888   0.00000  Uiso   1.00
H770   H     0.84149   0.73613   0.43481   0.00000  Uiso   1.00
C771   C     0.86724   0.70462   0.50505   0.00000  Uiso   1.00
H772   H     0.84941   0.72677   0.54119   0.00000  Uiso   1.00
H773   H     0.90084   0.69784   0.52540   0.00000  Uiso   1.00
H774   H     0.84736   0.99856   0.48446   0.00000  Uiso   1.00
N775   N     0.62799   0.93273   0.54114   0.00000  Uiso   1.00
H776   H     0.65852   0.93053   0.56519   0.00000  Uiso   1.00
C777   C     0.63274   0.96209   0.49500   0.00000  Uiso   1.00
H778   H     0.65057   0.93997   0.45884   0.00000  Uiso   1.00
H779   H     0.65262   0.66815   0.51563   0.00000  Uiso   1.00
H780   H     0.59914   0.96887   0.47468   0.00000  Uiso   1.00
N781   N     0.71040   0.77459   0.64283   0.00000  Uiso   1.00
H782   H     0.70188   0.77596   0.59946   0.00000  Uiso   1.00
C783   C     0.66946   0.75802   0.66523   0.00000  Uiso   1.00
H784   H     0.64967   0.72418   0.63071   0.00000  Uiso   1.00
H785   H     0.64811   0.79098   0.33967   0.00000  Uiso   1.00
H786   H     0.67654   0.74327   0.37297   0.00000  Uiso   1.00
N787   N     0.78959   0.89208   0.35717   0.00000  Uiso   1.00
H788   H     0.79812   0.89070   0.40054   0.00000  Uiso   1.00
C789   C     0.83053   0.90866   0.33476   0.00000  Uiso   1.00
H790   H     0.85032   0.94249   0.36930   0.00000  Uiso   1.00
H791   H     0.82342   0.92345   0.62705   0.00000  Uiso   1.00
H792   H     0.85187   0.87570   0.66027   0.00000  Uiso   1.00
C793   C     0.24839   0.06668   0.81769   0.00000  Uiso   1.00
C794   C     0.25160   0.26666   0.84897   0.00000  Uiso   1.00
C795   C     0.01365   0.07171   0.78949   0.00000  Uiso   1.00
C796   C     0.48636   0.26162   0.87719   0.00000  Uiso   1.00
C797   C     0.24775   0.01043   0.80926   0.00000  Uiso   1.00
C798   C     0.25224   0.32290   0.85740   0.00000  Uiso   1.00
C799   C     0.16480   0.16730   0.83323   0.00000  Uiso   1.00
C800   C     0.33520   0.16604   0.83344   0.00000  Uiso   1.00
C801   C     0.41161   0.21242   0.85547   0.00000  Uiso   1.00
C802   C     0.08839   0.12092   0.81120   0.00000  Uiso   1.00
C803   C     0.38333   0.16461   0.83356   0.00000  Uiso   1.00
C804   C     0.11667   0.16873   0.83310   0.00000  Uiso   1.00
C805   C     0.40101   0.11638   0.81234   0.00000  Uiso   1.00
C806   C     0.09899   0.21695   0.85433   0.00000  Uiso   1.00
C807   C     0.44800   0.11717   0.81183   0.00000  Uiso   1.00
C808   C     0.05200   0.21617   0.85484   0.00000  Uiso   1.00
C809   C     0.47650   0.16600   0.83353   0.00000  Uiso   1.00
C810   C     0.02350   0.16734   0.83314   0.00000  Uiso   1.00
C811   C     0.45808   0.21354   0.85557   0.00000  Uiso   1.00
C812   C     0.04192   0.11979   0.81111   0.00000  Uiso   1.00
C813   C     0.46714   0.07038   0.78957   0.00000  Uiso   1.00
C814   C     0.03286   0.26295   0.87712   0.00000  Uiso   1.00
Cu815  Cu    0.25500   0.17246   0.89479   0.00000  Uiso   1.00
Cu816  Cu    0.24499   0.16087   0.77187   0.00000  Uiso   1.00
H817   H     0.39717   0.24890   0.87193   0.00000  Uiso   1.00
H818   H     0.10283   0.08444   0.79473   0.00000  Uiso   1.00
H819   H     0.44636   0.03250   0.77194   0.00000  Uiso   1.00
H820   H     0.05364   0.30084   0.89476   0.00000  Uiso   1.00
H821   H     0.02753   0.03504   0.77241   0.00000  Uiso   1.00
H822   H     0.47247   0.29830   0.89427   0.00000  Uiso   1.00
H823   H     0.24370   0.31946   0.76313   0.00000  Uiso   1.00
H824   H     0.25629   0.01387   0.90354   0.00000  Uiso   1.00
N825   N     0.23744   0.15214   0.67951   0.00000  Uiso   1.00
N826   N     0.26255   0.18119   0.98716   0.00000  Uiso   1.00
O827   O     0.25325   0.09538   0.87326   0.00000  Uiso   1.00
O828   O     0.24674   0.23796   0.79341   0.00000  Uiso   1.00
O829   O     0.24480   0.08559   0.76945   0.00000  Uiso   1.00
O830   O     0.25520   0.24774   0.89721   0.00000  Uiso   1.00
O831   O     0.18935   0.17155   0.88524   0.00000  Uiso   1.00
O832   O     0.31064   0.16179   0.78143   0.00000  Uiso   1.00
O833   O     0.18090   0.16176   0.78143   0.00000  Uiso   1.00
O834   O     0.31910   0.17157   0.88523   0.00000  Uiso   1.00
N835   N     0.37201   0.06727   0.79222   0.00000  Uiso   1.00
H836   H     0.34149   0.06946   0.76814   0.00000  Uiso   1.00
C837   C     0.36724   0.03795   0.83838   0.00000  Uiso   1.00
H838   H     0.34941   0.06010   0.87453   0.00000  Uiso   1.00
H839   H     0.40084   0.03117   0.85873   0.00000  Uiso   1.00
H840   H     0.34736   0.33189   0.81779   0.00000  Uiso   1.00
N841   N     0.12799   0.26606   0.87447   0.00000  Uiso   1.00
H842   H     0.15852   0.26387   0.89853   0.00000  Uiso   1.00
C843   C     0.13274   0.29543   0.82834   0.00000  Uiso   1.00
H844   H     0.15057   0.27331   0.79217   0.00000  Uiso   1.00
H845   H     0.15262   0.00148   0.84896   0.00000  Uiso   1.00
H846   H     0.09914   0.30221   0.80801   0.00000  Uiso   1.00
N847   N     0.21040   0.10792   0.97617   0.00000  Uiso   1.00
H848   H     0.20188   0.10929   0.93279   0.00000  Uiso   1.00
C849   C     0.16946   0.09136   0.99856   0.00000  Uiso   1.00
H850   H     0.14967   0.05751   0.96404   0.00000  Uiso   1.00
H851   H     0.14811   0.12432   0.67301   0.00000  Uiso   1.00
H852   H     0.17654   0.07660   0.70630   0.00000  Uiso   1.00
N853   N     0.28959   0.22541   0.69050   0.00000  Uiso   1.00
H854   H     0.29812   0.22403   0.73387   0.00000  Uiso   1.00
C855   C     0.33053   0.24200   0.66810   0.00000  Uiso   1.00
H856   H     0.35032   0.27582   0.70263   0.00000  Uiso   1.00
H857   H     0.32342   0.25679   0.96038   0.00000  Uiso   1.00
H858   H     0.35187   0.20903   0.99360   0.00000  Uiso   1.00
C859   C     0.74839   0.06668   0.81769   0.00000  Uiso   1.00
C860   C     0.75160   0.26666   0.84897   0.00000  Uiso   1.00
C861   C     0.51365   0.07171   0.78949   0.00000  Uiso   1.00
C862   C     0.98636   0.26162   0.87719   0.00000  Uiso   1.00
C863   C     0.74775   0.01043   0.80926   0.00000  Uiso   1.00
C864   C     0.75224   0.32290   0.85740   0.00000  Uiso   1.00
C865   C     0.66480   0.16730   0.83323   0.00000  Uiso   1.00
C866   C     0.83520   0.16604   0.83344   0.00000  Uiso   1.00
C867   C     0.91161   0.21242   0.85547   0.00000  Uiso   1.00
C868   C     0.58839   0.12092   0.81120   0.00000  Uiso   1.00
C869   C     0.88333   0.16461   0.83356   0.00000  Uiso   1.00
C870   C     0.61667   0.16873   0.83310   0.00000  Uiso   1.00
C871   C     0.90101   0.11638   0.81234   0.00000  Uiso   1.00
C872   C     0.59899   0.21695   0.85433   0.00000  Uiso   1.00
C873   C     0.94800   0.11717   0.81183   0.00000  Uiso   1.00
C874   C     0.55200   0.21617   0.85484   0.00000  Uiso   1.00
C875   C     0.97650   0.16600   0.83353   0.00000  Uiso   1.00
C876   C     0.52350   0.16734   0.83314   0.00000  Uiso   1.00
C877   C     0.95808   0.21354   0.85557   0.00000  Uiso   1.00
C878   C     0.54192   0.11979   0.81111   0.00000  Uiso   1.00
C879   C     0.96714   0.07038   0.78957   0.00000  Uiso   1.00
C880   C     0.53286   0.26295   0.87712   0.00000  Uiso   1.00
Cu881  Cu    0.75500   0.17246   0.89479   0.00000  Uiso   1.00
Cu882  Cu    0.74499   0.16087   0.77187   0.00000  Uiso   1.00
H883   H     0.89717   0.24890   0.87193   0.00000  Uiso   1.00
H884   H     0.60283   0.08444   0.79473   0.00000  Uiso   1.00
H885   H     0.94636   0.03250   0.77194   0.00000  Uiso   1.00
H886   H     0.55364   0.30084   0.89476   0.00000  Uiso   1.00
H887   H     0.52753   0.03504   0.77241   0.00000  Uiso   1.00
H888   H     0.97247   0.29830   0.89427   0.00000  Uiso   1.00
H889   H     0.74370   0.31946   0.76313   0.00000  Uiso   1.00
H890   H     0.75629   0.01387   0.90354   0.00000  Uiso   1.00
N891   N     0.73744   0.15214   0.67951   0.00000  Uiso   1.00
N892   N     0.76255   0.18119   0.98716   0.00000  Uiso   1.00
O893   O     0.75325   0.09538   0.87326   0.00000  Uiso   1.00
O894   O     0.74674   0.23796   0.79341   0.00000  Uiso   1.00
O895   O     0.74480   0.08559   0.76945   0.00000  Uiso   1.00
O896   O     0.75520   0.24774   0.89721   0.00000  Uiso   1.00
O897   O     0.68935   0.17155   0.88524   0.00000  Uiso   1.00
O898   O     0.81064   0.16179   0.78143   0.00000  Uiso   1.00
O899   O     0.68090   0.16176   0.78143   0.00000  Uiso   1.00
O900   O     0.81910   0.17157   0.88523   0.00000  Uiso   1.00
N901   N     0.87201   0.06727   0.79222   0.00000  Uiso   1.00
H902   H     0.84149   0.06946   0.76814   0.00000  Uiso   1.00
C903   C     0.86724   0.03795   0.83838   0.00000  Uiso   1.00
H904   H     0.84941   0.06010   0.87453   0.00000  Uiso   1.00
H905   H     0.90084   0.03117   0.85873   0.00000  Uiso   1.00
H906   H     0.84736   0.33189   0.81779   0.00000  Uiso   1.00
N907   N     0.62799   0.26606   0.87447   0.00000  Uiso   1.00
H908   H     0.65852   0.26387   0.89853   0.00000  Uiso   1.00
C909   C     0.63274   0.29543   0.82834   0.00000  Uiso   1.00
H910   H     0.65057   0.27331   0.79217   0.00000  Uiso   1.00
H911   H     0.65262   0.00148   0.84896   0.00000  Uiso   1.00
H912   H     0.59914   0.30221   0.80801   0.00000  Uiso   1.00
N913   N     0.71040   0.10792   0.97617   0.00000  Uiso   1.00
H914   H     0.70188   0.10929   0.93279   0.00000  Uiso   1.00
C915   C     0.66946   0.09136   0.99856   0.00000  Uiso   1.00
H916   H     0.64967   0.05751   0.96404   0.00000  Uiso   1.00
H917   H     0.64811   0.12432   0.67301   0.00000  Uiso   1.00
H918   H     0.67654   0.07660   0.70630   0.00000  Uiso   1.00
N919   N     0.78959   0.22541   0.69050   0.00000  Uiso   1.00
H920   H     0.79812   0.22403   0.73387   0.00000  Uiso   1.00
C921   C     0.83053   0.24200   0.66810   0.00000  Uiso   1.00
H922   H     0.85032   0.27582   0.70263   0.00000  Uiso   1.00
H923   H     0.82342   0.25679   0.96038   0.00000  Uiso   1.00
H924   H     0.85187   0.20903   0.99360   0.00000  Uiso   1.00
C925   C     0.24839   0.40001   0.81769   0.00000  Uiso   1.00
C926   C     0.25160   0.59999   0.84897   0.00000  Uiso   1.00
C927   C     0.01365   0.40505   0.78949   0.00000  Uiso   1.00
C928   C     0.48636   0.59496   0.87719   0.00000  Uiso   1.00
C929   C     0.24775   0.34376   0.80926   0.00000  Uiso   1.00
C930   C     0.25224   0.65624   0.85740   0.00000  Uiso   1.00
C931   C     0.16480   0.50063   0.83323   0.00000  Uiso   1.00
C932   C     0.33520   0.49937   0.83344   0.00000  Uiso   1.00
C933   C     0.41161   0.54575   0.85547   0.00000  Uiso   1.00
C934   C     0.08839   0.45425   0.81120   0.00000  Uiso   1.00
C935   C     0.38333   0.49795   0.83356   0.00000  Uiso   1.00
C936   C     0.11667   0.50206   0.83310   0.00000  Uiso   1.00
C937   C     0.40101   0.44972   0.81234   0.00000  Uiso   1.00
C938   C     0.09899   0.55029   0.85433   0.00000  Uiso   1.00
C939   C     0.44800   0.45050   0.81183   0.00000  Uiso   1.00
C940   C     0.05200   0.54951   0.85484   0.00000  Uiso   1.00
C941   C     0.47650   0.49933   0.83353   0.00000  Uiso   1.00
C942   C     0.02350   0.50068   0.83314   0.00000  Uiso   1.00
C943   C     0.45808   0.54688   0.85557   0.00000  Uiso   1.00
C944   C     0.04192   0.45313   0.81111   0.00000  Uiso   1.00
C945   C     0.46714   0.40372   0.78957   0.00000  Uiso   1.00
C946   C     0.03286   0.59629   0.87712   0.00000  Uiso   1.00
Cu947  Cu    0.25500   0.50579   0.89479   0.00000  Uiso   1.00
Cu948  Cu    0.24499   0.49421   0.77187   0.00000  Uiso   1.00
H949   H     0.39717   0.58224   0.87193   0.00000  Uiso   1.00
H950   H     0.10283   0.41777   0.79473   0.00000  Uiso   1.00
H951   H     0.44636   0.36583   0.77194   0.00000  Uiso   1.00
H952   H     0.05364   0.63417   0.89476   0.00000  Uiso   1.00
H953   H     0.02753   0.36837   0.77241   0.00000  Uiso   1.00
H954   H     0.47247   0.63163   0.89427   0.00000  Uiso   1.00
H955   H     0.24370   0.65280   0.76313   0.00000  Uiso   1.00
H956   H     0.25629   0.34720   0.90354   0.00000  Uiso   1.00
N957   N     0.23744   0.48547   0.67951   0.00000  Uiso   1.00
N958   N     0.26255   0.51453   0.98716   0.00000  Uiso   1.00
O959   O     0.25325   0.42871   0.87326   0.00000  Uiso   1.00
O960   O     0.24674   0.57129   0.79341   0.00000  Uiso   1.00
O961   O     0.24480   0.41892   0.76945   0.00000  Uiso   1.00
O962   O     0.25520   0.58108   0.89721   0.00000  Uiso   1.00
O963   O     0.18935   0.50488   0.88524   0.00000  Uiso   1.00
O964   O     0.31064   0.49512   0.78143   0.00000  Uiso   1.00
O965   O     0.18090   0.49510   0.78143   0.00000  Uiso   1.00
O966   O     0.31910   0.50490   0.88523   0.00000  Uiso   1.00
N967   N     0.37201   0.40060   0.79222   0.00000  Uiso   1.00
H968   H     0.34149   0.40280   0.76814   0.00000  Uiso   1.00
C969   C     0.36724   0.37128   0.83838   0.00000  Uiso   1.00
H970   H     0.34941   0.39343   0.87453   0.00000  Uiso   1.00
H971   H     0.40084   0.36451   0.85873   0.00000  Uiso   1.00
H972   H     0.34736   0.66523   0.81779   0.00000  Uiso   1.00
N973   N     0.12799   0.59940   0.87447   0.00000  Uiso   1.00
H974   H     0.15852   0.59720   0.89853   0.00000  Uiso   1.00
C975   C     0.13274   0.62876   0.82834   0.00000  Uiso   1.00
H976   H     0.15057   0.60664   0.79217   0.00000  Uiso   1.00
H977   H     0.15262   0.33481   0.84896   0.00000  Uiso   1.00
H978   H     0.09914   0.63554   0.80801   0.00000  Uiso   1.00
N979   N     0.21040   0.44126   0.97617   0.00000  Uiso   1.00
H980   H     0.20188   0.44263   0.93279   0.00000  Uiso   1.00
C981   C     0.16946   0.42469   0.99856   0.00000  Uiso   1.00
H982   H     0.14967   0.39084   0.96404   0.00000  Uiso   1.00
H983   H     0.14811   0.45765   0.67301   0.00000  Uiso   1.00
H984   H     0.17654   0.40994   0.70630   0.00000  Uiso   1.00
N985   N     0.28959   0.55875   0.69050   0.00000  Uiso   1.00
H986   H     0.29812   0.55737   0.73387   0.00000  Uiso   1.00
C987   C     0.33053   0.57533   0.66810   0.00000  Uiso   1.00
H988   H     0.35032   0.60915   0.70263   0.00000  Uiso   1.00
H989   H     0.32342   0.59012   0.96038   0.00000  Uiso   1.00
H990   H     0.35187   0.54237   0.99360   0.00000  Uiso   1.00
C991   C     0.74839   0.40001   0.81769   0.00000  Uiso   1.00
C992   C     0.75160   0.59999   0.84897   0.00000  Uiso   1.00
C993   C     0.51365   0.40505   0.78949   0.00000  Uiso   1.00
C994   C     0.98636   0.59496   0.87719   0.00000  Uiso   1.00
C995   C     0.74775   0.34376   0.80926   0.00000  Uiso   1.00
C996   C     0.75224   0.65624   0.85740   0.00000  Uiso   1.00
C997   C     0.66480   0.50063   0.83323   0.00000  Uiso   1.00
C998   C     0.83520   0.49937   0.83344   0.00000  Uiso   1.00
C999   C     0.91161   0.54575   0.85547   0.00000  Uiso   1.00
C1000  C     0.58839   0.45425   0.81120   0.00000  Uiso   1.00
C1001  C     0.88333   0.49795   0.83356   0.00000  Uiso   1.00
C1002  C     0.61667   0.50206   0.83310   0.00000  Uiso   1.00
C1003  C     0.90101   0.44972   0.81234   0.00000  Uiso   1.00
C1004  C     0.59899   0.55029   0.85433   0.00000  Uiso   1.00
C1005  C     0.94800   0.45050   0.81183   0.00000  Uiso   1.00
C1006  C     0.55200   0.54951   0.85484   0.00000  Uiso   1.00
C1007  C     0.97650   0.49933   0.83353   0.00000  Uiso   1.00
C1008  C     0.52350   0.50068   0.83314   0.00000  Uiso   1.00
C1009  C     0.95808   0.54688   0.85557   0.00000  Uiso   1.00
C1010  C     0.54192   0.45313   0.81111   0.00000  Uiso   1.00
C1011  C     0.96714   0.40372   0.78957   0.00000  Uiso   1.00
C1012  C     0.53286   0.59629   0.87712   0.00000  Uiso   1.00
Cu1013 Cu    0.75500   0.50579   0.89479   0.00000  Uiso   1.00
Cu1014 Cu    0.74499   0.49421   0.77187   0.00000  Uiso   1.00
H1015  H     0.89717   0.58224   0.87193   0.00000  Uiso   1.00
H1016  H     0.60283   0.41777   0.79473   0.00000  Uiso   1.00
H1017  H     0.94636   0.36583   0.77194   0.00000  Uiso   1.00
H1018  H     0.55364   0.63417   0.89476   0.00000  Uiso   1.00
H1019  H     0.52753   0.36837   0.77241   0.00000  Uiso   1.00
H1020  H     0.97247   0.63163   0.89427   0.00000  Uiso   1.00
H1021  H     0.74370   0.65280   0.76313   0.00000  Uiso   1.00
H1022  H     0.75629   0.34720   0.90354   0.00000  Uiso   1.00
N1023  N     0.73744   0.48547   0.67951   0.00000  Uiso   1.00
N1024  N     0.76255   0.51453   0.98716   0.00000  Uiso   1.00
O1025  O     0.75325   0.42871   0.87326   0.00000  Uiso   1.00
O1026  O     0.74674   0.57129   0.79341   0.00000  Uiso   1.00
O1027  O     0.74480   0.41892   0.76945   0.00000  Uiso   1.00
O1028  O     0.75520   0.58108   0.89721   0.00000  Uiso   1.00
O1029  O     0.68935   0.50488   0.88524   0.00000  Uiso   1.00
O1030  O     0.81064   0.49512   0.78143   0.00000  Uiso   1.00
O1031  O     0.68090   0.49510   0.78143   0.00000  Uiso   1.00
O1032  O     0.81910   0.50490   0.88523   0.00000  Uiso   1.00
N1033  N     0.87201   0.40060   0.79222   0.00000  Uiso   1.00
H1034  H     0.84149   0.40280   0.76814   0.00000  Uiso   1.00
C1035  C     0.86724   0.37128   0.83838   0.00000  Uiso   1.00
H1036  H     0.84941   0.39343   0.87453   0.00000  Uiso   1.00
H1037  H     0.90084   0.36451   0.85873   0.00000  Uiso   1.00
H1038  H     0.84736   0.66523   0.81779   0.00000  Uiso   1.00
N1039  N     0.62799   0.59940   0.87447   0.00000  Uiso   1.00
H1040  H     0.65852   0.59720   0.89853   0.00000  Uiso   1.00
C1041  C     0.63274   0.62876   0.82834   0.00000  Uiso   1.00
H1042  H     0.65057   0.60664   0.79217   0.00000  Uiso   1.00
H1043  H     0.65262   0.33481   0.84896   0.00000  Uiso   1.00
H1044  H     0.59914   0.63554   0.80801   0.00000  Uiso   1.00
N1045  N     0.71040   0.44126   0.97617   0.00000  Uiso   1.00
H1046  H     0.70188   0.44263   0.93279   0.00000  Uiso   1.00
C1047  C     0.66946   0.42469   0.99856   0.00000  Uiso   1.00
H1048  H     0.64967   0.39084   0.96404   0.00000  Uiso   1.00
H1049  H     0.64811   0.45765   0.67301   0.00000  Uiso   1.00
H1050  H     0.67654   0.40994   0.70630   0.00000  Uiso   1.00
N1051  N     0.78959   0.55875   0.69050   0.00000  Uiso   1.00
H1052  H     0.79812   0.55737   0.73387   0.00000  Uiso   1.00
C1053  C     0.83053   0.57533   0.66810   0.00000  Uiso   1.00
H1054  H     0.85032   0.60915   0.70263   0.00000  Uiso   1.00
H1055  H     0.82342   0.59012   0.96038   0.00000  Uiso   1.00
H1056  H     0.85187   0.54237   0.99360   0.00000  Uiso   1.00
C1057  C     0.24839   0.73334   0.81769   0.00000  Uiso   1.00
C1058  C     0.25160   0.93332   0.84897   0.00000  Uiso   1.00
C1059  C     0.01365   0.73838   0.78949   0.00000  Uiso   1.00
C1060  C     0.48636   0.92829   0.87719   0.00000  Uiso   1.00
C1061  C     0.24775   0.67709   0.80926   0.00000  Uiso   1.00
C1062  C     0.25224   0.98957   0.85740   0.00000  Uiso   1.00
C1063  C     0.16480   0.83397   0.83323   0.00000  Uiso   1.00
C1064  C     0.33520   0.83270   0.83344   0.00000  Uiso   1.00
C1065  C     0.41161   0.87908   0.85547   0.00000  Uiso   1.00
C1066  C     0.08839   0.78759   0.81120   0.00000  Uiso   1.00
C1067  C     0.38333   0.83128   0.83356   0.00000  Uiso   1.00
C1068  C     0.11667   0.83539   0.83310   0.00000  Uiso   1.00
C1069  C     0.40101   0.78305   0.81234   0.00000  Uiso   1.00
C1070  C     0.09899   0.88362   0.85433   0.00000  Uiso   1.00
C1071  C     0.44800   0.78383   0.81183   0.00000  Uiso   1.00
C1072  C     0.05200   0.88284   0.85484   0.00000  Uiso   1.00
C1073  C     0.47650   0.83266   0.83353   0.00000  Uiso   1.00
C1074  C     0.02350   0.83401   0.83314   0.00000  Uiso   1.00
C1075  C     0.45808   0.88021   0.85557   0.00000  Uiso   1.00
C1076  C     0.04192   0.78646   0.81111   0.00000  Uiso   1.00
C1077  C     0.46714   0.73705   0.78957   0.00000  Uiso   1.00
C1078  C     0.03286   0.92962   0.87712   0.00000  Uiso   1.00
Cu1079 Cu    0.25500   0.83913   0.89479   0.00000  Uiso   1.00
Cu1080 Cu    0.24499   0.82754   0.77187   0.00000  Uiso   1.00
H1081  H     0.39717   0.91557   0.87193   0.00000  Uiso   1.00
H1082  H     0.10283   0.75110   0.79473   0.00000  Uiso   1.00
H1083  H     0.44636   0.69917   0.77194   0.00000  Uiso   1.00
H1084  H     0.05364   0.96750   0.89476   0.00000  Uiso   1.00
H1085  H     0.02753   0.70170   0.77241   0.00000  Uiso   1.00
H1086  H     0.47247   0.96497   0.89427   0.00000  Uiso   1.00
H1087  H     0.24370   0.98613   0.76313   0.00000  Uiso   1.00
H1088  H     0.25629   0.68054   0.90354   0.00000  Uiso   1.00
N1089  N     0.23744   0.81881   0.67951   0.00000  Uiso   1.00
N1090  N     0.26255   0.84786   0.98716   0.00000  Uiso   1.00
O1091  O     0.25325   0.76204   0.87326   0.00000  Uiso   1.00
O1092  O     0.24674   0.90462   0.79341   0.00000  Uiso   1.00
O1093  O     0.24480   0.75226   0.76945   0.00000  Uiso   1.00
O1094  O     0.25520   0.91441   0.89721   0.00000  Uiso   1.00
O1095  O     0.18935   0.83821   0.88524   0.00000  Uiso   1.00
O1096  O     0.31064   0.82845   0.78143   0.00000  Uiso   1.00
O1097  O     0.18090   0.82843   0.78143   0.00000  Uiso   1.00
O1098  O     0.31910   0.83824   0.88523   0.00000  Uiso   1.00
N1099  N     0.37201   0.73394   0.79222   0.00000  Uiso   1.00
H1100  H     0.34149   0.73613   0.76814   0.00000  Uiso   1.00
C1101  C     0.36724   0.70462   0.83838   0.00000  Uiso   1.00
H1102  H     0.34941   0.72677   0.87453   0.00000  Uiso   1.00
H1103  H     0.40084   0.69784   0.85873   0.00000  Uiso   1.00
H1104  H     0.34736   0.99856   0.81779   0.00000  Uiso   1.00
N1105  N     0.12799   0.93273   0.87447   0.00000  Uiso   1.00
H1106  H     0.15852   0.93053   0.89853   0.00000  Uiso   1.00
C1107  C     0.13274   0.96209   0.82834   0.00000  Uiso   1.00
H1108  H     0.15057   0.93997   0.79217   0.00000  Uiso   1.00
H1109  H     0.15262   0.66815   0.84896   0.00000  Uiso   1.00
H1110  H     0.09914   0.96887   0.80801   0.00000  Uiso   1.00
N1111  N     0.21040   0.77459   0.97617   0.00000  Uiso   1.00
H1112  H     0.20188   0.77596   0.93279   0.00000  Uiso   1.00
C1113  C     0.16946   0.75802   0.99856   0.00000  Uiso   1.00
H1114  H     0.14967   0.72418   0.96404   0.00000  Uiso   1.00
H1115  H     0.14811   0.79098   0.67301   0.00000  Uiso   1.00
H1116  H     0.17654   0.74327   0.70630   0.00000  Uiso   1.00
N1117  N     0.28959   0.89208   0.69050   0.00000  Uiso   1.00
H1118  H     0.29812   0.89070   0.73387   0.00000  Uiso   1.00
C1119  C     0.33053   0.90866   0.66810   0.00000  Uiso   1.00
H1120  H     0.35032   0.94249   0.70263   0.00000  Uiso   1.00
H1121  H     0.32342   0.92345   0.96038   0.00000  Uiso   1.00
H1122  H     0.35187   0.87570   0.99360   0.00000  Uiso   1.00
C1123  C     0.74839   0.73334   0.81769   0.00000  Uiso   1.00
C1124  C     0.75160   0.93332   0.84897   0.00000  Uiso   1.00
C1125  C     0.51365   0.73838   0.78949   0.00000  Uiso   1.00
C1126  C     0.98636   0.92829   0.87719   0.00000  Uiso   1.00
C1127  C     0.74775   0.67709   0.80926   0.00000  Uiso   1.00
C1128  C     0.75224   0.98957   0.85740   0.00000  Uiso   1.00
C1129  C     0.66480   0.83397   0.83323   0.00000  Uiso   1.00
C1130  C     0.83520   0.83270   0.83344   0.00000  Uiso   1.00
C1131  C     0.91161   0.87908   0.85547   0.00000  Uiso   1.00
C1132  C     0.58839   0.78759   0.81120   0.00000  Uiso   1.00
C1133  C     0.88333   0.83128   0.83356   0.00000  Uiso   1.00
C1134  C     0.61667   0.83539   0.83310   0.00000  Uiso   1.00
C1135  C     0.90101   0.78305   0.81234   0.00000  Uiso   1.00
C1136  C     0.59899   0.88362   0.85433   0.00000  Uiso   1.00
C1137  C     0.94800   0.78383   0.81183   0.00000  Uiso   1.00
C1138  C     0.55200   0.88284   0.85484   0.00000  Uiso   1.00
C1139  C     0.97650   0.83266   0.83353   0.00000  Uiso   1.00
C1140  C     0.52350   0.83401   0.83314   0.00000  Uiso   1.00
C1141  C     0.95808   0.88021   0.85557   0.00000  Uiso   1.00
C1142  C     0.54192   0.78646   0.81111   0.00000  Uiso   1.00
C1143  C     0.96714   0.73705   0.78957   0.00000  Uiso   1.00
C1144  C     0.53286   0.92962   0.87712   0.00000  Uiso   1.00
Cu1145 Cu    0.75500   0.83913   0.89479   0.00000  Uiso   1.00
Cu1146 Cu    0.74499   0.82754   0.77187   0.00000  Uiso   1.00
H1147  H     0.89717   0.91557   0.87193   0.00000  Uiso   1.00
H1148  H     0.60283   0.75110   0.79473   0.00000  Uiso   1.00
H1149  H     0.94636   0.69917   0.77194   0.00000  Uiso   1.00
H1150  H     0.55364   0.96750   0.89476   0.00000  Uiso   1.00
H1151  H     0.52753   0.70170   0.77241   0.00000  Uiso   1.00
H1152  H     0.97247   0.96497   0.89427   0.00000  Uiso   1.00
H1153  H     0.74370   0.98613   0.76313   0.00000  Uiso   1.00
H1154  H     0.75629   0.68054   0.90354   0.00000  Uiso   1.00
N1155  N     0.73744   0.81881   0.67951   0.00000  Uiso   1.00
N1156  N     0.76255   0.84786   0.98716   0.00000  Uiso   1.00
O1157  O     0.75325   0.76204   0.87326   0.00000  Uiso   1.00
O1158  O     0.74674   0.90462   0.79341   0.00000  Uiso   1.00
O1159  O     0.74480   0.75226   0.76945   0.00000  Uiso   1.00
O1160  O     0.75520   0.91441   0.89721   0.00000  Uiso   1.00
O1161  O     0.68935   0.83821   0.88524   0.00000  Uiso   1.00
O1162  O     0.81064   0.82845   0.78143   0.00000  Uiso   1.00
O1163  O     0.68090   0.82843   0.78143   0.00000  Uiso   1.00
O1164  O     0.81910   0.83824   0.88523   0.00000  Uiso   1.00
N1165  N     0.87201   0.73394   0.79222   0.00000  Uiso   1.00
H1166  H     0.84149   0.73613   0.76814   0.00000  Uiso   1.00
C1167  C     0.86724   0.70462   0.83838   0.00000  Uiso   1.00
H1168  H     0.84941   0.72677   0.87453   0.00000  Uiso   1.00
H1169  H     0.90084   0.69784   0.85873   0.00000  Uiso   1.00
H1170  H     0.84736   0.99856   0.81779   0.00000  Uiso   1.00
N1171  N     0.62799   0.93273   0.87447   0.00000  Uiso   1.00
H1172  H     0.65852   0.93053   0.89853   0.00000  Uiso   1.00
C1173  C     0.63274   0.96209   0.82834   0.00000  Uiso   1.00
H1174  H     0.65057   0.93997   0.79217   0.00000  Uiso   1.00
H1175  H     0.65262   0.66815   0.84896   0.00000  Uiso   1.00
H1176  H     0.59914   0.96887   0.80801   0.00000  Uiso   1.00
N1177  N     0.71040   0.77459   0.97617   0.00000  Uiso   1.00
H1178  H     0.70188   0.77596   0.93279   0.00000  Uiso   1.00
C1179  C     0.66946   0.75802   0.99856   0.00000  Uiso   1.00
H1180  H     0.64967   0.72418   0.96404   0.00000  Uiso   1.00
H1181  H     0.64811   0.79098   0.67301   0.00000  Uiso   1.00
H1182  H     0.67654   0.74327   0.70630   0.00000  Uiso   1.00
N1183  N     0.78959   0.89208   0.69050   0.00000  Uiso   1.00
H1184  H     0.79812   0.89070   0.73387   0.00000  Uiso   1.00
C1185  C     0.83053   0.90866   0.66810   0.00000  Uiso   1.00
H1186  H     0.85032   0.94249   0.70263   0.00000  Uiso   1.00
H1187  H     0.82342   0.92345   0.96038   0.00000  Uiso   1.00
H1188  H     0.85187   0.87570   0.99360   0.00000  Uiso   1.00
loop_
_geom_bond_atom_site_label_1
_geom_bond_atom_site_label_2
_geom_bond_distance
_geom_bond_site_symmetry_2
_ccdc_geom_bond_type
C1     O37     1.305   .     A
C1     C5      1.430   .     S
C1     O35     1.304   .     A
C2     O38     1.305   .     A
C2     O36     1.304   .     A
C2     C6      1.430   .     S
C3     C20     1.399   .     A
C3     H29     1.084   .     S
C3     C87     1.392   1_455 S
C4     C19     1.399   .     A
C4     H30     1.084   .     S
C4     C88     1.392   .     S
C5     C270    1.334   1_545 S
C5     H295    1.087   1_545 S
C6     C137    1.334   .     S
C6     H164    1.087   .     S
C7     C12     1.447   .     S
C7     O39     1.307   .     A
C7     O41     1.309   .     A
C8     C11     1.447   .     S
C8     O42     1.309   .     A
C8     O40     1.307   .     A
C9     H25     1.086   .     S
C9     C11     1.394   .     A
C9     C19     1.391   .     A
C10    H26     1.086   .     S
C10    C12     1.394   .     A
C10    C20     1.391   .     A
C11    C13     1.412   .     A
C12    C14     1.412   .     A
C13    C15     1.408   .     A
C13    N43     1.428   .     S
C14    C16     1.408   .     A
C14    N49     1.428   .     S
C15    C17     1.417   .     A
C15    C21     1.407   .     A
C16    C18     1.417   .     A
C16    C22     1.407   .     A
C17    C19     1.411   .     A
C17    C84     1.407   .     S
C18    C20     1.411   .     A
C18    C83     1.407   1_455 S
C21    H27     1.083   .     S
C21    C69     1.392   .     S
C22    H28     1.083   .     S
C22    C70     1.392   1_455 S
Cu23   O38     1.946   .     S
Cu23   O35     1.947   .     S
Cu23   O42     1.958   .     S
Cu23   Cu24    2.739   .     S
Cu23   N34     2.058   .     S
Cu23   O39     1.955   .     S
Cu24   N33     2.058   .     S
Cu24   O37     1.946   .     S
Cu24   O41     1.958   .     S
Cu24   O36     1.947   .     S
Cu24   O40     1.955   .     S
H31    C137    1.087   .     S
H32    C270    1.087   1_545 S
N33    N826    1.292   1_554 S
N33    N847    1.388   1_554 S
N34    N429    1.292   .     S
N34    N457    1.387   .     S
N43    H44     1.030   .     S
N43    C45     1.447   .     S
C45    H46     1.111   .     S
C45    H47     1.111   .     S
C45    H312    1.110   1_545 S
H48    C177    1.110   .     S
N49    C51     1.447   .     S
N49    H50     1.030   .     S
C51    H52     1.111   .     S
C51    H54     1.111   .     S
C51    H185    1.110   .     S
H53    C315    1.110   1_545 S
N55    H56     1.007   .     S
N55    C57     1.445   .     S
N55    N429    1.388   .     S
C57    H58     1.112   .     S
C57    H455    1.111   .     S
C57    H456    1.101   .     S
H59    C849    1.111   1_554 S
H60    C849    1.101   1_554 S
N61    C63     1.445   .     S
N61    H62     1.007   .     S
N61    N826    1.387   1_554 S
C63    H64     1.112   .     S
C63    H857    1.101   1_554 S
C63    H858    1.111   1_554 S
H65    C459    1.101   .     S
H66    C459    1.111   .     S
C67    O103    1.305   .     A
C67    C71     1.430   .     S
C67    O101    1.304   .     A
C68    O104    1.305   .     A
C68    O102    1.304   .     A
C68    C72     1.430   .     S
C69    C86     1.399   .     A
C69    H95     1.084   .     S
C70    C85     1.399   .     A
C70    H96     1.084   .     S
C70    C22     1.392   1_655 S
C71    C336    1.334   1_545 S
C71    H361    1.087   1_545 S
C72    C203    1.334   .     S
C72    H230    1.087   .     S
C73    C78     1.447   .     S
C73    O105    1.307   .     A
C73    O107    1.309   .     A
C74    C77     1.447   .     S
C74    O108    1.309   .     A
C74    O106    1.307   .     A
C75    H91     1.086   .     S
C75    C77     1.394   .     A
C75    C85     1.391   .     A
C76    H92     1.086   .     S
C76    C78     1.394   .     A
C76    C86     1.391   .     A
C77    C79     1.412   .     A
C78    C80     1.412   .     A
C79    C81     1.408   .     A
C79    N109    1.428   .     S
C80    C82     1.408   .     A
C80    N115    1.428   .     S
C81    C83     1.417   .     A
C81    C87     1.407   .     A
C82    C84     1.417   .     A
C82    C88     1.407   .     A
C83    C85     1.411   .     A
C83    C18     1.407   1_655 S
C84    C86     1.411   .     A
C87    H93     1.083   .     S
C87    C3      1.392   1_655 S
C88    H94     1.083   .     S
Cu89   O104    1.946   .     S
Cu89   O101    1.947   .     S
Cu89   O108    1.958   .     S
Cu89   Cu90    2.739   .     S
Cu89   N100    2.058   .     S
Cu89   O105    1.955   .     S
Cu90   N99     2.058   .     S
Cu90   O103    1.946   .     S
Cu90   O107    1.958   .     S
Cu90   O102    1.947   .     S
Cu90   O106    1.955   .     S
H97    C203    1.087   .     S
H98    C336    1.087   1_545 S
N99    N892    1.292   1_554 S
N99    N913    1.388   1_554 S
N100   N495    1.292   .     S
N100   N523    1.387   .     S
N109   H110    1.030   .     S
N109   C111    1.447   .     S
C111   H112    1.111   .     S
C111   H113    1.111   .     S
C111   H378    1.110   1_545 S
H114   C243    1.110   .     S
N115   C117    1.447   .     S
N115   H116    1.030   .     S
C117   H118    1.111   .     S
C117   H120    1.111   .     S
C117   H251    1.110   .     S
H119   C381    1.110   1_545 S
N121   H122    1.007   .     S
N121   C123    1.445   .     S
N121   N495    1.388   .     S
C123   H124    1.112   .     S
C123   H521    1.111   .     S
C123   H522    1.101   .     S
H125   C915    1.111   1_554 S
H126   C915    1.101   1_554 S
N127   C129    1.445   .     S
N127   H128    1.007   .     S
N127   N892    1.387   1_554 S
C129   H130    1.112   .     S
C129   H923    1.101   1_554 S
C129   H924    1.111   1_554 S
H131   C525    1.101   .     S
H132   C525    1.111   .     S
C133   O169    1.305   .     A
C133   C137    1.430   .     S
C133   O167    1.304   .     A
C134   O170    1.305   .     A
C134   O168    1.304   .     A
C134   C138    1.430   .     S
C135   C152    1.399   .     A
C135   H161    1.084   .     S
C135   C219    1.392   1_455 S
C136   C151    1.399   .     A
C136   H162    1.084   .     S
C136   C220    1.392   .     S
C138   C269    1.334   .     S
C138   H296    1.087   .     S
C139   C144    1.447   .     S
C139   O171    1.307   .     A
C139   O173    1.309   .     A
C140   C143    1.447   .     S
C140   O174    1.309   .     A
C140   O172    1.307   .     A
C141   H157    1.086   .     S
C141   C143    1.394   .     A
C141   C151    1.391   .     A
C142   H158    1.086   .     S
C142   C144    1.394   .     A
C142   C152    1.391   .     A
C143   C145    1.412   .     A
C144   C146    1.412   .     A
C145   C147    1.408   .     A
C145   N175    1.428   .     S
C146   C148    1.408   .     A
C146   N181    1.428   .     S
C147   C149    1.417   .     A
C147   C153    1.407   .     A
C148   C150    1.417   .     A
C148   C154    1.407   .     A
C149   C151    1.411   .     A
C149   C216    1.407   .     S
C150   C152    1.411   .     A
C150   C215    1.407   1_455 S
C153   H159    1.083   .     S
C153   C201    1.392   .     S
C154   H160    1.083   .     S
C154   C202    1.392   1_455 S
Cu155  O170    1.946   .     S
Cu155  O167    1.947   .     S
Cu155  O174    1.958   .     S
Cu155  Cu156   2.739   .     S
Cu155  N166    2.058   .     S
Cu155  O171    1.955   .     S
Cu156  N165    2.058   .     S
Cu156  O169    1.946   .     S
Cu156  O173    1.958   .     S
Cu156  O168    1.947   .     S
Cu156  O172    1.955   .     S
H163   C269    1.087   .     S
N165   N958    1.292   1_554 S
N165   N979    1.388   1_554 S
N166   N561    1.292   .     S
N166   N589    1.387   .     S
N175   H176    1.030   .     S
N175   C177    1.447   .     S
C177   H178    1.111   .     S
C177   H179    1.111   .     S
H180   C309    1.110   .     S
N181   C183    1.447   .     S
N181   H182    1.030   .     S
C183   H184    1.111   .     S
C183   H186    1.111   .     S
C183   H317    1.110   .     S
N187   H188    1.007   .     S
N187   C189    1.445   .     S
N187   N561    1.388   .     S
C189   H190    1.112   .     S
C189   H587    1.111   .     S
C189   H588    1.101   .     S
H191   C981    1.111   1_554 S
H192   C981    1.101   1_554 S
N193   C195    1.445   .     S
N193   H194    1.007   .     S
N193   N958    1.387   1_554 S
C195   H196    1.112   .     S
C195   H989    1.101   1_554 S
C195   H990    1.111   1_554 S
H197   C591    1.101   .     S
H198   C591    1.111   .     S
C199   O235    1.305   .     A
C199   C203    1.430   .     S
C199   O233    1.304   .     A
C200   O236    1.305   .     A
C200   O234    1.304   .     A
C200   C204    1.430   .     S
C201   C218    1.399   .     A
C201   H227    1.084   .     S
C202   C217    1.399   .     A
C202   H228    1.084   .     S
C202   C154    1.392   1_655 S
C204   C335    1.334   .     S
C204   H362    1.087   .     S
C205   C210    1.447   .     S
C205   O237    1.307   .     A
C205   O239    1.309   .     A
C206   C209    1.447   .     S
C206   O240    1.309   .     A
C206   O238    1.307   .     A
C207   H223    1.086   .     S
C207   C209    1.394   .     A
C207   C217    1.391   .     A
C208   H224    1.086   .     S
C208   C210    1.394   .     A
C208   C218    1.391   .     A
C209   C211    1.412   .     A
C210   C212    1.412   .     A
C211   C213    1.408   .     A
C211   N241    1.428   .     S
C212   C214    1.408   .     A
C212   N247    1.428   .     S
C213   C215    1.417   .     A
C213   C219    1.407   .     A
C214   C216    1.417   .     A
C214   C220    1.407   .     A
C215   C217    1.411   .     A
C215   C150    1.407   1_655 S
C216   C218    1.411   .     A
C219   H225    1.083   .     S
C219   C135    1.392   1_655 S
C220   H226    1.083   .     S
Cu221  O236    1.946   .     S
Cu221  O233    1.947   .     S
Cu221  O240    1.958   .     S
Cu221  Cu222   2.739   .     S
Cu221  N232    2.058   .     S
Cu221  O237    1.955   .     S
Cu222  N231    2.058   .     S
Cu222  O235    1.946   .     S
Cu222  O239    1.958   .     S
Cu222  O234    1.947   .     S
Cu222  O238    1.955   .     S
H229   C335    1.087   .     S
N231   N1024   1.292   1_554 S
N231   N1045   1.388   1_554 S
N232   N627    1.292   .     S
N232   N655    1.387   .     S
N241   H242    1.030   .     S
N241   C243    1.447   .     S
C243   H244    1.111   .     S
C243   H245    1.111   .     S
H246   C375    1.110   .     S
N247   C249    1.447   .     S
N247   H248    1.030   .     S
C249   H250    1.111   .     S
C249   H252    1.111   .     S
C249   H383    1.110   .     S
N253   H254    1.007   .     S
N253   C255    1.445   .     S
N253   N627    1.388   .     S
C255   H256    1.112   .     S
C255   H653    1.111   .     S
C255   H654    1.101   .     S
H257   C1047   1.111   1_554 S
H258   C1047   1.101   1_554 S
N259   C261    1.445   .     S
N259   H260    1.007   .     S
N259   N1024   1.387   1_554 S
C261   H262    1.112   .     S
C261   H1055   1.101   1_554 S
C261   H1056   1.111   1_554 S
H263   C657    1.101   .     S
H264   C657    1.111   .     S
C265   O301    1.305   .     A
C265   C269    1.430   .     S
C265   O299    1.304   .     A
C266   O302    1.305   .     A
C266   O300    1.304   .     A
C266   C270    1.430   .     S
C267   C284    1.399   .     A
C267   H293    1.084   .     S
C267   C351    1.392   1_455 S
C268   C283    1.399   .     A
C268   H294    1.084   .     S
C268   C352    1.392   .     S
C270   C5      1.334   1_565 S
C270   H32     1.087   1_565 S
C271   C276    1.447   .     S
C271   O303    1.307   .     A
C271   O305    1.309   .     A
C272   C275    1.447   .     S
C272   O306    1.309   .     A
C272   O304    1.307   .     A
C273   H289    1.086   .     S
C273   C275    1.394   .     A
C273   C283    1.391   .     A
C274   H290    1.086   .     S
C274   C276    1.394   .     A
C274   C284    1.391   .     A
C275   C277    1.412   .     A
C276   C278    1.412   .     A
C277   C279    1.408   .     A
C277   N307    1.428   .     S
C278   C280    1.408   .     A
C278   N313    1.428   .     S
C279   C281    1.417   .     A
C279   C285    1.407   .     A
C280   C282    1.417   .     A
C280   C286    1.407   .     A
C281   C283    1.411   .     A
C281   C348    1.407   .     S
C282   C284    1.411   .     A
C282   C347    1.407   1_455 S
C285   H291    1.083   .     S
C285   C333    1.392   .     S
C286   H292    1.083   .     S
C286   C334    1.392   1_455 S
Cu287  O302    1.946   .     S
Cu287  O299    1.947   .     S
Cu287  O306    1.958   .     S
Cu287  Cu288   2.739   .     S
Cu287  N298    2.058   .     S
Cu287  O303    1.955   .     S
Cu288  N297    2.058   .     S
Cu288  O301    1.946   .     S
Cu288  O305    1.958   .     S
Cu288  O300    1.947   .     S
Cu288  O304    1.955   .     S
H295   C5      1.087   1_565 S
N297   N1090   1.292   1_554 S
N297   N1111   1.388   1_554 S
N298   N693    1.292   .     S
N298   N721    1.387   .     S
N307   H308    1.030   .     S
N307   C309    1.447   .     S
C309   H310    1.111   .     S
C309   H311    1.111   .     S
H312   C45     1.110   1_565 S
N313   C315    1.447   .     S
N313   H314    1.030   .     S
C315   H316    1.111   .     S
C315   H318    1.111   .     S
C315   H53     1.110   1_565 S
N319   H320    1.007   .     S
N319   C321    1.445   .     S
N319   N693    1.388   .     S
C321   H322    1.112   .     S
C321   H719    1.111   .     S
C321   H720    1.101   .     S
H323   C1113   1.111   1_554 S
H324   C1113   1.101   1_554 S
N325   C327    1.445   .     S
N325   H326    1.007   .     S
N325   N1090   1.387   1_554 S
C327   H328    1.112   .     S
C327   H1121   1.101   1_554 S
C327   H1122   1.111   1_554 S
H329   C723    1.101   .     S
H330   C723    1.111   .     S
C331   O367    1.305   .     A
C331   C335    1.430   .     S
C331   O365    1.304   .     A
C332   O368    1.305   .     A
C332   O366    1.304   .     A
C332   C336    1.430   .     S
C333   C350    1.399   .     A
C333   H359    1.084   .     S
C334   C349    1.399   .     A
C334   H360    1.084   .     S
C334   C286    1.392   1_655 S
C336   C71     1.334   1_565 S
C336   H98     1.087   1_565 S
C337   C342    1.447   .     S
C337   O369    1.307   .     A
C337   O371    1.309   .     A
C338   C341    1.447   .     S
C338   O372    1.309   .     A
C338   O370    1.307   .     A
C339   H355    1.086   .     S
C339   C341    1.394   .     A
C339   C349    1.391   .     A
C340   H356    1.086   .     S
C340   C342    1.394   .     A
C340   C350    1.391   .     A
C341   C343    1.412   .     A
C342   C344    1.412   .     A
C343   C345    1.408   .     A
C343   N373    1.428   .     S
C344   C346    1.408   .     A
C344   N379    1.428   .     S
C345   C347    1.417   .     A
C345   C351    1.407   .     A
C346   C348    1.417   .     A
C346   C352    1.407   .     A
C347   C349    1.411   .     A
C347   C282    1.407   1_655 S
C348   C350    1.411   .     A
C351   H357    1.083   .     S
C351   C267    1.392   1_655 S
C352   H358    1.083   .     S
Cu353  O368    1.946   .     S
Cu353  O365    1.947   .     S
Cu353  O372    1.958   .     S
Cu353  Cu354   2.739   .     S
Cu353  N364    2.058   .     S
Cu353  O369    1.955   .     S
Cu354  N363    2.058   .     S
Cu354  O367    1.946   .     S
Cu354  O371    1.958   .     S
Cu354  O366    1.947   .     S
Cu354  O370    1.955   .     S
H361   C71     1.087   1_565 S
N363   N1156   1.292   1_554 S
N363   N1177   1.388   1_554 S
N364   N759    1.292   .     S
N364   N787    1.387   .     S
N373   H374    1.030   .     S
N373   C375    1.447   .     S
C375   H376    1.111   .     S
C375   H377    1.111   .     S
H378   C111    1.110   1_565 S
N379   C381    1.447   .     S
N379   H380    1.030   .     S
C381   H382    1.111   .     S
C381   H384    1.111   .     S
C381   H119    1.110   1_565 S
N385   H386    1.007   .     S
N385   C387    1.445   .     S
N385   N759    1.388   .     S
C387   H388    1.112   .     S
C387   H785    1.111   .     S
C387   H786    1.101   .     S
H389   C1179   1.111   1_554 S
H390   C1179   1.101   1_554 S
N391   C393    1.445   .     S
N391   H392    1.007   .     S
N391   N1156   1.387   1_554 S
C393   H394    1.112   .     S
C393   H1187   1.101   1_554 S
C393   H1188   1.111   1_554 S
H395   C789    1.101   .     S
H396   C789    1.111   .     S
C397   O433    1.305   .     A
C397   C401    1.430   .     S
C397   O431    1.304   .     A
C398   O434    1.305   .     A
C398   O432    1.304   .     A
C398   C402    1.430   .     S
C399   C416    1.399   .     A
C399   H425    1.084   .     S
C399   C483    1.392   1_455 S
C400   C415    1.399   .     A
C400   H426    1.084   .     S
C400   C484    1.392   .     S
C401   C666    1.334   1_545 S
C401   H691    1.087   1_545 S
C402   C533    1.334   .     S
C402   H560    1.087   .     S
C403   C408    1.447   .     S
C403   O435    1.307   .     A
C403   O437    1.309   .     A
C404   C407    1.447   .     S
C404   O438    1.309   .     A
C404   O436    1.307   .     A
C405   H421    1.086   .     S
C405   C407    1.394   .     A
C405   C415    1.391   .     A
C406   H422    1.086   .     S
C406   C408    1.394   .     A
C406   C416    1.391   .     A
C407   C409    1.412   .     A
C408   C410    1.412   .     A
C409   C411    1.408   .     A
C409   N439    1.428   .     S
C410   C412    1.408   .     A
C410   N445    1.428   .     S
C411   C413    1.417   .     A
C411   C417    1.407   .     A
C412   C414    1.417   .     A
C412   C418    1.407   .     A
C413   C415    1.411   .     A
C413   C480    1.407   .     S
C414   C416    1.411   .     A
C414   C479    1.407   1_455 S
C417   H423    1.083   .     S
C417   C465    1.392   .     S
C418   H424    1.083   .     S
C418   C466    1.392   1_455 S
Cu419  O434    1.946   .     S
Cu419  O431    1.947   .     S
Cu419  O438    1.958   .     S
Cu419  Cu420   2.739   .     S
Cu419  N430    2.058   .     S
Cu419  O435    1.955   .     S
Cu420  N429    2.058   .     S
Cu420  O433    1.946   .     S
Cu420  O437    1.958   .     S
Cu420  O432    1.947   .     S
Cu420  O436    1.955   .     S
H427   C533    1.087   .     S
H428   C666    1.087   1_545 S
N430   N825    1.292   .     S
N430   N853    1.387   .     S
N439   H440    1.030   .     S
N439   C441    1.447   .     S
C441   H442    1.111   .     S
C441   H443    1.111   .     S
C441   H708    1.110   1_545 S
H444   C573    1.110   .     S
N445   C447    1.447   .     S
N445   H446    1.030   .     S
C447   H448    1.111   .     S
C447   H450    1.111   .     S
C447   H581    1.110   .     S
H449   C711    1.110   1_545 S
N451   H452    1.007   .     S
N451   C453    1.445   .     S
N451   N825    1.388   .     S
C453   H454    1.112   .     S
C453   H851    1.111   .     S
C453   H852    1.101   .     S
N457   C459    1.445   .     S
N457   H458    1.007   .     S
C459   H460    1.112   .     S
H461   C855    1.101   .     S
H462   C855    1.111   .     S
C463   O499    1.305   .     A
C463   C467    1.430   .     S
C463   O497    1.304   .     A
C464   O500    1.305   .     A
C464   O498    1.304   .     A
C464   C468    1.430   .     S
C465   C482    1.399   .     A
C465   H491    1.084   .     S
C466   C481    1.399   .     A
C466   H492    1.084   .     S
C466   C418    1.392   1_655 S
C467   C732    1.334   1_545 S
C467   H757    1.087   1_545 S
C468   C599    1.334   .     S
C468   H626    1.087   .     S
C469   C474    1.447   .     S
C469   O501    1.307   .     A
C469   O503    1.309   .     A
C470   C473    1.447   .     S
C470   O504    1.309   .     A
C470   O502    1.307   .     A
C471   H487    1.086   .     S
C471   C473    1.394   .     A
C471   C481    1.391   .     A
C472   H488    1.086   .     S
C472   C474    1.394   .     A
C472   C482    1.391   .     A
C473   C475    1.412   .     A
C474   C476    1.412   .     A
C475   C477    1.408   .     A
C475   N505    1.428   .     S
C476   C478    1.408   .     A
C476   N511    1.428   .     S
C477   C479    1.417   .     A
C477   C483    1.407   .     A
C478   C480    1.417   .     A
C478   C484    1.407   .     A
C479   C481    1.411   .     A
C479   C414    1.407   1_655 S
C480   C482    1.411   .     A
C483   H489    1.083   .     S
C483   C399    1.392   1_655 S
C484   H490    1.083   .     S
Cu485  O500    1.946   .     S
Cu485  O497    1.947   .     S
Cu485  O504    1.958   .     S
Cu485  Cu486   2.739   .     S
Cu485  N496    2.058   .     S
Cu485  O501    1.955   .     S
Cu486  N495    2.058   .     S
Cu486  O499    1.946   .     S
Cu486  O503    1.958   .     S
Cu486  O498    1.947   .     S
Cu486  O502    1.955   .     S
H493   C599    1.087   .     S
H494   C732    1.087   1_545 S
N496   N891    1.292   .     S
N496   N919    1.387   .     S
N505   H506    1.030   .     S
N505   C507    1.447   .     S
C507   H508    1.111   .     S
C507   H509    1.111   .     S
C507   H774    1.110   1_545 S
H510   C639    1.110   .     S
N511   C513    1.447   .     S
N511   H512    1.030   .     S
C513   H514    1.111   .     S
C513   H516    1.111   .     S
C513   H647    1.110   .     S
H515   C777    1.110   1_545 S
N517   H518    1.007   .     S
N517   C519    1.445   .     S
N517   N891    1.388   .     S
C519   H520    1.112   .     S
C519   H917    1.111   .     S
C519   H918    1.101   .     S
N523   C525    1.445   .     S
N523   H524    1.007   .     S
C525   H526    1.112   .     S
H527   C921    1.101   .     S
H528   C921    1.111   .     S
C529   O565    1.305   .     A
C529   C533    1.430   .     S
C529   O563    1.304   .     A
C530   O566    1.305   .     A
C530   O564    1.304   .     A
C530   C534    1.430   .     S
C531   C548    1.399   .     A
C531   H557    1.084   .     S
C531   C615    1.392   1_455 S
C532   C547    1.399   .     A
C532   H558    1.084   .     S
C532   C616    1.392   .     S
C534   C665    1.334   .     S
C534   H692    1.087   .     S
C535   C540    1.447   .     S
C535   O567    1.307   .     A
C535   O569    1.309   .     A
C536   C539    1.447   .     S
C536   O570    1.309   .     A
C536   O568    1.307   .     A
C537   H553    1.086   .     S
C537   C539    1.394   .     A
C537   C547    1.391   .     A
C538   H554    1.086   .     S
C538   C540    1.394   .     A
C538   C548    1.391   .     A
C539   C541    1.412   .     A
C540   C542    1.412   .     A
C541   C543    1.408   .     A
C541   N571    1.428   .     S
C542   C544    1.408   .     A
C542   N577    1.428   .     S
C543   C545    1.417   .     A
C543   C549    1.407   .     A
C544   C546    1.417   .     A
C544   C550    1.407   .     A
C545   C547    1.411   .     A
C545   C612    1.407   .     S
C546   C548    1.411   .     A
C546   C611    1.407   1_455 S
C549   H555    1.083   .     S
C549   C597    1.392   .     S
C550   H556    1.083   .     S
C550   C598    1.392   1_455 S
Cu551  O566    1.946   .     S
Cu551  O563    1.947   .     S
Cu551  O570    1.958   .     S
Cu551  Cu552   2.739   .     S
Cu551  N562    2.058   .     S
Cu551  O567    1.955   .     S
Cu552  N561    2.058   .     S
Cu552  O565    1.946   .     S
Cu552  O569    1.958   .     S
Cu552  O564    1.947   .     S
Cu552  O568    1.955   .     S
H559   C665    1.087   .     S
N562   N957    1.292   .     S
N562   N985    1.387   .     S
N571   H572    1.030   .     S
N571   C573    1.447   .     S
C573   H574    1.111   .     S
C573   H575    1.111   .     S
H576   C705    1.110   .     S
N577   C579    1.447   .     S
N577   H578    1.030   .     S
C579   H580    1.111   .     S
C579   H582    1.111   .     S
C579   H713    1.110   .     S
N583   H584    1.007   .     S
N583   C585    1.445   .     S
N583   N957    1.388   .     S
C585   H586    1.112   .     S
C585   H983    1.111   .     S
C585   H984    1.101   .     S
N589   C591    1.445   .     S
N589   H590    1.007   .     S
C591   H592    1.112   .     S
H593   C987    1.101   .     S
H594   C987    1.111   .     S
C595   O631    1.305   .     A
C595   C599    1.430   .     S
C595   O629    1.304   .     A
C596   O632    1.305   .     A
C596   O630    1.304   .     A
C596   C600    1.430   .     S
C597   C614    1.399   .     A
C597   H623    1.084   .     S
C598   C613    1.399   .     A
C598   H624    1.084   .     S
C598   C550    1.392   1_655 S
C600   C731    1.334   .     S
C600   H758    1.087   .     S
C601   C606    1.447   .     S
C601   O633    1.307   .     A
C601   O635    1.309   .     A
C602   C605    1.447   .     S
C602   O636    1.309   .     A
C602   O634    1.307   .     A
C603   H619    1.086   .     S
C603   C605    1.394   .     A
C603   C613    1.391   .     A
C604   H620    1.086   .     S
C604   C606    1.394   .     A
C604   C614    1.391   .     A
C605   C607    1.412   .     A
C606   C608    1.412   .     A
C607   C609    1.408   .     A
C607   N637    1.428   .     S
C608   C610    1.408   .     A
C608   N643    1.428   .     S
C609   C611    1.417   .     A
C609   C615    1.407   .     A
C610   C612    1.417   .     A
C610   C616    1.407   .     A
C611   C613    1.411   .     A
C611   C546    1.407   1_655 S
C612   C614    1.411   .     A
C615   H621    1.083   .     S
C615   C531    1.392   1_655 S
C616   H622    1.083   .     S
Cu617  O632    1.946   .     S
Cu617  O629    1.947   .     S
Cu617  O636    1.958   .     S
Cu617  Cu618   2.739   .     S
Cu617  N628    2.058   .     S
Cu617  O633    1.955   .     S
Cu618  N627    2.058   .     S
Cu618  O631    1.946   .     S
Cu618  O635    1.958   .     S
Cu618  O630    1.947   .     S
Cu618  O634    1.955   .     S
H625   C731    1.087   .     S
N628   N1023   1.292   .     S
N628   N1051   1.387   .     S
N637   H638    1.030   .     S
N637   C639    1.447   .     S
C639   H640    1.111   .     S
C639   H641    1.111   .     S
H642   C771    1.110   .     S
N643   C645    1.447   .     S
N643   H644    1.030   .     S
C645   H646    1.111   .     S
C645   H648    1.111   .     S
C645   H779    1.110   .     S
N649   H650    1.007   .     S
N649   C651    1.445   .     S
N649   N1023   1.388   .     S
C651   H652    1.112   .     S
C651   H1049   1.111   .     S
C651   H1050   1.101   .     S
N655   C657    1.445   .     S
N655   H656    1.007   .     S
C657   H658    1.112   .     S
H659   C1053   1.101   .     S
H660   C1053   1.111   .     S
C661   O697    1.305   .     A
C661   C665    1.430   .     S
C661   O695    1.304   .     A
C662   O698    1.305   .     A
C662   O696    1.304   .     A
C662   C666    1.430   .     S
C663   C680    1.399   .     A
C663   H689    1.084   .     S
C663   C747    1.392   1_455 S
C664   C679    1.399   .     A
C664   H690    1.084   .     S
C664   C748    1.392   .     S
C666   C401    1.334   1_565 S
C666   H428    1.087   1_565 S
C667   C672    1.447   .     S
C667   O699    1.307   .     A
C667   O701    1.309   .     A
C668   C671    1.447   .     S
C668   O702    1.309   .     A
C668   O700    1.307   .     A
C669   H685    1.086   .     S
C669   C671    1.394   .     A
C669   C679    1.391   .     A
C670   H686    1.086   .     S
C670   C672    1.394   .     A
C670   C680    1.391   .     A
C671   C673    1.412   .     A
C672   C674    1.412   .     A
C673   C675    1.408   .     A
C673   N703    1.428   .     S
C674   C676    1.408   .     A
C674   N709    1.428   .     S
C675   C677    1.417   .     A
C675   C681    1.407   .     A
C676   C678    1.417   .     A
C676   C682    1.407   .     A
C677   C679    1.411   .     A
C677   C744    1.407   .     S
C678   C680    1.411   .     A
C678   C743    1.407   1_455 S
C681   H687    1.083   .     S
C681   C729    1.392   .     S
C682   H688    1.083   .     S
C682   C730    1.392   1_455 S
Cu683  O698    1.946   .     S
Cu683  O695    1.947   .     S
Cu683  O702    1.958   .     S
Cu683  Cu684   2.739   .     S
Cu683  N694    2.058   .     S
Cu683  O699    1.955   .     S
Cu684  N693    2.058   .     S
Cu684  O697    1.946   .     S
Cu684  O701    1.958   .     S
Cu684  O696    1.947   .     S
Cu684  O700    1.955   .     S
H691   C401    1.087   1_565 S
N694   N1089   1.292   .     S
N694   N1117   1.387   .     S
N703   H704    1.030   .     S
N703   C705    1.447   .     S
C705   H706    1.111   .     S
C705   H707    1.111   .     S
H708   C441    1.110   1_565 S
N709   C711    1.447   .     S
N709   H710    1.030   .     S
C711   H712    1.111   .     S
C711   H714    1.111   .     S
C711   H449    1.110   1_565 S
N715   H716    1.007   .     S
N715   C717    1.445   .     S
N715   N1089   1.388   .     S
C717   H718    1.112   .     S
C717   H1115   1.111   .     S
C717   H1116   1.101   .     S
N721   C723    1.445   .     S
N721   H722    1.007   .     S
C723   H724    1.112   .     S
H725   C1119   1.101   .     S
H726   C1119   1.111   .     S
C727   O763    1.305   .     A
C727   C731    1.430   .     S
C727   O761    1.304   .     A
C728   O764    1.305   .     A
C728   O762    1.304   .     A
C728   C732    1.430   .     S
C729   C746    1.399   .     A
C729   H755    1.084   .     S
C730   C745    1.399   .     A
C730   H756    1.084   .     S
C730   C682    1.392   1_655 S
C732   C467    1.334   1_565 S
C732   H494    1.087   1_565 S
C733   C738    1.447   .     S
C733   O765    1.307   .     A
C733   O767    1.309   .     A
C734   C737    1.447   .     S
C734   O768    1.309   .     A
C734   O766    1.307   .     A
C735   H751    1.086   .     S
C735   C737    1.394   .     A
C735   C745    1.391   .     A
C736   H752    1.086   .     S
C736   C738    1.394   .     A
C736   C746    1.391   .     A
C737   C739    1.412   .     A
C738   C740    1.412   .     A
C739   C741    1.408   .     A
C739   N769    1.428   .     S
C740   C742    1.408   .     A
C740   N775    1.428   .     S
C741   C743    1.417   .     A
C741   C747    1.407   .     A
C742   C744    1.417   .     A
C742   C748    1.407   .     A
C743   C745    1.411   .     A
C743   C678    1.407   1_655 S
C744   C746    1.411   .     A
C747   H753    1.083   .     S
C747   C663    1.392   1_655 S
C748   H754    1.083   .     S
Cu749  O764    1.946   .     S
Cu749  O761    1.947   .     S
Cu749  O768    1.958   .     S
Cu749  Cu750   2.739   .     S
Cu749  N760    2.058   .     S
Cu749  O765    1.955   .     S
Cu750  N759    2.058   .     S
Cu750  O763    1.946   .     S
Cu750  O767    1.958   .     S
Cu750  O762    1.947   .     S
Cu750  O766    1.955   .     S
H757   C467    1.087   1_565 S
N760   N1155   1.292   .     S
N760   N1183   1.387   .     S
N769   H770    1.030   .     S
N769   C771    1.447   .     S
C771   H772    1.111   .     S
C771   H773    1.111   .     S
H774   C507    1.110   1_565 S
N775   C777    1.447   .     S
N775   H776    1.030   .     S
C777   H778    1.111   .     S
C777   H780    1.111   .     S
C777   H515    1.110   1_565 S
N781   H782    1.007   .     S
N781   C783    1.445   .     S
N781   N1155   1.388   .     S
C783   H784    1.112   .     S
C783   H1181   1.111   .     S
C783   H1182   1.101   .     S
N787   C789    1.445   .     S
N787   H788    1.007   .     S
C789   H790    1.112   .     S
H791   C1185   1.101   .     S
H792   C1185   1.111   .     S
C793   O829    1.305   .     A
C793   C797    1.430   .     S
C793   O827    1.304   .     A
C794   O830    1.305   .     A
C794   O828    1.304   .     A
C794   C798    1.430   .     S
C795   C812    1.399   .     A
C795   H821    1.084   .     S
C795   C879    1.392   1_455 S
C796   C811    1.399   .     A
C796   H822    1.084   .     S
C796   C880    1.392   .     S
C797   C1062   1.334   1_545 S
C797   H1087   1.087   1_545 S
C798   C929    1.334   .     S
C798   H956    1.087   .     S
C799   C804    1.447   .     S
C799   O831    1.307   .     A
C799   O833    1.309   .     A
C800   C803    1.447   .     S
C800   O834    1.309   .     A
C800   O832    1.307   .     A
C801   H817    1.086   .     S
C801   C803    1.394   .     A
C801   C811    1.391   .     A
C802   H818    1.086   .     S
C802   C804    1.394   .     A
C802   C812    1.391   .     A
C803   C805    1.412   .     A
C804   C806    1.412   .     A
C805   C807    1.408   .     A
C805   N835    1.428   .     S
C806   C808    1.408   .     A
C806   N841    1.428   .     S
C807   C809    1.417   .     A
C807   C813    1.407   .     A
C808   C810    1.417   .     A
C808   C814    1.407   .     A
C809   C811    1.411   .     A
C809   C876    1.407   .     S
C810   C812    1.411   .     A
C810   C875    1.407   1_455 S
C813   H819    1.083   .     S
C813   C861    1.392   .     S
C814   H820    1.083   .     S
C814   C862    1.392   1_455 S
Cu815  O830    1.946   .     S
Cu815  O827    1.947   .     S
Cu815  O834    1.958   .     S
Cu815  Cu816   2.739   .     S
Cu815  N826    2.058   .     S
Cu815  O831    1.955   .     S
Cu816  N825    2.058   .     S
Cu816  O829    1.946   .     S
Cu816  O833    1.958   .     S
Cu816  O828    1.947   .     S
Cu816  O832    1.955   .     S
H823   C929    1.087   .     S
H824   C1062   1.087   1_545 S
N826   N33     1.292   1_556 S
N826   N61     1.387   1_556 S
N835   H836    1.030   .     S
N835   C837    1.447   .     S
C837   H838    1.111   .     S
C837   H839    1.111   .     S
C837   H1104   1.110   1_545 S
H840   C969    1.110   .     S
N841   C843    1.447   .     S
N841   H842    1.030   .     S
C843   H844    1.111   .     S
C843   H846    1.111   .     S
C843   H977    1.110   .     S
H845   C1107   1.110   1_545 S
N847   H848    1.007   .     S
N847   C849    1.445   .     S
N847   N33     1.388   1_556 S
C849   H850    1.112   .     S
C849   H59     1.111   1_556 S
C849   H60     1.101   1_556 S
N853   C855    1.445   .     S
N853   H854    1.007   .     S
C855   H856    1.112   .     S
H857   C63     1.101   1_556 S
H858   C63     1.111   1_556 S
C859   O895    1.305   .     A
C859   C863    1.430   .     S
C859   O893    1.304   .     A
C860   O896    1.305   .     A
C860   O894    1.304   .     A
C860   C864    1.430   .     S
C861   C878    1.399   .     A
C861   H887    1.084   .     S
C862   C877    1.399   .     A
C862   H888    1.084   .     S
C862   C814    1.392   1_655 S
C863   C1128   1.334   1_545 S
C863   H1153   1.087   1_545 S
C864   C995    1.334   .     S
C864   H1022   1.087   .     S
C865   C870    1.447   .     S
C865   O897    1.307   .     A
C865   O899    1.309   .     A
C866   C869    1.447   .     S
C866   O900    1.309   .     A
C866   O898    1.307   .     A
C867   H883    1.086   .     S
C867   C869    1.394   .     A
C867   C877    1.391   .     A
C868   H884    1.086   .     S
C868   C870    1.394   .     A
C868   C878    1.391   .     A
C869   C871    1.412   .     A
C870   C872    1.412   .     A
C871   C873    1.408   .     A
C871   N901    1.428   .     S
C872   C874    1.408   .     A
C872   N907    1.428   .     S
C873   C875    1.417   .     A
C873   C879    1.407   .     A
C874   C876    1.417   .     A
C874   C880    1.407   .     A
C875   C877    1.411   .     A
C875   C810    1.407   1_655 S
C876   C878    1.411   .     A
C879   H885    1.083   .     S
C879   C795    1.392   1_655 S
C880   H886    1.083   .     S
Cu881  O896    1.946   .     S
Cu881  O893    1.947   .     S
Cu881  O900    1.958   .     S
Cu881  Cu882   2.739   .     S
Cu881  N892    2.058   .     S
Cu881  O897    1.955   .     S
Cu882  N891    2.058   .     S
Cu882  O895    1.946   .     S
Cu882  O899    1.958   .     S
Cu882  O894    1.947   .     S
Cu882  O898    1.955   .     S
H889   C995    1.087   .     S
H890   C1128   1.087   1_545 S
N892   N99     1.292   1_556 S
N892   N127    1.387   1_556 S
N901   H902    1.030   .     S
N901   C903    1.447   .     S
C903   H904    1.111   .     S
C903   H905    1.111   .     S
C903   H1170   1.110   1_545 S
H906   C1035   1.110   .     S
N907   C909    1.447   .     S
N907   H908    1.030   .     S
C909   H910    1.111   .     S
C909   H912    1.111   .     S
C909   H1043   1.110   .     S
H911   C1173   1.110   1_545 S
N913   H914    1.007   .     S
N913   C915    1.445   .     S
N913   N99     1.388   1_556 S
C915   H916    1.112   .     S
C915   H125    1.111   1_556 S
C915   H126    1.101   1_556 S
N919   C921    1.445   .     S
N919   H920    1.007   .     S
C921   H922    1.112   .     S
H923   C129    1.101   1_556 S
H924   C129    1.111   1_556 S
C925   O961    1.305   .     A
C925   C929    1.430   .     S
C925   O959    1.304   .     A
C926   O962    1.305   .     A
C926   O960    1.304   .     A
C926   C930    1.430   .     S
C927   C944    1.399   .     A
C927   H953    1.084   .     S
C927   C1011   1.392   1_455 S
C928   C943    1.399   .     A
C928   H954    1.084   .     S
C928   C1012   1.392   .     S
C930   C1061   1.334   .     S
C930   H1088   1.087   .     S
C931   C936    1.447   .     S
C931   O963    1.307   .     A
C931   O965    1.309   .     A
C932   C935    1.447   .     S
C932   O966    1.309   .     A
C932   O964    1.307   .     A
C933   H949    1.086   .     S
C933   C935    1.394   .     A
C933   C943    1.391   .     A
C934   H950    1.086   .     S
C934   C936    1.394   .     A
C934   C944    1.391   .     A
C935   C937    1.412   .     A
C936   C938    1.412   .     A
C937   C939    1.408   .     A
C937   N967    1.428   .     S
C938   C940    1.408   .     A
C938   N973    1.428   .     S
C939   C941    1.417   .     A
C939   C945    1.407   .     A
C940   C942    1.417   .     A
C940   C946    1.407   .     A
C941   C943    1.411   .     A
C941   C1008   1.407   .     S
C942   C944    1.411   .     A
C942   C1007   1.407   1_455 S
C945   H951    1.083   .     S
C945   C993    1.392   .     S
C946   H952    1.083   .     S
C946   C994    1.392   1_455 S
Cu947  O962    1.946   .     S
Cu947  O959    1.947   .     S
Cu947  O966    1.958   .     S
Cu947  Cu948   2.739   .     S
Cu947  N958    2.058   .     S
Cu947  O963    1.955   .     S
Cu948  N957    2.058   .     S
Cu948  O961    1.946   .     S
Cu948  O965    1.958   .     S
Cu948  O960    1.947   .     S
Cu948  O964    1.955   .     S
H955   C1061   1.087   .     S
N958   N165    1.292   1_556 S
N958   N193    1.387   1_556 S
N967   H968    1.030   .     S
N967   C969    1.447   .     S
C969   H970    1.111   .     S
C969   H971    1.111   .     S
H972   C1101   1.110   .     S
N973   C975    1.447   .     S
N973   H974    1.030   .     S
C975   H976    1.111   .     S
C975   H978    1.111   .     S
C975   H1109   1.110   .     S
N979   H980    1.007   .     S
N979   C981    1.445   .     S
N979   N165    1.388   1_556 S
C981   H982    1.112   .     S
C981   H191    1.111   1_556 S
C981   H192    1.101   1_556 S
N985   C987    1.445   .     S
N985   H986    1.007   .     S
C987   H988    1.112   .     S
H989   C195    1.101   1_556 S
H990   C195    1.111   1_556 S
C991   O1027   1.305   .     A
C991   C995    1.430   .     S
C991   O1025   1.304   .     A
C992   O1028   1.305   .     A
C992   O1026   1.304   .     A
C992   C996    1.430   .     S
C993   C1010   1.399   .     A
C993   H1019   1.084   .     S
C994   C1009   1.399   .     A
C994   H1020   1.084   .     S
C994   C946    1.392   1_655 S
C996   C1127   1.334   .     S
C996   H1154   1.087   .     S
C997   C1002   1.447   .     S
C997   O1029   1.307   .     A
C997   O1031   1.309   .     A
C998   C1001   1.447   .     S
C998   O1032   1.309   .     A
C998   O1030   1.307   .     A
C999   H1015   1.086   .     S
C999   C1001   1.394   .     A
C999   C1009   1.391   .     A
C1000  H1016   1.086   .     S
C1000  C1002   1.394   .     A
C1000  C1010   1.391   .     A
C1001  C1003   1.412   .     A
C1002  C1004   1.412   .     A
C1003  C1005   1.408   .     A
C1003  N1033   1.428   .     S
C1004  C1006   1.408   .     A
C1004  N1039   1.428   .     S
C1005  C1007   1.417   .     A
C1005  C1011   1.407   .     A
C1006  C1008   1.417   .     A
C1006  C1012   1.407   .     A
C1007  C1009   1.411   .     A
C1007  C942    1.407   1_655 S
C1008  C1010   1.411   .     A
C1011  H1017   1.083   .     S
C1011  C927    1.392   1_655 S
C1012  H1018   1.083   .     S
Cu1013 O1028   1.946   .     S
Cu1013 O1025   1.947   .     S
Cu1013 O1032   1.958   .     S
Cu1013 Cu1014  2.739   .     S
Cu1013 N1024   2.058   .     S
Cu1013 O1029   1.955   .     S
Cu1014 N1023   2.058   .     S
Cu1014 O1027   1.946   .     S
Cu1014 O1031   1.958   .     S
Cu1014 O1026   1.947   .     S
Cu1014 O1030   1.955   .     S
H1021  C1127   1.087   .     S
N1024  N231    1.292   1_556 S
N1024  N259    1.387   1_556 S
N1033  H1034   1.030   .     S
N1033  C1035   1.447   .     S
C1035  H1036   1.111   .     S
C1035  H1037   1.111   .     S
H1038  C1167   1.110   .     S
N1039  C1041   1.447   .     S
N1039  H1040   1.030   .     S
C1041  H1042   1.111   .     S
C1041  H1044   1.111   .     S
C1041  H1175   1.110   .     S
N1045  H1046   1.007   .     S
N1045  C1047   1.445   .     S
N1045  N231    1.388   1_556 S
C1047  H1048   1.112   .     S
C1047  H257    1.111   1_556 S
C1047  H258    1.101   1_556 S
N1051  C1053   1.445   .     S
N1051  H1052   1.007   .     S
C1053  H1054   1.112   .     S
H1055  C261    1.101   1_556 S
H1056  C261    1.111   1_556 S
C1057  O1093   1.305   .     A
C1057  C1061   1.430   .     S
C1057  O1091   1.304   .     A
C1058  O1094   1.305   .     A
C1058  O1092   1.304   .     A
C1058  C1062   1.430   .     S
C1059  C1076   1.399   .     A
C1059  H1085   1.084   .     S
C1059  C1143   1.392   1_455 S
C1060  C1075   1.399   .     A
C1060  H1086   1.084   .     S
C1060  C1144   1.392   .     S
C1062  C797    1.334   1_565 S
C1062  H824    1.087   1_565 S
C1063  C1068   1.447   .     S
C1063  O1095   1.307   .     A
C1063  O1097   1.309   .     A
C1064  C1067   1.447   .     S
C1064  O1098   1.309   .     A
C1064  O1096   1.307   .     A
C1065  H1081   1.086   .     S
C1065  C1067   1.394   .     A
C1065  C1075   1.391   .     A
C1066  H1082   1.086   .     S
C1066  C1068   1.394   .     A
C1066  C1076   1.391   .     A
C1067  C1069   1.412   .     A
C1068  C1070   1.412   .     A
C1069  C1071   1.408   .     A
C1069  N1099   1.428   .     S
C1070  C1072   1.408   .     A
C1070  N1105   1.428   .     S
C1071  C1073   1.417   .     A
C1071  C1077   1.407   .     A
C1072  C1074   1.417   .     A
C1072  C1078   1.407   .     A
C1073  C1075   1.411   .     A
C1073  C1140   1.407   .     S
C1074  C1076   1.411   .     A
C1074  C1139   1.407   1_455 S
C1077  H1083   1.083   .     S
C1077  C1125   1.392   .     S
C1078  H1084   1.083   .     S
C1078  C1126   1.392   1_455 S
Cu1079 O1094   1.946   .     S
Cu1079 O1091   1.947   .     S
Cu1079 O1098   1.958   .     S
Cu1079 Cu1080  2.739   .     S
Cu1079 N1090   2.058   .     S
Cu1079 O1095   1.955   .     S
Cu1080 N1089   2.058   .     S
Cu1080 O1093   1.946   .     S
Cu1080 O1097   1.958   .     S
Cu1080 O1092   1.947   .     S
Cu1080 O1096   1.955   .     S
H1087  C797    1.087   1_565 S
N1090  N297    1.292   1_556 S
N1090  N325    1.387   1_556 S
N1099  H1100   1.030   .     S
N1099  C1101   1.447   .     S
C1101  H1102   1.111   .     S
C1101  H1103   1.111   .     S
H1104  C837    1.110   1_565 S
N1105  C1107   1.447   .     S
N1105  H1106   1.030   .     S
C1107  H1108   1.111   .     S
C1107  H1110   1.111   .     S
C1107  H845    1.110   1_565 S
N1111  H1112   1.007   .     S
N1111  C1113   1.445   .     S
N1111  N297    1.388   1_556 S
C1113  H1114   1.112   .     S
C1113  H323    1.111   1_556 S
C1113  H324    1.101   1_556 S
N1117  C1119   1.445   .     S
N1117  H1118   1.007   .     S
C1119  H1120   1.112   .     S
H1121  C327    1.101   1_556 S
H1122  C327    1.111   1_556 S
C1123  O1159   1.305   .     A
C1123  C1127   1.430   .     S
C1123  O1157   1.304   .     A
C1124  O1160   1.305   .     A
C1124  O1158   1.304   .     A
C1124  C1128   1.430   .     S
C1125  C1142   1.399   .     A
C1125  H1151   1.084   .     S
C1126  C1141   1.399   .     A
C1126  H1152   1.084   .     S
C1126  C1078   1.392   1_655 S
C1128  C863    1.334   1_565 S
C1128  H890    1.087   1_565 S
C1129  C1134   1.447   .     S
C1129  O1161   1.307   .     A
C1129  O1163   1.309   .     A
C1130  C1133   1.447   .     S
C1130  O1164   1.309   .     A
C1130  O1162   1.307   .     A
C1131  H1147   1.086   .     S
C1131  C1133   1.394   .     A
C1131  C1141   1.391   .     A
C1132  H1148   1.086   .     S
C1132  C1134   1.394   .     A
C1132  C1142   1.391   .     A
C1133  C1135   1.412   .     A
C1134  C1136   1.412   .     A
C1135  C1137   1.408   .     A
C1135  N1165   1.428   .     S
C1136  C1138   1.408   .     A
C1136  N1171   1.428   .     S
C1137  C1139   1.417   .     A
C1137  C1143   1.407   .     A
C1138  C1140   1.417   .     A
C1138  C1144   1.407   .     A
C1139  C1141   1.411   .     A
C1139  C1074   1.407   1_655 S
C1140  C1142   1.411   .     A
C1143  H1149   1.083   .     S
C1143  C1059   1.392   1_655 S
C1144  H1150   1.083   .     S
Cu1145 O1160   1.946   .     S
Cu1145 O1157   1.947   .     S
Cu1145 O1164   1.958   .     S
Cu1145 Cu1146  2.739   .     S
Cu1145 N1156   2.058   .     S
Cu1145 O1161   1.955   .     S
Cu1146 N1155   2.058   .     S
Cu1146 O1159   1.946   .     S
Cu1146 O1163   1.958   .     S
Cu1146 O1158   1.947   .     S
Cu1146 O1162   1.955   .     S
H1153  C863    1.087   1_565 S
N1156  N363    1.292   1_556 S
N1156  N391    1.387   1_556 S
N1165  H1166   1.030   .     S
N1165  C1167   1.447   .     S
C1167  H1168   1.111   .     S
C1167  H1169   1.111   .     S
H1170  C903    1.110   1_565 S
N1171  C1173   1.447   .     S
N1171  H1172   1.030   .     S
C1173  H1174   1.111   .     S
C1173  H1176   1.111   .     S
C1173  H911    1.110   1_565 S
N1177  H1178   1.007   .     S
N1177  C1179   1.445   .     S
N1177  N363    1.388   1_556 S
C1179  H1180   1.112   .     S
C1179  H389    1.111   1_556 S
C1179  H390    1.101   1_556 S
N1183  C1185   1.445   .     S
N1183  H1184   1.007   .     S
C1185  H1186   1.112   .     S
H1187  C393    1.101   1_556 S
H1188  C393    1.111   1_556 S
