data_str_m2_o1_o17_pcu_sym.179
_audit_creation_date              2020-01-03
_audit_creation_method            'Materials Studio'
_symmetry_space_group_name_H-M    'P1'
_symmetry_Int_Tables_number       1
_symmetry_cell_setting            triclinic
loop_
_symmetry_equiv_pos_as_xyz
  x,y,z
_cell_length_a                    32.5243
_cell_length_b                    28.9373
_cell_length_c                    30.1563
_cell_angle_alpha                 89.7605
_cell_angle_beta                  93.5203
_cell_angle_gamma                 89.6583
loop_
_atom_site_label
_atom_site_type_symbol
_atom_site_fract_x
_atom_site_fract_y
_atom_site_fract_z
_atom_site_U_iso_or_equiv
_atom_site_adp_type
_atom_site_occupancy
C1     C     0.08754   0.16681   0.24957   0.00000  Uiso   1.00
C2     C     0.24579   0.16653   0.25043   0.00000  Uiso   1.00
C3     C     0.10975   0.22283   0.01908   0.00000  Uiso   1.00
C4     C     0.22359   0.11050   0.48092   0.00000  Uiso   1.00
C5     C     0.02363   0.13614   0.27801   0.00000  Uiso   1.00
C6     C     0.30970   0.19719   0.22198   0.00000  Uiso   1.00
C7     C     0.31388   0.13571   0.27807   0.00000  Uiso   1.00
C8     C     0.01945   0.19762   0.22192   0.00000  Uiso   1.00
C9     C     0.29049   0.16636   0.25017   0.00000  Uiso   1.00
C10    C     0.04284   0.16697   0.24982   0.00000  Uiso   1.00
C11    C     0.14623   0.02476   0.21646   0.00000  Uiso   1.00
C12    C     0.18710   0.30857   0.28354   0.00000  Uiso   1.00
C13    C     0.18703   0.02410   0.28357   0.00000  Uiso   1.00
C14    C     0.14630   0.30923   0.21643   0.00000  Uiso   1.00
C15    C     0.16668   0.16672   0.16469   0.00000  Uiso   1.00
C16    C     0.16666   0.16662   0.33531   0.00000  Uiso   1.00
C17    C     0.19841   0.14333   0.40877   0.00000  Uiso   1.00
C18    C     0.13492   0.19000   0.09123   0.00000  Uiso   1.00
C19    C     0.16674   0.16668   0.38360   0.00000  Uiso   1.00
C20    C     0.16660   0.16665   0.11640   0.00000  Uiso   1.00
C21    C     0.13547   0.19061   0.40451   0.00000  Uiso   1.00
C22    C     0.19787   0.14273   0.09549   0.00000  Uiso   1.00
C23    C     0.13817   0.19478   0.45108   0.00000  Uiso   1.00
C24    C     0.19517   0.13856   0.04892   0.00000  Uiso   1.00
C25    C     0.16699   0.16699   0.47658   0.00000  Uiso   1.00
C26    C     0.16635   0.16635   0.02342   0.00000  Uiso   1.00
C27    C     0.19656   0.14001   0.45525   0.00000  Uiso   1.00
C28    C     0.13678   0.19332   0.04475   0.00000  Uiso   1.00
C29    C     0.11143   0.22472   0.47291   0.00000  Uiso   1.00
C30    C     0.22191   0.10862   0.02709   0.00000  Uiso   1.00
Cu31   Cu    0.16667   0.21355   0.25000   0.00000  Uiso   1.00
Cu32   Cu    0.16667   0.11978   0.25000   0.00000  Uiso   1.00
N33    N     0.16667   0.28402   0.25000   0.00000  Uiso   1.00
N34    N     0.16667   0.04931   0.25000   0.00000  Uiso   1.00
O35    O     0.10655   0.20625   0.25000   0.00000  Uiso   1.00
O36    O     0.22679   0.12709   0.25001   0.00000  Uiso   1.00
O37    O     0.22679   0.20625   0.25001   0.00000  Uiso   1.00
O38    O     0.10655   0.12709   0.25000   0.00000  Uiso   1.00
O39    O     0.16666   0.20627   0.18513   0.00000  Uiso   1.00
O40    O     0.16668   0.12707   0.31487   0.00000  Uiso   1.00
O41    O     0.16668   0.20627   0.31487   0.00000  Uiso   1.00
O42    O     0.16666   0.12707   0.18513   0.00000  Uiso   1.00
O43    O     0.23150   0.12401   0.38869   0.00000  Uiso   1.00
H44    H     0.23644   0.14146   0.36126   0.00000  Uiso   1.00
O45    O     0.10183   0.20932   0.11131   0.00000  Uiso   1.00
H46    H     0.09690   0.19188   0.13875   0.00000  Uiso   1.00
O47    O     0.10118   0.20836   0.38055   0.00000  Uiso   1.00
H48    H     0.09716   0.19249   0.35163   0.00000  Uiso   1.00
O49    O     0.23216   0.12498   0.11945   0.00000  Uiso   1.00
H50    H     0.23618   0.14086   0.14838   0.00000  Uiso   1.00
O51    O     0.08746   0.25774   0.45037   0.00000  Uiso   1.00
H52    H     0.10492   0.27292   0.42883   0.00000  Uiso   1.00
O53    O     0.24589   0.07561   0.04963   0.00000  Uiso   1.00
H54    H     0.22843   0.06042   0.07117   0.00000  Uiso   1.00
N55    N     0.08188   0.25339   0.03992   0.00000  Uiso   1.00
H56    H     0.05193   0.24667   0.02704   0.00000  Uiso   1.00
H57    H     0.08918   0.28747   0.03202   0.00000  Uiso   1.00
N58    N     0.25147   0.07996   0.46009   0.00000  Uiso   1.00
H59    H     0.28142   0.08667   0.47296   0.00000  Uiso   1.00
H60    H     0.24417   0.04587   0.46798   0.00000  Uiso   1.00
N61    N     0.04824   0.10645   0.30745   0.00000  Uiso   1.00
H62    H     0.04028   0.07211   0.30089   0.00000  Uiso   1.00
H63    H     0.04219   0.11420   0.34024   0.00000  Uiso   1.00
N64    N     0.28509   0.22686   0.19253   0.00000  Uiso   1.00
H65    H     0.29113   0.21910   0.15974   0.00000  Uiso   1.00
H66    H     0.29305   0.26121   0.19906   0.00000  Uiso   1.00
N67    N     0.29372   0.10506   0.30714   0.00000  Uiso   1.00
H68    H     0.30131   0.07102   0.29934   0.00000  Uiso   1.00
H69    H     0.30429   0.11166   0.33991   0.00000  Uiso   1.00
N70    N     0.03961   0.22828   0.19285   0.00000  Uiso   1.00
H71    H     0.02904   0.22168   0.16009   0.00000  Uiso   1.00
H72    H     0.03203   0.26231   0.20066   0.00000  Uiso   1.00
O73    O     0.12416   0.04629   0.18184   0.00000  Uiso   1.00
H74    H     0.11239   0.07490   0.19319   0.00000  Uiso   1.00
O75    O     0.20917   0.28704   0.31816   0.00000  Uiso   1.00
H76    H     0.22094   0.25843   0.30681   0.00000  Uiso   1.00
O77    O     0.20905   0.04496   0.31818   0.00000  Uiso   1.00
H78    H     0.21941   0.07425   0.30704   0.00000  Uiso   1.00
O79    O     0.12429   0.28837   0.18182   0.00000  Uiso   1.00
H80    H     0.11392   0.25908   0.19296   0.00000  Uiso   1.00
C81    C     0.42087   0.16681   0.24957   0.00000  Uiso   1.00
C82    C     0.57913   0.16653   0.25043   0.00000  Uiso   1.00
C83    C     0.44308   0.22283   0.01908   0.00000  Uiso   1.00
C84    C     0.55693   0.11050   0.48092   0.00000  Uiso   1.00
C85    C     0.35696   0.13614   0.27801   0.00000  Uiso   1.00
C86    C     0.64304   0.19719   0.22198   0.00000  Uiso   1.00
C87    C     0.64722   0.13571   0.27807   0.00000  Uiso   1.00
C88    C     0.35278   0.19762   0.22192   0.00000  Uiso   1.00
C89    C     0.62382   0.16636   0.25017   0.00000  Uiso   1.00
C90    C     0.37618   0.16697   0.24982   0.00000  Uiso   1.00
C91    C     0.47956   0.02476   0.21646   0.00000  Uiso   1.00
C92    C     0.52044   0.30857   0.28354   0.00000  Uiso   1.00
C93    C     0.52037   0.02410   0.28357   0.00000  Uiso   1.00
C94    C     0.47963   0.30923   0.21643   0.00000  Uiso   1.00
C95    C     0.50001   0.16672   0.16469   0.00000  Uiso   1.00
C96    C     0.49999   0.16662   0.33531   0.00000  Uiso   1.00
C97    C     0.53174   0.14333   0.40877   0.00000  Uiso   1.00
C98    C     0.46826   0.19000   0.09123   0.00000  Uiso   1.00
C99    C     0.50007   0.16668   0.38360   0.00000  Uiso   1.00
C100   C     0.49993   0.16665   0.11640   0.00000  Uiso   1.00
C101   C     0.46881   0.19061   0.40451   0.00000  Uiso   1.00
C102   C     0.53120   0.14273   0.09549   0.00000  Uiso   1.00
C103   C     0.47150   0.19478   0.45108   0.00000  Uiso   1.00
C104   C     0.52851   0.13856   0.04892   0.00000  Uiso   1.00
C105   C     0.50033   0.16699   0.47658   0.00000  Uiso   1.00
C106   C     0.49968   0.16635   0.02342   0.00000  Uiso   1.00
C107   C     0.52989   0.14001   0.45525   0.00000  Uiso   1.00
C108   C     0.47011   0.19332   0.04475   0.00000  Uiso   1.00
C109   C     0.44476   0.22472   0.47291   0.00000  Uiso   1.00
C110   C     0.55524   0.10862   0.02709   0.00000  Uiso   1.00
Cu111  Cu    0.50000   0.21355   0.25000   0.00000  Uiso   1.00
Cu112  Cu    0.50000   0.11978   0.25000   0.00000  Uiso   1.00
N113   N     0.50000   0.28402   0.25000   0.00000  Uiso   1.00
N114   N     0.50000   0.04931   0.25000   0.00000  Uiso   1.00
O115   O     0.43988   0.20625   0.25000   0.00000  Uiso   1.00
O116   O     0.56012   0.12709   0.25001   0.00000  Uiso   1.00
O117   O     0.56012   0.20625   0.25001   0.00000  Uiso   1.00
O118   O     0.43988   0.12709   0.25000   0.00000  Uiso   1.00
O119   O     0.49999   0.20627   0.18513   0.00000  Uiso   1.00
O120   O     0.50001   0.12707   0.31487   0.00000  Uiso   1.00
O121   O     0.50001   0.20627   0.31487   0.00000  Uiso   1.00
O122   O     0.49999   0.12707   0.18513   0.00000  Uiso   1.00
O123   O     0.56483   0.12401   0.38869   0.00000  Uiso   1.00
H124   H     0.56977   0.14146   0.36126   0.00000  Uiso   1.00
O125   O     0.43517   0.20932   0.11131   0.00000  Uiso   1.00
H126   H     0.43023   0.19188   0.13875   0.00000  Uiso   1.00
O127   O     0.43451   0.20836   0.38055   0.00000  Uiso   1.00
H128   H     0.43049   0.19249   0.35163   0.00000  Uiso   1.00
O129   O     0.56550   0.12498   0.11945   0.00000  Uiso   1.00
H130   H     0.56951   0.14086   0.14838   0.00000  Uiso   1.00
O131   O     0.42079   0.25774   0.45037   0.00000  Uiso   1.00
H132   H     0.43825   0.27292   0.42883   0.00000  Uiso   1.00
O133   O     0.57922   0.07561   0.04963   0.00000  Uiso   1.00
H134   H     0.56176   0.06042   0.07117   0.00000  Uiso   1.00
N135   N     0.41521   0.25339   0.03992   0.00000  Uiso   1.00
H136   H     0.38526   0.24667   0.02704   0.00000  Uiso   1.00
H137   H     0.42252   0.28747   0.03202   0.00000  Uiso   1.00
N138   N     0.58480   0.07996   0.46009   0.00000  Uiso   1.00
H139   H     0.61475   0.08667   0.47296   0.00000  Uiso   1.00
H140   H     0.57750   0.04587   0.46798   0.00000  Uiso   1.00
N141   N     0.38157   0.10645   0.30745   0.00000  Uiso   1.00
H142   H     0.37361   0.07211   0.30089   0.00000  Uiso   1.00
H143   H     0.37552   0.11420   0.34024   0.00000  Uiso   1.00
N144   N     0.61842   0.22686   0.19253   0.00000  Uiso   1.00
H145   H     0.62447   0.21910   0.15974   0.00000  Uiso   1.00
H146   H     0.62638   0.26121   0.19906   0.00000  Uiso   1.00
N147   N     0.62706   0.10506   0.30714   0.00000  Uiso   1.00
H148   H     0.63464   0.07102   0.29934   0.00000  Uiso   1.00
H149   H     0.63762   0.11166   0.33991   0.00000  Uiso   1.00
N150   N     0.37294   0.22828   0.19285   0.00000  Uiso   1.00
H151   H     0.36238   0.22168   0.16009   0.00000  Uiso   1.00
H152   H     0.36536   0.26231   0.20066   0.00000  Uiso   1.00
O153   O     0.45749   0.04629   0.18184   0.00000  Uiso   1.00
H154   H     0.44572   0.07490   0.19319   0.00000  Uiso   1.00
O155   O     0.54251   0.28704   0.31816   0.00000  Uiso   1.00
H156   H     0.55428   0.25843   0.30681   0.00000  Uiso   1.00
O157   O     0.54238   0.04496   0.31818   0.00000  Uiso   1.00
H158   H     0.55274   0.07425   0.30704   0.00000  Uiso   1.00
O159   O     0.45762   0.28837   0.18182   0.00000  Uiso   1.00
H160   H     0.44726   0.25908   0.19296   0.00000  Uiso   1.00
C161   C     0.75421   0.16681   0.24957   0.00000  Uiso   1.00
C162   C     0.91246   0.16653   0.25043   0.00000  Uiso   1.00
C163   C     0.77641   0.22283   0.01908   0.00000  Uiso   1.00
C164   C     0.89026   0.11050   0.48092   0.00000  Uiso   1.00
C165   C     0.69030   0.13614   0.27801   0.00000  Uiso   1.00
C166   C     0.97637   0.19719   0.22198   0.00000  Uiso   1.00
C167   C     0.98055   0.13571   0.27807   0.00000  Uiso   1.00
C168   C     0.68611   0.19762   0.22192   0.00000  Uiso   1.00
C169   C     0.95715   0.16636   0.25017   0.00000  Uiso   1.00
C170   C     0.70951   0.16697   0.24982   0.00000  Uiso   1.00
C171   C     0.81290   0.02476   0.21646   0.00000  Uiso   1.00
C172   C     0.85377   0.30857   0.28354   0.00000  Uiso   1.00
C173   C     0.85370   0.02410   0.28357   0.00000  Uiso   1.00
C174   C     0.81297   0.30923   0.21643   0.00000  Uiso   1.00
C175   C     0.83334   0.16672   0.16469   0.00000  Uiso   1.00
C176   C     0.83332   0.16662   0.33531   0.00000  Uiso   1.00
C177   C     0.86508   0.14333   0.40877   0.00000  Uiso   1.00
C178   C     0.80159   0.19000   0.09123   0.00000  Uiso   1.00
C179   C     0.83341   0.16668   0.38360   0.00000  Uiso   1.00
C180   C     0.83326   0.16665   0.11640   0.00000  Uiso   1.00
C181   C     0.80214   0.19061   0.40451   0.00000  Uiso   1.00
C182   C     0.86453   0.14273   0.09549   0.00000  Uiso   1.00
C183   C     0.80483   0.19478   0.45108   0.00000  Uiso   1.00
C184   C     0.86184   0.13856   0.04892   0.00000  Uiso   1.00
C185   C     0.83366   0.16699   0.47658   0.00000  Uiso   1.00
C186   C     0.83301   0.16635   0.02342   0.00000  Uiso   1.00
C187   C     0.86322   0.14001   0.45525   0.00000  Uiso   1.00
C188   C     0.80345   0.19332   0.04475   0.00000  Uiso   1.00
C189   C     0.77810   0.22472   0.47291   0.00000  Uiso   1.00
C190   C     0.88858   0.10862   0.02709   0.00000  Uiso   1.00
Cu191  Cu    0.83333   0.21355   0.25000   0.00000  Uiso   1.00
Cu192  Cu    0.83333   0.11978   0.25000   0.00000  Uiso   1.00
N193   N     0.83333   0.28402   0.25000   0.00000  Uiso   1.00
N194   N     0.83333   0.04931   0.25000   0.00000  Uiso   1.00
O195   O     0.77321   0.20625   0.25000   0.00000  Uiso   1.00
O196   O     0.89345   0.12709   0.25001   0.00000  Uiso   1.00
O197   O     0.89345   0.20625   0.25001   0.00000  Uiso   1.00
O198   O     0.77321   0.12709   0.25000   0.00000  Uiso   1.00
O199   O     0.83332   0.20627   0.18513   0.00000  Uiso   1.00
O200   O     0.83334   0.12707   0.31487   0.00000  Uiso   1.00
O201   O     0.83334   0.20627   0.31487   0.00000  Uiso   1.00
O202   O     0.83332   0.12707   0.18513   0.00000  Uiso   1.00
O203   O     0.89817   0.12401   0.38869   0.00000  Uiso   1.00
H204   H     0.90311   0.14146   0.36126   0.00000  Uiso   1.00
O205   O     0.76850   0.20932   0.11131   0.00000  Uiso   1.00
H206   H     0.76356   0.19188   0.13875   0.00000  Uiso   1.00
O207   O     0.76784   0.20836   0.38055   0.00000  Uiso   1.00
H208   H     0.76382   0.19249   0.35163   0.00000  Uiso   1.00
O209   O     0.89883   0.12498   0.11945   0.00000  Uiso   1.00
H210   H     0.90285   0.14086   0.14838   0.00000  Uiso   1.00
O211   O     0.75412   0.25774   0.45037   0.00000  Uiso   1.00
H212   H     0.77159   0.27292   0.42883   0.00000  Uiso   1.00
O213   O     0.91255   0.07561   0.04963   0.00000  Uiso   1.00
H214   H     0.89509   0.06042   0.07117   0.00000  Uiso   1.00
N215   N     0.74854   0.25339   0.03992   0.00000  Uiso   1.00
H216   H     0.71860   0.24667   0.02704   0.00000  Uiso   1.00
H217   H     0.75585   0.28747   0.03202   0.00000  Uiso   1.00
N218   N     0.91814   0.07996   0.46009   0.00000  Uiso   1.00
H219   H     0.94808   0.08667   0.47296   0.00000  Uiso   1.00
H220   H     0.91083   0.04587   0.46798   0.00000  Uiso   1.00
N221   N     0.71491   0.10645   0.30745   0.00000  Uiso   1.00
H222   H     0.70695   0.07211   0.30089   0.00000  Uiso   1.00
H223   H     0.70886   0.11420   0.34024   0.00000  Uiso   1.00
N224   N     0.95175   0.22686   0.19253   0.00000  Uiso   1.00
H225   H     0.95780   0.21910   0.15974   0.00000  Uiso   1.00
H226   H     0.95972   0.26121   0.19906   0.00000  Uiso   1.00
N227   N     0.96039   0.10506   0.30714   0.00000  Uiso   1.00
H228   H     0.96797   0.07102   0.29934   0.00000  Uiso   1.00
H229   H     0.97095   0.11166   0.33991   0.00000  Uiso   1.00
N230   N     0.70628   0.22828   0.19285   0.00000  Uiso   1.00
H231   H     0.69571   0.22168   0.16009   0.00000  Uiso   1.00
H232   H     0.69870   0.26231   0.20066   0.00000  Uiso   1.00
O233   O     0.79083   0.04629   0.18184   0.00000  Uiso   1.00
H234   H     0.77906   0.07490   0.19319   0.00000  Uiso   1.00
O235   O     0.87584   0.28704   0.31816   0.00000  Uiso   1.00
H236   H     0.88761   0.25843   0.30681   0.00000  Uiso   1.00
O237   O     0.87571   0.04496   0.31818   0.00000  Uiso   1.00
H238   H     0.88608   0.07425   0.30704   0.00000  Uiso   1.00
O239   O     0.79096   0.28837   0.18182   0.00000  Uiso   1.00
H240   H     0.78059   0.25908   0.19296   0.00000  Uiso   1.00
C241   C     0.08754   0.50014   0.24957   0.00000  Uiso   1.00
C242   C     0.24579   0.49986   0.25043   0.00000  Uiso   1.00
C243   C     0.10975   0.55617   0.01908   0.00000  Uiso   1.00
C244   C     0.22359   0.44384   0.48092   0.00000  Uiso   1.00
C245   C     0.02363   0.46948   0.27801   0.00000  Uiso   1.00
C246   C     0.30970   0.53052   0.22198   0.00000  Uiso   1.00
C247   C     0.31388   0.46904   0.27807   0.00000  Uiso   1.00
C248   C     0.01945   0.53096   0.22192   0.00000  Uiso   1.00
C249   C     0.29049   0.49969   0.25017   0.00000  Uiso   1.00
C250   C     0.04284   0.50031   0.24982   0.00000  Uiso   1.00
C251   C     0.14623   0.35809   0.21646   0.00000  Uiso   1.00
C252   C     0.18710   0.64191   0.28354   0.00000  Uiso   1.00
C253   C     0.18703   0.35744   0.28357   0.00000  Uiso   1.00
C254   C     0.14630   0.64256   0.21643   0.00000  Uiso   1.00
C255   C     0.16668   0.50005   0.16469   0.00000  Uiso   1.00
C256   C     0.16666   0.49995   0.33531   0.00000  Uiso   1.00
C257   C     0.19841   0.47666   0.40877   0.00000  Uiso   1.00
C258   C     0.13492   0.52334   0.09123   0.00000  Uiso   1.00
C259   C     0.16674   0.50002   0.38360   0.00000  Uiso   1.00
C260   C     0.16660   0.49998   0.11640   0.00000  Uiso   1.00
C261   C     0.13547   0.52394   0.40451   0.00000  Uiso   1.00
C262   C     0.19787   0.47607   0.09549   0.00000  Uiso   1.00
C263   C     0.13817   0.52811   0.45108   0.00000  Uiso   1.00
C264   C     0.19517   0.47189   0.04892   0.00000  Uiso   1.00
C265   C     0.16699   0.50032   0.47658   0.00000  Uiso   1.00
C266   C     0.16635   0.49968   0.02342   0.00000  Uiso   1.00
C267   C     0.19656   0.47335   0.45525   0.00000  Uiso   1.00
C268   C     0.13678   0.52665   0.04475   0.00000  Uiso   1.00
C269   C     0.11143   0.55805   0.47291   0.00000  Uiso   1.00
C270   C     0.22191   0.44196   0.02709   0.00000  Uiso   1.00
Cu271  Cu    0.16667   0.54689   0.25000   0.00000  Uiso   1.00
Cu272  Cu    0.16667   0.45311   0.25000   0.00000  Uiso   1.00
N273   N     0.16667   0.61736   0.25000   0.00000  Uiso   1.00
N274   N     0.16667   0.38264   0.25000   0.00000  Uiso   1.00
O275   O     0.10655   0.53958   0.25000   0.00000  Uiso   1.00
O276   O     0.22679   0.46042   0.25001   0.00000  Uiso   1.00
O277   O     0.22679   0.53958   0.25001   0.00000  Uiso   1.00
O278   O     0.10655   0.46042   0.25000   0.00000  Uiso   1.00
O279   O     0.16666   0.53960   0.18513   0.00000  Uiso   1.00
O280   O     0.16668   0.46040   0.31487   0.00000  Uiso   1.00
O281   O     0.16668   0.53960   0.31487   0.00000  Uiso   1.00
O282   O     0.16666   0.46040   0.18513   0.00000  Uiso   1.00
O283   O     0.23150   0.45735   0.38869   0.00000  Uiso   1.00
H284   H     0.23644   0.47479   0.36126   0.00000  Uiso   1.00
O285   O     0.10183   0.54265   0.11131   0.00000  Uiso   1.00
H286   H     0.09690   0.52522   0.13875   0.00000  Uiso   1.00
O287   O     0.10118   0.54170   0.38055   0.00000  Uiso   1.00
H288   H     0.09716   0.52582   0.35163   0.00000  Uiso   1.00
O289   O     0.23216   0.45831   0.11945   0.00000  Uiso   1.00
H290   H     0.23618   0.47419   0.14838   0.00000  Uiso   1.00
O291   O     0.08746   0.59107   0.45037   0.00000  Uiso   1.00
H292   H     0.10492   0.60626   0.42883   0.00000  Uiso   1.00
O293   O     0.24589   0.40894   0.04963   0.00000  Uiso   1.00
H294   H     0.22843   0.39375   0.07117   0.00000  Uiso   1.00
N295   N     0.08188   0.58672   0.03992   0.00000  Uiso   1.00
H296   H     0.05193   0.58001   0.02704   0.00000  Uiso   1.00
H297   H     0.08918   0.62080   0.03202   0.00000  Uiso   1.00
N298   N     0.25147   0.41329   0.46009   0.00000  Uiso   1.00
H299   H     0.28142   0.42001   0.47296   0.00000  Uiso   1.00
H300   H     0.24417   0.37921   0.46798   0.00000  Uiso   1.00
N301   N     0.04824   0.43979   0.30745   0.00000  Uiso   1.00
H302   H     0.04028   0.40545   0.30089   0.00000  Uiso   1.00
H303   H     0.04219   0.44753   0.34024   0.00000  Uiso   1.00
N304   N     0.28509   0.56019   0.19253   0.00000  Uiso   1.00
H305   H     0.29113   0.55243   0.15974   0.00000  Uiso   1.00
H306   H     0.29305   0.59454   0.19906   0.00000  Uiso   1.00
N307   N     0.29372   0.43839   0.30714   0.00000  Uiso   1.00
H308   H     0.30131   0.40436   0.29934   0.00000  Uiso   1.00
H309   H     0.30429   0.44499   0.33991   0.00000  Uiso   1.00
N310   N     0.03961   0.56161   0.19285   0.00000  Uiso   1.00
H311   H     0.02904   0.55501   0.16009   0.00000  Uiso   1.00
H312   H     0.03203   0.59564   0.20066   0.00000  Uiso   1.00
O313   O     0.12416   0.37962   0.18184   0.00000  Uiso   1.00
H314   H     0.11239   0.40824   0.19319   0.00000  Uiso   1.00
O315   O     0.20917   0.62038   0.31816   0.00000  Uiso   1.00
H316   H     0.22094   0.59176   0.30681   0.00000  Uiso   1.00
O317   O     0.20905   0.37829   0.31818   0.00000  Uiso   1.00
H318   H     0.21941   0.40758   0.30704   0.00000  Uiso   1.00
O319   O     0.12429   0.62171   0.18182   0.00000  Uiso   1.00
H320   H     0.11392   0.59242   0.19296   0.00000  Uiso   1.00
C321   C     0.42087   0.50014   0.24957   0.00000  Uiso   1.00
C322   C     0.57913   0.49986   0.25043   0.00000  Uiso   1.00
C323   C     0.44308   0.55617   0.01908   0.00000  Uiso   1.00
C324   C     0.55693   0.44384   0.48092   0.00000  Uiso   1.00
C325   C     0.35696   0.46948   0.27801   0.00000  Uiso   1.00
C326   C     0.64304   0.53052   0.22198   0.00000  Uiso   1.00
C327   C     0.64722   0.46904   0.27807   0.00000  Uiso   1.00
C328   C     0.35278   0.53096   0.22192   0.00000  Uiso   1.00
C329   C     0.62382   0.49969   0.25017   0.00000  Uiso   1.00
C330   C     0.37618   0.50031   0.24982   0.00000  Uiso   1.00
C331   C     0.47956   0.35809   0.21646   0.00000  Uiso   1.00
C332   C     0.52044   0.64191   0.28354   0.00000  Uiso   1.00
C333   C     0.52037   0.35744   0.28357   0.00000  Uiso   1.00
C334   C     0.47963   0.64256   0.21643   0.00000  Uiso   1.00
C335   C     0.50001   0.50005   0.16469   0.00000  Uiso   1.00
C336   C     0.49999   0.49995   0.33531   0.00000  Uiso   1.00
C337   C     0.53174   0.47666   0.40877   0.00000  Uiso   1.00
C338   C     0.46826   0.52334   0.09123   0.00000  Uiso   1.00
C339   C     0.50007   0.50002   0.38360   0.00000  Uiso   1.00
C340   C     0.49993   0.49998   0.11640   0.00000  Uiso   1.00
C341   C     0.46881   0.52394   0.40451   0.00000  Uiso   1.00
C342   C     0.53120   0.47607   0.09549   0.00000  Uiso   1.00
C343   C     0.47150   0.52811   0.45108   0.00000  Uiso   1.00
C344   C     0.52851   0.47189   0.04892   0.00000  Uiso   1.00
C345   C     0.50033   0.50032   0.47658   0.00000  Uiso   1.00
C346   C     0.49968   0.49968   0.02342   0.00000  Uiso   1.00
C347   C     0.52989   0.47335   0.45525   0.00000  Uiso   1.00
C348   C     0.47011   0.52665   0.04475   0.00000  Uiso   1.00
C349   C     0.44476   0.55805   0.47291   0.00000  Uiso   1.00
C350   C     0.55524   0.44196   0.02709   0.00000  Uiso   1.00
Cu351  Cu    0.50000   0.54689   0.25000   0.00000  Uiso   1.00
Cu352  Cu    0.50000   0.45311   0.25000   0.00000  Uiso   1.00
N353   N     0.50000   0.61736   0.25000   0.00000  Uiso   1.00
N354   N     0.50000   0.38264   0.25000   0.00000  Uiso   1.00
O355   O     0.43988   0.53958   0.25000   0.00000  Uiso   1.00
O356   O     0.56012   0.46042   0.25001   0.00000  Uiso   1.00
O357   O     0.56012   0.53958   0.25001   0.00000  Uiso   1.00
O358   O     0.43988   0.46042   0.25000   0.00000  Uiso   1.00
O359   O     0.49999   0.53960   0.18513   0.00000  Uiso   1.00
O360   O     0.50001   0.46040   0.31487   0.00000  Uiso   1.00
O361   O     0.50001   0.53960   0.31487   0.00000  Uiso   1.00
O362   O     0.49999   0.46040   0.18513   0.00000  Uiso   1.00
O363   O     0.56483   0.45735   0.38869   0.00000  Uiso   1.00
H364   H     0.56977   0.47479   0.36126   0.00000  Uiso   1.00
O365   O     0.43517   0.54265   0.11131   0.00000  Uiso   1.00
H366   H     0.43023   0.52522   0.13875   0.00000  Uiso   1.00
O367   O     0.43451   0.54170   0.38055   0.00000  Uiso   1.00
H368   H     0.43049   0.52582   0.35163   0.00000  Uiso   1.00
O369   O     0.56550   0.45831   0.11945   0.00000  Uiso   1.00
H370   H     0.56951   0.47419   0.14838   0.00000  Uiso   1.00
O371   O     0.42079   0.59107   0.45037   0.00000  Uiso   1.00
H372   H     0.43825   0.60626   0.42883   0.00000  Uiso   1.00
O373   O     0.57922   0.40894   0.04963   0.00000  Uiso   1.00
H374   H     0.56176   0.39375   0.07117   0.00000  Uiso   1.00
N375   N     0.41521   0.58672   0.03992   0.00000  Uiso   1.00
H376   H     0.38526   0.58001   0.02704   0.00000  Uiso   1.00
H377   H     0.42252   0.62080   0.03202   0.00000  Uiso   1.00
N378   N     0.58480   0.41329   0.46009   0.00000  Uiso   1.00
H379   H     0.61475   0.42001   0.47296   0.00000  Uiso   1.00
H380   H     0.57750   0.37921   0.46798   0.00000  Uiso   1.00
N381   N     0.38157   0.43979   0.30745   0.00000  Uiso   1.00
H382   H     0.37361   0.40545   0.30089   0.00000  Uiso   1.00
H383   H     0.37552   0.44753   0.34024   0.00000  Uiso   1.00
N384   N     0.61842   0.56019   0.19253   0.00000  Uiso   1.00
H385   H     0.62447   0.55243   0.15974   0.00000  Uiso   1.00
H386   H     0.62638   0.59454   0.19906   0.00000  Uiso   1.00
N387   N     0.62706   0.43839   0.30714   0.00000  Uiso   1.00
H388   H     0.63464   0.40436   0.29934   0.00000  Uiso   1.00
H389   H     0.63762   0.44499   0.33991   0.00000  Uiso   1.00
N390   N     0.37294   0.56161   0.19285   0.00000  Uiso   1.00
H391   H     0.36238   0.55501   0.16009   0.00000  Uiso   1.00
H392   H     0.36536   0.59564   0.20066   0.00000  Uiso   1.00
O393   O     0.45749   0.37962   0.18184   0.00000  Uiso   1.00
H394   H     0.44572   0.40824   0.19319   0.00000  Uiso   1.00
O395   O     0.54251   0.62038   0.31816   0.00000  Uiso   1.00
H396   H     0.55428   0.59176   0.30681   0.00000  Uiso   1.00
O397   O     0.54238   0.37829   0.31818   0.00000  Uiso   1.00
H398   H     0.55274   0.40758   0.30704   0.00000  Uiso   1.00
O399   O     0.45762   0.62171   0.18182   0.00000  Uiso   1.00
H400   H     0.44726   0.59242   0.19296   0.00000  Uiso   1.00
C401   C     0.75421   0.50014   0.24957   0.00000  Uiso   1.00
C402   C     0.91246   0.49986   0.25043   0.00000  Uiso   1.00
C403   C     0.77641   0.55617   0.01908   0.00000  Uiso   1.00
C404   C     0.89026   0.44384   0.48092   0.00000  Uiso   1.00
C405   C     0.69030   0.46948   0.27801   0.00000  Uiso   1.00
C406   C     0.97637   0.53052   0.22198   0.00000  Uiso   1.00
C407   C     0.98055   0.46904   0.27807   0.00000  Uiso   1.00
C408   C     0.68611   0.53096   0.22192   0.00000  Uiso   1.00
C409   C     0.95715   0.49969   0.25017   0.00000  Uiso   1.00
C410   C     0.70951   0.50031   0.24982   0.00000  Uiso   1.00
C411   C     0.81290   0.35809   0.21646   0.00000  Uiso   1.00
C412   C     0.85377   0.64191   0.28354   0.00000  Uiso   1.00
C413   C     0.85370   0.35744   0.28357   0.00000  Uiso   1.00
C414   C     0.81297   0.64256   0.21643   0.00000  Uiso   1.00
C415   C     0.83334   0.50005   0.16469   0.00000  Uiso   1.00
C416   C     0.83332   0.49995   0.33531   0.00000  Uiso   1.00
C417   C     0.86508   0.47666   0.40877   0.00000  Uiso   1.00
C418   C     0.80159   0.52334   0.09123   0.00000  Uiso   1.00
C419   C     0.83341   0.50002   0.38360   0.00000  Uiso   1.00
C420   C     0.83326   0.49998   0.11640   0.00000  Uiso   1.00
C421   C     0.80214   0.52394   0.40451   0.00000  Uiso   1.00
C422   C     0.86453   0.47607   0.09549   0.00000  Uiso   1.00
C423   C     0.80483   0.52811   0.45108   0.00000  Uiso   1.00
C424   C     0.86184   0.47189   0.04892   0.00000  Uiso   1.00
C425   C     0.83366   0.50032   0.47658   0.00000  Uiso   1.00
C426   C     0.83301   0.49968   0.02342   0.00000  Uiso   1.00
C427   C     0.86322   0.47335   0.45525   0.00000  Uiso   1.00
C428   C     0.80345   0.52665   0.04475   0.00000  Uiso   1.00
C429   C     0.77810   0.55805   0.47291   0.00000  Uiso   1.00
C430   C     0.88858   0.44196   0.02709   0.00000  Uiso   1.00
Cu431  Cu    0.83333   0.54689   0.25000   0.00000  Uiso   1.00
Cu432  Cu    0.83333   0.45311   0.25000   0.00000  Uiso   1.00
N433   N     0.83333   0.61736   0.25000   0.00000  Uiso   1.00
N434   N     0.83333   0.38264   0.25000   0.00000  Uiso   1.00
O435   O     0.77321   0.53958   0.25000   0.00000  Uiso   1.00
O436   O     0.89345   0.46042   0.25001   0.00000  Uiso   1.00
O437   O     0.89345   0.53958   0.25001   0.00000  Uiso   1.00
O438   O     0.77321   0.46042   0.25000   0.00000  Uiso   1.00
O439   O     0.83332   0.53960   0.18513   0.00000  Uiso   1.00
O440   O     0.83334   0.46040   0.31487   0.00000  Uiso   1.00
O441   O     0.83334   0.53960   0.31487   0.00000  Uiso   1.00
O442   O     0.83332   0.46040   0.18513   0.00000  Uiso   1.00
O443   O     0.89817   0.45735   0.38869   0.00000  Uiso   1.00
H444   H     0.90311   0.47479   0.36126   0.00000  Uiso   1.00
O445   O     0.76850   0.54265   0.11131   0.00000  Uiso   1.00
H446   H     0.76356   0.52522   0.13875   0.00000  Uiso   1.00
O447   O     0.76784   0.54170   0.38055   0.00000  Uiso   1.00
H448   H     0.76382   0.52582   0.35163   0.00000  Uiso   1.00
O449   O     0.89883   0.45831   0.11945   0.00000  Uiso   1.00
H450   H     0.90285   0.47419   0.14838   0.00000  Uiso   1.00
O451   O     0.75412   0.59107   0.45037   0.00000  Uiso   1.00
H452   H     0.77159   0.60626   0.42883   0.00000  Uiso   1.00
O453   O     0.91255   0.40894   0.04963   0.00000  Uiso   1.00
H454   H     0.89509   0.39375   0.07117   0.00000  Uiso   1.00
N455   N     0.74854   0.58672   0.03992   0.00000  Uiso   1.00
H456   H     0.71860   0.58001   0.02704   0.00000  Uiso   1.00
H457   H     0.75585   0.62080   0.03202   0.00000  Uiso   1.00
N458   N     0.91814   0.41329   0.46009   0.00000  Uiso   1.00
H459   H     0.94808   0.42001   0.47296   0.00000  Uiso   1.00
H460   H     0.91083   0.37921   0.46798   0.00000  Uiso   1.00
N461   N     0.71491   0.43979   0.30745   0.00000  Uiso   1.00
H462   H     0.70695   0.40545   0.30089   0.00000  Uiso   1.00
H463   H     0.70886   0.44753   0.34024   0.00000  Uiso   1.00
N464   N     0.95175   0.56019   0.19253   0.00000  Uiso   1.00
H465   H     0.95780   0.55243   0.15974   0.00000  Uiso   1.00
H466   H     0.95972   0.59454   0.19906   0.00000  Uiso   1.00
N467   N     0.96039   0.43839   0.30714   0.00000  Uiso   1.00
H468   H     0.96797   0.40436   0.29934   0.00000  Uiso   1.00
H469   H     0.97095   0.44499   0.33991   0.00000  Uiso   1.00
N470   N     0.70628   0.56161   0.19285   0.00000  Uiso   1.00
H471   H     0.69571   0.55501   0.16009   0.00000  Uiso   1.00
H472   H     0.69870   0.59564   0.20066   0.00000  Uiso   1.00
O473   O     0.79083   0.37962   0.18184   0.00000  Uiso   1.00
H474   H     0.77906   0.40824   0.19319   0.00000  Uiso   1.00
O475   O     0.87584   0.62038   0.31816   0.00000  Uiso   1.00
H476   H     0.88761   0.59176   0.30681   0.00000  Uiso   1.00
O477   O     0.87571   0.37829   0.31818   0.00000  Uiso   1.00
H478   H     0.88608   0.40758   0.30704   0.00000  Uiso   1.00
O479   O     0.79096   0.62171   0.18182   0.00000  Uiso   1.00
H480   H     0.78059   0.59242   0.19296   0.00000  Uiso   1.00
C481   C     0.08754   0.83347   0.24957   0.00000  Uiso   1.00
C482   C     0.24579   0.83320   0.25043   0.00000  Uiso   1.00
C483   C     0.10975   0.88950   0.01908   0.00000  Uiso   1.00
C484   C     0.22359   0.77717   0.48092   0.00000  Uiso   1.00
C485   C     0.02363   0.80281   0.27801   0.00000  Uiso   1.00
C486   C     0.30970   0.86385   0.22198   0.00000  Uiso   1.00
C487   C     0.31388   0.80238   0.27807   0.00000  Uiso   1.00
C488   C     0.01945   0.86429   0.22192   0.00000  Uiso   1.00
C489   C     0.29049   0.83302   0.25017   0.00000  Uiso   1.00
C490   C     0.04284   0.83364   0.24982   0.00000  Uiso   1.00
C491   C     0.14623   0.69143   0.21646   0.00000  Uiso   1.00
C492   C     0.18710   0.97524   0.28354   0.00000  Uiso   1.00
C493   C     0.18703   0.69077   0.28357   0.00000  Uiso   1.00
C494   C     0.14630   0.97590   0.21643   0.00000  Uiso   1.00
C495   C     0.16668   0.83338   0.16469   0.00000  Uiso   1.00
C496   C     0.16666   0.83328   0.33531   0.00000  Uiso   1.00
C497   C     0.19841   0.81000   0.40877   0.00000  Uiso   1.00
C498   C     0.13492   0.85667   0.09123   0.00000  Uiso   1.00
C499   C     0.16674   0.83335   0.38360   0.00000  Uiso   1.00
C500   C     0.16660   0.83332   0.11640   0.00000  Uiso   1.00
C501   C     0.13547   0.85727   0.40451   0.00000  Uiso   1.00
C502   C     0.19787   0.80940   0.09549   0.00000  Uiso   1.00
C503   C     0.13817   0.86145   0.45108   0.00000  Uiso   1.00
C504   C     0.19517   0.80522   0.04892   0.00000  Uiso   1.00
C505   C     0.16699   0.83365   0.47658   0.00000  Uiso   1.00
C506   C     0.16635   0.83302   0.02342   0.00000  Uiso   1.00
C507   C     0.19656   0.80668   0.45525   0.00000  Uiso   1.00
C508   C     0.13678   0.85999   0.04475   0.00000  Uiso   1.00
C509   C     0.11143   0.89139   0.47291   0.00000  Uiso   1.00
C510   C     0.22191   0.77529   0.02709   0.00000  Uiso   1.00
Cu511  Cu    0.16667   0.88022   0.25000   0.00000  Uiso   1.00
Cu512  Cu    0.16667   0.78645   0.25000   0.00000  Uiso   1.00
N513   N     0.16667   0.95069   0.25000   0.00000  Uiso   1.00
N514   N     0.16667   0.71598   0.25000   0.00000  Uiso   1.00
O515   O     0.10655   0.87291   0.25000   0.00000  Uiso   1.00
O516   O     0.22679   0.79375   0.25001   0.00000  Uiso   1.00
O517   O     0.22679   0.87291   0.25001   0.00000  Uiso   1.00
O518   O     0.10655   0.79375   0.25000   0.00000  Uiso   1.00
O519   O     0.16666   0.87293   0.18513   0.00000  Uiso   1.00
O520   O     0.16668   0.79373   0.31487   0.00000  Uiso   1.00
O521   O     0.16668   0.87293   0.31487   0.00000  Uiso   1.00
O522   O     0.16666   0.79373   0.18513   0.00000  Uiso   1.00
O523   O     0.23150   0.79068   0.38869   0.00000  Uiso   1.00
H524   H     0.23644   0.80812   0.36126   0.00000  Uiso   1.00
O525   O     0.10183   0.87599   0.11131   0.00000  Uiso   1.00
H526   H     0.09690   0.85855   0.13875   0.00000  Uiso   1.00
O527   O     0.10118   0.87503   0.38055   0.00000  Uiso   1.00
H528   H     0.09716   0.85915   0.35163   0.00000  Uiso   1.00
O529   O     0.23216   0.79165   0.11945   0.00000  Uiso   1.00
H530   H     0.23618   0.80752   0.14838   0.00000  Uiso   1.00
O531   O     0.08746   0.92441   0.45037   0.00000  Uiso   1.00
H532   H     0.10492   0.93959   0.42883   0.00000  Uiso   1.00
O533   O     0.24589   0.74227   0.04963   0.00000  Uiso   1.00
H534   H     0.22843   0.72709   0.07117   0.00000  Uiso   1.00
N535   N     0.08188   0.92005   0.03992   0.00000  Uiso   1.00
H536   H     0.05193   0.91334   0.02704   0.00000  Uiso   1.00
H537   H     0.08918   0.95413   0.03202   0.00000  Uiso   1.00
N538   N     0.25147   0.74662   0.46009   0.00000  Uiso   1.00
H539   H     0.28142   0.75334   0.47296   0.00000  Uiso   1.00
H540   H     0.24417   0.71254   0.46798   0.00000  Uiso   1.00
N541   N     0.04824   0.77312   0.30745   0.00000  Uiso   1.00
H542   H     0.04028   0.73878   0.30089   0.00000  Uiso   1.00
H543   H     0.04219   0.78087   0.34024   0.00000  Uiso   1.00
N544   N     0.28509   0.89353   0.19253   0.00000  Uiso   1.00
H545   H     0.29113   0.88576   0.15974   0.00000  Uiso   1.00
H546   H     0.29305   0.92787   0.19906   0.00000  Uiso   1.00
N547   N     0.29372   0.77172   0.30714   0.00000  Uiso   1.00
H548   H     0.30131   0.73769   0.29934   0.00000  Uiso   1.00
H549   H     0.30429   0.77833   0.33991   0.00000  Uiso   1.00
N550   N     0.03961   0.89494   0.19285   0.00000  Uiso   1.00
H551   H     0.02904   0.88835   0.16009   0.00000  Uiso   1.00
H552   H     0.03203   0.92898   0.20066   0.00000  Uiso   1.00
O553   O     0.12416   0.71296   0.18184   0.00000  Uiso   1.00
H554   H     0.11239   0.74157   0.19319   0.00000  Uiso   1.00
O555   O     0.20917   0.95371   0.31816   0.00000  Uiso   1.00
H556   H     0.22094   0.92510   0.30681   0.00000  Uiso   1.00
O557   O     0.20905   0.71163   0.31818   0.00000  Uiso   1.00
H558   H     0.21941   0.74092   0.30704   0.00000  Uiso   1.00
O559   O     0.12429   0.95504   0.18182   0.00000  Uiso   1.00
H560   H     0.11392   0.92575   0.19296   0.00000  Uiso   1.00
C561   C     0.42087   0.83347   0.24957   0.00000  Uiso   1.00
C562   C     0.57913   0.83320   0.25043   0.00000  Uiso   1.00
C563   C     0.44308   0.88950   0.01908   0.00000  Uiso   1.00
C564   C     0.55693   0.77717   0.48092   0.00000  Uiso   1.00
C565   C     0.35696   0.80281   0.27801   0.00000  Uiso   1.00
C566   C     0.64304   0.86385   0.22198   0.00000  Uiso   1.00
C567   C     0.64722   0.80238   0.27807   0.00000  Uiso   1.00
C568   C     0.35278   0.86429   0.22192   0.00000  Uiso   1.00
C569   C     0.62382   0.83302   0.25017   0.00000  Uiso   1.00
C570   C     0.37618   0.83364   0.24982   0.00000  Uiso   1.00
C571   C     0.47956   0.69143   0.21646   0.00000  Uiso   1.00
C572   C     0.52044   0.97524   0.28354   0.00000  Uiso   1.00
C573   C     0.52037   0.69077   0.28357   0.00000  Uiso   1.00
C574   C     0.47963   0.97590   0.21643   0.00000  Uiso   1.00
C575   C     0.50001   0.83338   0.16469   0.00000  Uiso   1.00
C576   C     0.49999   0.83328   0.33531   0.00000  Uiso   1.00
C577   C     0.53174   0.81000   0.40877   0.00000  Uiso   1.00
C578   C     0.46826   0.85667   0.09123   0.00000  Uiso   1.00
C579   C     0.50007   0.83335   0.38360   0.00000  Uiso   1.00
C580   C     0.49993   0.83332   0.11640   0.00000  Uiso   1.00
C581   C     0.46881   0.85727   0.40451   0.00000  Uiso   1.00
C582   C     0.53120   0.80940   0.09549   0.00000  Uiso   1.00
C583   C     0.47150   0.86145   0.45108   0.00000  Uiso   1.00
C584   C     0.52851   0.80522   0.04892   0.00000  Uiso   1.00
C585   C     0.50033   0.83365   0.47658   0.00000  Uiso   1.00
C586   C     0.49968   0.83302   0.02342   0.00000  Uiso   1.00
C587   C     0.52989   0.80668   0.45525   0.00000  Uiso   1.00
C588   C     0.47011   0.85999   0.04475   0.00000  Uiso   1.00
C589   C     0.44476   0.89139   0.47291   0.00000  Uiso   1.00
C590   C     0.55524   0.77529   0.02709   0.00000  Uiso   1.00
Cu591  Cu    0.50000   0.88022   0.25000   0.00000  Uiso   1.00
Cu592  Cu    0.50000   0.78645   0.25000   0.00000  Uiso   1.00
N593   N     0.50000   0.95069   0.25000   0.00000  Uiso   1.00
N594   N     0.50000   0.71598   0.25000   0.00000  Uiso   1.00
O595   O     0.43988   0.87291   0.25000   0.00000  Uiso   1.00
O596   O     0.56012   0.79375   0.25001   0.00000  Uiso   1.00
O597   O     0.56012   0.87291   0.25001   0.00000  Uiso   1.00
O598   O     0.43988   0.79375   0.25000   0.00000  Uiso   1.00
O599   O     0.49999   0.87293   0.18513   0.00000  Uiso   1.00
O600   O     0.50001   0.79373   0.31487   0.00000  Uiso   1.00
O601   O     0.50001   0.87293   0.31487   0.00000  Uiso   1.00
O602   O     0.49999   0.79373   0.18513   0.00000  Uiso   1.00
O603   O     0.56483   0.79068   0.38869   0.00000  Uiso   1.00
H604   H     0.56977   0.80812   0.36126   0.00000  Uiso   1.00
O605   O     0.43517   0.87599   0.11131   0.00000  Uiso   1.00
H606   H     0.43023   0.85855   0.13875   0.00000  Uiso   1.00
O607   O     0.43451   0.87503   0.38055   0.00000  Uiso   1.00
H608   H     0.43049   0.85915   0.35163   0.00000  Uiso   1.00
O609   O     0.56550   0.79165   0.11945   0.00000  Uiso   1.00
H610   H     0.56951   0.80752   0.14838   0.00000  Uiso   1.00
O611   O     0.42079   0.92441   0.45037   0.00000  Uiso   1.00
H612   H     0.43825   0.93959   0.42883   0.00000  Uiso   1.00
O613   O     0.57922   0.74227   0.04963   0.00000  Uiso   1.00
H614   H     0.56176   0.72709   0.07117   0.00000  Uiso   1.00
N615   N     0.41521   0.92005   0.03992   0.00000  Uiso   1.00
H616   H     0.38526   0.91334   0.02704   0.00000  Uiso   1.00
H617   H     0.42252   0.95413   0.03202   0.00000  Uiso   1.00
N618   N     0.58480   0.74662   0.46009   0.00000  Uiso   1.00
H619   H     0.61475   0.75334   0.47296   0.00000  Uiso   1.00
H620   H     0.57750   0.71254   0.46798   0.00000  Uiso   1.00
N621   N     0.38157   0.77312   0.30745   0.00000  Uiso   1.00
H622   H     0.37361   0.73878   0.30089   0.00000  Uiso   1.00
H623   H     0.37552   0.78087   0.34024   0.00000  Uiso   1.00
N624   N     0.61842   0.89353   0.19253   0.00000  Uiso   1.00
H625   H     0.62447   0.88576   0.15974   0.00000  Uiso   1.00
H626   H     0.62638   0.92787   0.19906   0.00000  Uiso   1.00
N627   N     0.62706   0.77172   0.30714   0.00000  Uiso   1.00
H628   H     0.63464   0.73769   0.29934   0.00000  Uiso   1.00
H629   H     0.63762   0.77833   0.33991   0.00000  Uiso   1.00
N630   N     0.37294   0.89494   0.19285   0.00000  Uiso   1.00
H631   H     0.36238   0.88835   0.16009   0.00000  Uiso   1.00
H632   H     0.36536   0.92898   0.20066   0.00000  Uiso   1.00
O633   O     0.45749   0.71296   0.18184   0.00000  Uiso   1.00
H634   H     0.44572   0.74157   0.19319   0.00000  Uiso   1.00
O635   O     0.54251   0.95371   0.31816   0.00000  Uiso   1.00
H636   H     0.55428   0.92510   0.30681   0.00000  Uiso   1.00
O637   O     0.54238   0.71163   0.31818   0.00000  Uiso   1.00
H638   H     0.55274   0.74092   0.30704   0.00000  Uiso   1.00
O639   O     0.45762   0.95504   0.18182   0.00000  Uiso   1.00
H640   H     0.44726   0.92575   0.19296   0.00000  Uiso   1.00
C641   C     0.75421   0.83347   0.24957   0.00000  Uiso   1.00
C642   C     0.91246   0.83320   0.25043   0.00000  Uiso   1.00
C643   C     0.77641   0.88950   0.01908   0.00000  Uiso   1.00
C644   C     0.89026   0.77717   0.48092   0.00000  Uiso   1.00
C645   C     0.69030   0.80281   0.27801   0.00000  Uiso   1.00
C646   C     0.97637   0.86385   0.22198   0.00000  Uiso   1.00
C647   C     0.98055   0.80238   0.27807   0.00000  Uiso   1.00
C648   C     0.68611   0.86429   0.22192   0.00000  Uiso   1.00
C649   C     0.95715   0.83302   0.25017   0.00000  Uiso   1.00
C650   C     0.70951   0.83364   0.24982   0.00000  Uiso   1.00
C651   C     0.81290   0.69143   0.21646   0.00000  Uiso   1.00
C652   C     0.85377   0.97524   0.28354   0.00000  Uiso   1.00
C653   C     0.85370   0.69077   0.28357   0.00000  Uiso   1.00
C654   C     0.81297   0.97590   0.21643   0.00000  Uiso   1.00
C655   C     0.83334   0.83338   0.16469   0.00000  Uiso   1.00
C656   C     0.83332   0.83328   0.33531   0.00000  Uiso   1.00
C657   C     0.86508   0.81000   0.40877   0.00000  Uiso   1.00
C658   C     0.80159   0.85667   0.09123   0.00000  Uiso   1.00
C659   C     0.83341   0.83335   0.38360   0.00000  Uiso   1.00
C660   C     0.83326   0.83332   0.11640   0.00000  Uiso   1.00
C661   C     0.80214   0.85727   0.40451   0.00000  Uiso   1.00
C662   C     0.86453   0.80940   0.09549   0.00000  Uiso   1.00
C663   C     0.80483   0.86145   0.45108   0.00000  Uiso   1.00
C664   C     0.86184   0.80522   0.04892   0.00000  Uiso   1.00
C665   C     0.83366   0.83365   0.47658   0.00000  Uiso   1.00
C666   C     0.83301   0.83302   0.02342   0.00000  Uiso   1.00
C667   C     0.86322   0.80668   0.45525   0.00000  Uiso   1.00
C668   C     0.80345   0.85999   0.04475   0.00000  Uiso   1.00
C669   C     0.77810   0.89139   0.47291   0.00000  Uiso   1.00
C670   C     0.88858   0.77529   0.02709   0.00000  Uiso   1.00
Cu671  Cu    0.83333   0.88022   0.25000   0.00000  Uiso   1.00
Cu672  Cu    0.83333   0.78645   0.25000   0.00000  Uiso   1.00
N673   N     0.83333   0.95069   0.25000   0.00000  Uiso   1.00
N674   N     0.83333   0.71598   0.25000   0.00000  Uiso   1.00
O675   O     0.77321   0.87291   0.25000   0.00000  Uiso   1.00
O676   O     0.89345   0.79375   0.25001   0.00000  Uiso   1.00
O677   O     0.89345   0.87291   0.25001   0.00000  Uiso   1.00
O678   O     0.77321   0.79375   0.25000   0.00000  Uiso   1.00
O679   O     0.83332   0.87293   0.18513   0.00000  Uiso   1.00
O680   O     0.83334   0.79373   0.31487   0.00000  Uiso   1.00
O681   O     0.83334   0.87293   0.31487   0.00000  Uiso   1.00
O682   O     0.83332   0.79373   0.18513   0.00000  Uiso   1.00
O683   O     0.89817   0.79068   0.38869   0.00000  Uiso   1.00
H684   H     0.90311   0.80812   0.36126   0.00000  Uiso   1.00
O685   O     0.76850   0.87599   0.11131   0.00000  Uiso   1.00
H686   H     0.76356   0.85855   0.13875   0.00000  Uiso   1.00
O687   O     0.76784   0.87503   0.38055   0.00000  Uiso   1.00
H688   H     0.76382   0.85915   0.35163   0.00000  Uiso   1.00
O689   O     0.89883   0.79165   0.11945   0.00000  Uiso   1.00
H690   H     0.90285   0.80752   0.14838   0.00000  Uiso   1.00
O691   O     0.75412   0.92441   0.45037   0.00000  Uiso   1.00
H692   H     0.77159   0.93959   0.42883   0.00000  Uiso   1.00
O693   O     0.91255   0.74227   0.04963   0.00000  Uiso   1.00
H694   H     0.89509   0.72709   0.07117   0.00000  Uiso   1.00
N695   N     0.74854   0.92005   0.03992   0.00000  Uiso   1.00
H696   H     0.71860   0.91334   0.02704   0.00000  Uiso   1.00
H697   H     0.75585   0.95413   0.03202   0.00000  Uiso   1.00
N698   N     0.91814   0.74662   0.46009   0.00000  Uiso   1.00
H699   H     0.94808   0.75334   0.47296   0.00000  Uiso   1.00
H700   H     0.91083   0.71254   0.46798   0.00000  Uiso   1.00
N701   N     0.71491   0.77312   0.30745   0.00000  Uiso   1.00
H702   H     0.70695   0.73878   0.30089   0.00000  Uiso   1.00
H703   H     0.70886   0.78087   0.34024   0.00000  Uiso   1.00
N704   N     0.95175   0.89353   0.19253   0.00000  Uiso   1.00
H705   H     0.95780   0.88576   0.15974   0.00000  Uiso   1.00
H706   H     0.95972   0.92787   0.19906   0.00000  Uiso   1.00
N707   N     0.96039   0.77172   0.30714   0.00000  Uiso   1.00
H708   H     0.96797   0.73769   0.29934   0.00000  Uiso   1.00
H709   H     0.97095   0.77833   0.33991   0.00000  Uiso   1.00
N710   N     0.70628   0.89494   0.19285   0.00000  Uiso   1.00
H711   H     0.69571   0.88835   0.16009   0.00000  Uiso   1.00
H712   H     0.69870   0.92898   0.20066   0.00000  Uiso   1.00
O713   O     0.79083   0.71296   0.18184   0.00000  Uiso   1.00
H714   H     0.77906   0.74157   0.19319   0.00000  Uiso   1.00
O715   O     0.87584   0.95371   0.31816   0.00000  Uiso   1.00
H716   H     0.88761   0.92510   0.30681   0.00000  Uiso   1.00
O717   O     0.87571   0.71163   0.31818   0.00000  Uiso   1.00
H718   H     0.88608   0.74092   0.30704   0.00000  Uiso   1.00
O719   O     0.79096   0.95504   0.18182   0.00000  Uiso   1.00
H720   H     0.78059   0.92575   0.19296   0.00000  Uiso   1.00
C721   C     0.08754   0.16681   0.74957   0.00000  Uiso   1.00
C722   C     0.24579   0.16653   0.75043   0.00000  Uiso   1.00
C723   C     0.10975   0.22283   0.51908   0.00000  Uiso   1.00
C724   C     0.22359   0.11050   0.98092   0.00000  Uiso   1.00
C725   C     0.02363   0.13614   0.77801   0.00000  Uiso   1.00
C726   C     0.30970   0.19719   0.72198   0.00000  Uiso   1.00
C727   C     0.31388   0.13571   0.77807   0.00000  Uiso   1.00
C728   C     0.01945   0.19762   0.72192   0.00000  Uiso   1.00
C729   C     0.29049   0.16636   0.75017   0.00000  Uiso   1.00
C730   C     0.04284   0.16697   0.74982   0.00000  Uiso   1.00
C731   C     0.14623   0.02476   0.71646   0.00000  Uiso   1.00
C732   C     0.18710   0.30857   0.78354   0.00000  Uiso   1.00
C733   C     0.18703   0.02410   0.78357   0.00000  Uiso   1.00
C734   C     0.14630   0.30923   0.71643   0.00000  Uiso   1.00
C735   C     0.16668   0.16672   0.66469   0.00000  Uiso   1.00
C736   C     0.16666   0.16662   0.83531   0.00000  Uiso   1.00
C737   C     0.19841   0.14333   0.90877   0.00000  Uiso   1.00
C738   C     0.13492   0.19000   0.59123   0.00000  Uiso   1.00
C739   C     0.16674   0.16668   0.88360   0.00000  Uiso   1.00
C740   C     0.16660   0.16665   0.61640   0.00000  Uiso   1.00
C741   C     0.13547   0.19061   0.90451   0.00000  Uiso   1.00
C742   C     0.19787   0.14273   0.59549   0.00000  Uiso   1.00
C743   C     0.13817   0.19478   0.95108   0.00000  Uiso   1.00
C744   C     0.19517   0.13856   0.54892   0.00000  Uiso   1.00
C745   C     0.16699   0.16699   0.97658   0.00000  Uiso   1.00
C746   C     0.16635   0.16635   0.52342   0.00000  Uiso   1.00
C747   C     0.19656   0.14001   0.95525   0.00000  Uiso   1.00
C748   C     0.13678   0.19332   0.54475   0.00000  Uiso   1.00
C749   C     0.11143   0.22472   0.97291   0.00000  Uiso   1.00
C750   C     0.22191   0.10862   0.52709   0.00000  Uiso   1.00
Cu751  Cu    0.16667   0.21355   0.75000   0.00000  Uiso   1.00
Cu752  Cu    0.16667   0.11978   0.75000   0.00000  Uiso   1.00
N753   N     0.16667   0.28402   0.75000   0.00000  Uiso   1.00
N754   N     0.16667   0.04931   0.75000   0.00000  Uiso   1.00
O755   O     0.10655   0.20625   0.75000   0.00000  Uiso   1.00
O756   O     0.22679   0.12709   0.75001   0.00000  Uiso   1.00
O757   O     0.22679   0.20625   0.75001   0.00000  Uiso   1.00
O758   O     0.10655   0.12709   0.75000   0.00000  Uiso   1.00
O759   O     0.16666   0.20627   0.68513   0.00000  Uiso   1.00
O760   O     0.16668   0.12707   0.81487   0.00000  Uiso   1.00
O761   O     0.16668   0.20627   0.81487   0.00000  Uiso   1.00
O762   O     0.16666   0.12707   0.68513   0.00000  Uiso   1.00
O763   O     0.23150   0.12401   0.88869   0.00000  Uiso   1.00
H764   H     0.23644   0.14146   0.86126   0.00000  Uiso   1.00
O765   O     0.10183   0.20932   0.61131   0.00000  Uiso   1.00
H766   H     0.09690   0.19188   0.63875   0.00000  Uiso   1.00
O767   O     0.10118   0.20836   0.88055   0.00000  Uiso   1.00
H768   H     0.09716   0.19249   0.85163   0.00000  Uiso   1.00
O769   O     0.23216   0.12498   0.61945   0.00000  Uiso   1.00
H770   H     0.23618   0.14086   0.64838   0.00000  Uiso   1.00
O771   O     0.08746   0.25774   0.95037   0.00000  Uiso   1.00
H772   H     0.10492   0.27292   0.92883   0.00000  Uiso   1.00
O773   O     0.24589   0.07561   0.54963   0.00000  Uiso   1.00
H774   H     0.22843   0.06042   0.57117   0.00000  Uiso   1.00
N775   N     0.08188   0.25339   0.53992   0.00000  Uiso   1.00
H776   H     0.05193   0.24667   0.52704   0.00000  Uiso   1.00
H777   H     0.08918   0.28747   0.53202   0.00000  Uiso   1.00
N778   N     0.25147   0.07996   0.96009   0.00000  Uiso   1.00
H779   H     0.28142   0.08667   0.97296   0.00000  Uiso   1.00
H780   H     0.24417   0.04587   0.96798   0.00000  Uiso   1.00
N781   N     0.04824   0.10645   0.80745   0.00000  Uiso   1.00
H782   H     0.04028   0.07211   0.80089   0.00000  Uiso   1.00
H783   H     0.04219   0.11420   0.84024   0.00000  Uiso   1.00
N784   N     0.28509   0.22686   0.69253   0.00000  Uiso   1.00
H785   H     0.29113   0.21910   0.65974   0.00000  Uiso   1.00
H786   H     0.29305   0.26121   0.69906   0.00000  Uiso   1.00
N787   N     0.29372   0.10506   0.80714   0.00000  Uiso   1.00
H788   H     0.30131   0.07102   0.79934   0.00000  Uiso   1.00
H789   H     0.30429   0.11166   0.83991   0.00000  Uiso   1.00
N790   N     0.03961   0.22828   0.69285   0.00000  Uiso   1.00
H791   H     0.02904   0.22168   0.66009   0.00000  Uiso   1.00
H792   H     0.03203   0.26231   0.70066   0.00000  Uiso   1.00
O793   O     0.12416   0.04629   0.68184   0.00000  Uiso   1.00
H794   H     0.11239   0.07490   0.69319   0.00000  Uiso   1.00
O795   O     0.20917   0.28704   0.81816   0.00000  Uiso   1.00
H796   H     0.22094   0.25843   0.80681   0.00000  Uiso   1.00
O797   O     0.20905   0.04496   0.81818   0.00000  Uiso   1.00
H798   H     0.21941   0.07425   0.80704   0.00000  Uiso   1.00
O799   O     0.12429   0.28837   0.68182   0.00000  Uiso   1.00
H800   H     0.11392   0.25908   0.69296   0.00000  Uiso   1.00
C801   C     0.42087   0.16681   0.74957   0.00000  Uiso   1.00
C802   C     0.57913   0.16653   0.75043   0.00000  Uiso   1.00
C803   C     0.44308   0.22283   0.51908   0.00000  Uiso   1.00
C804   C     0.55693   0.11050   0.98092   0.00000  Uiso   1.00
C805   C     0.35696   0.13614   0.77801   0.00000  Uiso   1.00
C806   C     0.64304   0.19719   0.72198   0.00000  Uiso   1.00
C807   C     0.64722   0.13571   0.77807   0.00000  Uiso   1.00
C808   C     0.35278   0.19762   0.72192   0.00000  Uiso   1.00
C809   C     0.62382   0.16636   0.75017   0.00000  Uiso   1.00
C810   C     0.37618   0.16697   0.74982   0.00000  Uiso   1.00
C811   C     0.47956   0.02476   0.71646   0.00000  Uiso   1.00
C812   C     0.52044   0.30857   0.78354   0.00000  Uiso   1.00
C813   C     0.52037   0.02410   0.78357   0.00000  Uiso   1.00
C814   C     0.47963   0.30923   0.71643   0.00000  Uiso   1.00
C815   C     0.50001   0.16672   0.66469   0.00000  Uiso   1.00
C816   C     0.49999   0.16662   0.83531   0.00000  Uiso   1.00
C817   C     0.53174   0.14333   0.90877   0.00000  Uiso   1.00
C818   C     0.46826   0.19000   0.59123   0.00000  Uiso   1.00
C819   C     0.50007   0.16668   0.88360   0.00000  Uiso   1.00
C820   C     0.49993   0.16665   0.61640   0.00000  Uiso   1.00
C821   C     0.46881   0.19061   0.90451   0.00000  Uiso   1.00
C822   C     0.53120   0.14273   0.59549   0.00000  Uiso   1.00
C823   C     0.47150   0.19478   0.95108   0.00000  Uiso   1.00
C824   C     0.52851   0.13856   0.54892   0.00000  Uiso   1.00
C825   C     0.50033   0.16699   0.97658   0.00000  Uiso   1.00
C826   C     0.49968   0.16635   0.52342   0.00000  Uiso   1.00
C827   C     0.52989   0.14001   0.95525   0.00000  Uiso   1.00
C828   C     0.47011   0.19332   0.54475   0.00000  Uiso   1.00
C829   C     0.44476   0.22472   0.97291   0.00000  Uiso   1.00
C830   C     0.55524   0.10862   0.52709   0.00000  Uiso   1.00
Cu831  Cu    0.50000   0.21355   0.75000   0.00000  Uiso   1.00
Cu832  Cu    0.50000   0.11978   0.75000   0.00000  Uiso   1.00
N833   N     0.50000   0.28402   0.75000   0.00000  Uiso   1.00
N834   N     0.50000   0.04931   0.75000   0.00000  Uiso   1.00
O835   O     0.43988   0.20625   0.75000   0.00000  Uiso   1.00
O836   O     0.56012   0.12709   0.75001   0.00000  Uiso   1.00
O837   O     0.56012   0.20625   0.75001   0.00000  Uiso   1.00
O838   O     0.43988   0.12709   0.75000   0.00000  Uiso   1.00
O839   O     0.49999   0.20627   0.68513   0.00000  Uiso   1.00
O840   O     0.50001   0.12707   0.81487   0.00000  Uiso   1.00
O841   O     0.50001   0.20627   0.81487   0.00000  Uiso   1.00
O842   O     0.49999   0.12707   0.68513   0.00000  Uiso   1.00
O843   O     0.56483   0.12401   0.88869   0.00000  Uiso   1.00
H844   H     0.56977   0.14146   0.86126   0.00000  Uiso   1.00
O845   O     0.43517   0.20932   0.61131   0.00000  Uiso   1.00
H846   H     0.43023   0.19188   0.63875   0.00000  Uiso   1.00
O847   O     0.43451   0.20836   0.88055   0.00000  Uiso   1.00
H848   H     0.43049   0.19249   0.85163   0.00000  Uiso   1.00
O849   O     0.56550   0.12498   0.61945   0.00000  Uiso   1.00
H850   H     0.56951   0.14086   0.64838   0.00000  Uiso   1.00
O851   O     0.42079   0.25774   0.95037   0.00000  Uiso   1.00
H852   H     0.43825   0.27292   0.92883   0.00000  Uiso   1.00
O853   O     0.57922   0.07561   0.54963   0.00000  Uiso   1.00
H854   H     0.56176   0.06042   0.57117   0.00000  Uiso   1.00
N855   N     0.41521   0.25339   0.53992   0.00000  Uiso   1.00
H856   H     0.38526   0.24667   0.52704   0.00000  Uiso   1.00
H857   H     0.42252   0.28747   0.53202   0.00000  Uiso   1.00
N858   N     0.58480   0.07996   0.96009   0.00000  Uiso   1.00
H859   H     0.61475   0.08667   0.97296   0.00000  Uiso   1.00
H860   H     0.57750   0.04587   0.96798   0.00000  Uiso   1.00
N861   N     0.38157   0.10645   0.80745   0.00000  Uiso   1.00
H862   H     0.37361   0.07211   0.80089   0.00000  Uiso   1.00
H863   H     0.37552   0.11420   0.84024   0.00000  Uiso   1.00
N864   N     0.61842   0.22686   0.69253   0.00000  Uiso   1.00
H865   H     0.62447   0.21910   0.65974   0.00000  Uiso   1.00
H866   H     0.62638   0.26121   0.69906   0.00000  Uiso   1.00
N867   N     0.62706   0.10506   0.80714   0.00000  Uiso   1.00
H868   H     0.63464   0.07102   0.79934   0.00000  Uiso   1.00
H869   H     0.63762   0.11166   0.83991   0.00000  Uiso   1.00
N870   N     0.37294   0.22828   0.69285   0.00000  Uiso   1.00
H871   H     0.36238   0.22168   0.66009   0.00000  Uiso   1.00
H872   H     0.36536   0.26231   0.70066   0.00000  Uiso   1.00
O873   O     0.45749   0.04629   0.68184   0.00000  Uiso   1.00
H874   H     0.44572   0.07490   0.69319   0.00000  Uiso   1.00
O875   O     0.54251   0.28704   0.81816   0.00000  Uiso   1.00
H876   H     0.55428   0.25843   0.80681   0.00000  Uiso   1.00
O877   O     0.54238   0.04496   0.81818   0.00000  Uiso   1.00
H878   H     0.55274   0.07425   0.80704   0.00000  Uiso   1.00
O879   O     0.45762   0.28837   0.68182   0.00000  Uiso   1.00
H880   H     0.44726   0.25908   0.69296   0.00000  Uiso   1.00
C881   C     0.75421   0.16681   0.74957   0.00000  Uiso   1.00
C882   C     0.91246   0.16653   0.75043   0.00000  Uiso   1.00
C883   C     0.77641   0.22283   0.51908   0.00000  Uiso   1.00
C884   C     0.89026   0.11050   0.98092   0.00000  Uiso   1.00
C885   C     0.69030   0.13614   0.77801   0.00000  Uiso   1.00
C886   C     0.97637   0.19719   0.72198   0.00000  Uiso   1.00
C887   C     0.98055   0.13571   0.77807   0.00000  Uiso   1.00
C888   C     0.68611   0.19762   0.72192   0.00000  Uiso   1.00
C889   C     0.95715   0.16636   0.75017   0.00000  Uiso   1.00
C890   C     0.70951   0.16697   0.74982   0.00000  Uiso   1.00
C891   C     0.81290   0.02476   0.71646   0.00000  Uiso   1.00
C892   C     0.85377   0.30857   0.78354   0.00000  Uiso   1.00
C893   C     0.85370   0.02410   0.78357   0.00000  Uiso   1.00
C894   C     0.81297   0.30923   0.71643   0.00000  Uiso   1.00
C895   C     0.83334   0.16672   0.66469   0.00000  Uiso   1.00
C896   C     0.83332   0.16662   0.83531   0.00000  Uiso   1.00
C897   C     0.86508   0.14333   0.90877   0.00000  Uiso   1.00
C898   C     0.80159   0.19000   0.59123   0.00000  Uiso   1.00
C899   C     0.83341   0.16668   0.88360   0.00000  Uiso   1.00
C900   C     0.83326   0.16665   0.61640   0.00000  Uiso   1.00
C901   C     0.80214   0.19061   0.90451   0.00000  Uiso   1.00
C902   C     0.86453   0.14273   0.59549   0.00000  Uiso   1.00
C903   C     0.80483   0.19478   0.95108   0.00000  Uiso   1.00
C904   C     0.86184   0.13856   0.54892   0.00000  Uiso   1.00
C905   C     0.83366   0.16699   0.97658   0.00000  Uiso   1.00
C906   C     0.83301   0.16635   0.52342   0.00000  Uiso   1.00
C907   C     0.86322   0.14001   0.95525   0.00000  Uiso   1.00
C908   C     0.80345   0.19332   0.54475   0.00000  Uiso   1.00
C909   C     0.77810   0.22472   0.97291   0.00000  Uiso   1.00
C910   C     0.88858   0.10862   0.52709   0.00000  Uiso   1.00
Cu911  Cu    0.83333   0.21355   0.75000   0.00000  Uiso   1.00
Cu912  Cu    0.83333   0.11978   0.75000   0.00000  Uiso   1.00
N913   N     0.83333   0.28402   0.75000   0.00000  Uiso   1.00
N914   N     0.83333   0.04931   0.75000   0.00000  Uiso   1.00
O915   O     0.77321   0.20625   0.75000   0.00000  Uiso   1.00
O916   O     0.89345   0.12709   0.75001   0.00000  Uiso   1.00
O917   O     0.89345   0.20625   0.75001   0.00000  Uiso   1.00
O918   O     0.77321   0.12709   0.75000   0.00000  Uiso   1.00
O919   O     0.83332   0.20627   0.68513   0.00000  Uiso   1.00
O920   O     0.83334   0.12707   0.81487   0.00000  Uiso   1.00
O921   O     0.83334   0.20627   0.81487   0.00000  Uiso   1.00
O922   O     0.83332   0.12707   0.68513   0.00000  Uiso   1.00
O923   O     0.89817   0.12401   0.88869   0.00000  Uiso   1.00
H924   H     0.90311   0.14146   0.86126   0.00000  Uiso   1.00
O925   O     0.76850   0.20932   0.61131   0.00000  Uiso   1.00
H926   H     0.76356   0.19188   0.63875   0.00000  Uiso   1.00
O927   O     0.76784   0.20836   0.88055   0.00000  Uiso   1.00
H928   H     0.76382   0.19249   0.85163   0.00000  Uiso   1.00
O929   O     0.89883   0.12498   0.61945   0.00000  Uiso   1.00
H930   H     0.90285   0.14086   0.64838   0.00000  Uiso   1.00
O931   O     0.75412   0.25774   0.95037   0.00000  Uiso   1.00
H932   H     0.77159   0.27292   0.92883   0.00000  Uiso   1.00
O933   O     0.91255   0.07561   0.54963   0.00000  Uiso   1.00
H934   H     0.89509   0.06042   0.57117   0.00000  Uiso   1.00
N935   N     0.74854   0.25339   0.53992   0.00000  Uiso   1.00
H936   H     0.71860   0.24667   0.52704   0.00000  Uiso   1.00
H937   H     0.75585   0.28747   0.53202   0.00000  Uiso   1.00
N938   N     0.91814   0.07996   0.96009   0.00000  Uiso   1.00
H939   H     0.94808   0.08667   0.97296   0.00000  Uiso   1.00
H940   H     0.91083   0.04587   0.96798   0.00000  Uiso   1.00
N941   N     0.71491   0.10645   0.80745   0.00000  Uiso   1.00
H942   H     0.70695   0.07211   0.80089   0.00000  Uiso   1.00
H943   H     0.70886   0.11420   0.84024   0.00000  Uiso   1.00
N944   N     0.95175   0.22686   0.69253   0.00000  Uiso   1.00
H945   H     0.95780   0.21910   0.65974   0.00000  Uiso   1.00
H946   H     0.95972   0.26121   0.69906   0.00000  Uiso   1.00
N947   N     0.96039   0.10506   0.80714   0.00000  Uiso   1.00
H948   H     0.96797   0.07102   0.79934   0.00000  Uiso   1.00
H949   H     0.97095   0.11166   0.83991   0.00000  Uiso   1.00
N950   N     0.70628   0.22828   0.69285   0.00000  Uiso   1.00
H951   H     0.69571   0.22168   0.66009   0.00000  Uiso   1.00
H952   H     0.69870   0.26231   0.70066   0.00000  Uiso   1.00
O953   O     0.79083   0.04629   0.68184   0.00000  Uiso   1.00
H954   H     0.77906   0.07490   0.69319   0.00000  Uiso   1.00
O955   O     0.87584   0.28704   0.81816   0.00000  Uiso   1.00
H956   H     0.88761   0.25843   0.80681   0.00000  Uiso   1.00
O957   O     0.87571   0.04496   0.81818   0.00000  Uiso   1.00
H958   H     0.88608   0.07425   0.80704   0.00000  Uiso   1.00
O959   O     0.79096   0.28837   0.68182   0.00000  Uiso   1.00
H960   H     0.78059   0.25908   0.69296   0.00000  Uiso   1.00
C961   C     0.08754   0.50014   0.74957   0.00000  Uiso   1.00
C962   C     0.24579   0.49986   0.75043   0.00000  Uiso   1.00
C963   C     0.10975   0.55617   0.51908   0.00000  Uiso   1.00
C964   C     0.22359   0.44384   0.98092   0.00000  Uiso   1.00
C965   C     0.02363   0.46948   0.77801   0.00000  Uiso   1.00
C966   C     0.30970   0.53052   0.72198   0.00000  Uiso   1.00
C967   C     0.31388   0.46904   0.77807   0.00000  Uiso   1.00
C968   C     0.01945   0.53096   0.72192   0.00000  Uiso   1.00
C969   C     0.29049   0.49969   0.75017   0.00000  Uiso   1.00
C970   C     0.04284   0.50031   0.74982   0.00000  Uiso   1.00
C971   C     0.14623   0.35809   0.71646   0.00000  Uiso   1.00
C972   C     0.18710   0.64191   0.78354   0.00000  Uiso   1.00
C973   C     0.18703   0.35744   0.78357   0.00000  Uiso   1.00
C974   C     0.14630   0.64256   0.71643   0.00000  Uiso   1.00
C975   C     0.16668   0.50005   0.66469   0.00000  Uiso   1.00
C976   C     0.16666   0.49995   0.83531   0.00000  Uiso   1.00
C977   C     0.19841   0.47666   0.90877   0.00000  Uiso   1.00
C978   C     0.13492   0.52334   0.59123   0.00000  Uiso   1.00
C979   C     0.16674   0.50002   0.88360   0.00000  Uiso   1.00
C980   C     0.16660   0.49998   0.61640   0.00000  Uiso   1.00
C981   C     0.13547   0.52394   0.90451   0.00000  Uiso   1.00
C982   C     0.19787   0.47607   0.59549   0.00000  Uiso   1.00
C983   C     0.13817   0.52811   0.95108   0.00000  Uiso   1.00
C984   C     0.19517   0.47189   0.54892   0.00000  Uiso   1.00
C985   C     0.16699   0.50032   0.97658   0.00000  Uiso   1.00
C986   C     0.16635   0.49968   0.52342   0.00000  Uiso   1.00
C987   C     0.19656   0.47335   0.95525   0.00000  Uiso   1.00
C988   C     0.13678   0.52665   0.54475   0.00000  Uiso   1.00
C989   C     0.11143   0.55805   0.97291   0.00000  Uiso   1.00
C990   C     0.22191   0.44196   0.52709   0.00000  Uiso   1.00
Cu991  Cu    0.16667   0.54689   0.75000   0.00000  Uiso   1.00
Cu992  Cu    0.16667   0.45311   0.75000   0.00000  Uiso   1.00
N993   N     0.16667   0.61736   0.75000   0.00000  Uiso   1.00
N994   N     0.16667   0.38264   0.75000   0.00000  Uiso   1.00
O995   O     0.10655   0.53958   0.75000   0.00000  Uiso   1.00
O996   O     0.22679   0.46042   0.75001   0.00000  Uiso   1.00
O997   O     0.22679   0.53958   0.75001   0.00000  Uiso   1.00
O998   O     0.10655   0.46042   0.75000   0.00000  Uiso   1.00
O999   O     0.16666   0.53960   0.68513   0.00000  Uiso   1.00
O1000  O     0.16668   0.46040   0.81487   0.00000  Uiso   1.00
O1001  O     0.16668   0.53960   0.81487   0.00000  Uiso   1.00
O1002  O     0.16666   0.46040   0.68513   0.00000  Uiso   1.00
O1003  O     0.23150   0.45735   0.88869   0.00000  Uiso   1.00
H1004  H     0.23644   0.47479   0.86126   0.00000  Uiso   1.00
O1005  O     0.10183   0.54265   0.61131   0.00000  Uiso   1.00
H1006  H     0.09690   0.52522   0.63875   0.00000  Uiso   1.00
O1007  O     0.10118   0.54170   0.88055   0.00000  Uiso   1.00
H1008  H     0.09716   0.52582   0.85163   0.00000  Uiso   1.00
O1009  O     0.23216   0.45831   0.61945   0.00000  Uiso   1.00
H1010  H     0.23618   0.47419   0.64838   0.00000  Uiso   1.00
O1011  O     0.08746   0.59107   0.95037   0.00000  Uiso   1.00
H1012  H     0.10492   0.60626   0.92883   0.00000  Uiso   1.00
O1013  O     0.24589   0.40894   0.54963   0.00000  Uiso   1.00
H1014  H     0.22843   0.39375   0.57117   0.00000  Uiso   1.00
N1015  N     0.08188   0.58672   0.53992   0.00000  Uiso   1.00
H1016  H     0.05193   0.58001   0.52704   0.00000  Uiso   1.00
H1017  H     0.08918   0.62080   0.53202   0.00000  Uiso   1.00
N1018  N     0.25147   0.41329   0.96009   0.00000  Uiso   1.00
H1019  H     0.28142   0.42001   0.97296   0.00000  Uiso   1.00
H1020  H     0.24417   0.37921   0.96798   0.00000  Uiso   1.00
N1021  N     0.04824   0.43979   0.80745   0.00000  Uiso   1.00
H1022  H     0.04028   0.40545   0.80089   0.00000  Uiso   1.00
H1023  H     0.04219   0.44753   0.84024   0.00000  Uiso   1.00
N1024  N     0.28509   0.56019   0.69253   0.00000  Uiso   1.00
H1025  H     0.29113   0.55243   0.65974   0.00000  Uiso   1.00
H1026  H     0.29305   0.59454   0.69906   0.00000  Uiso   1.00
N1027  N     0.29372   0.43839   0.80714   0.00000  Uiso   1.00
H1028  H     0.30131   0.40436   0.79934   0.00000  Uiso   1.00
H1029  H     0.30429   0.44499   0.83991   0.00000  Uiso   1.00
N1030  N     0.03961   0.56161   0.69285   0.00000  Uiso   1.00
H1031  H     0.02904   0.55501   0.66009   0.00000  Uiso   1.00
H1032  H     0.03203   0.59564   0.70066   0.00000  Uiso   1.00
O1033  O     0.12416   0.37962   0.68184   0.00000  Uiso   1.00
H1034  H     0.11239   0.40824   0.69319   0.00000  Uiso   1.00
O1035  O     0.20917   0.62038   0.81816   0.00000  Uiso   1.00
H1036  H     0.22094   0.59176   0.80681   0.00000  Uiso   1.00
O1037  O     0.20905   0.37829   0.81818   0.00000  Uiso   1.00
H1038  H     0.21941   0.40758   0.80704   0.00000  Uiso   1.00
O1039  O     0.12429   0.62171   0.68182   0.00000  Uiso   1.00
H1040  H     0.11392   0.59242   0.69296   0.00000  Uiso   1.00
C1041  C     0.42087   0.50014   0.74957   0.00000  Uiso   1.00
C1042  C     0.57913   0.49986   0.75043   0.00000  Uiso   1.00
C1043  C     0.44308   0.55617   0.51908   0.00000  Uiso   1.00
C1044  C     0.55693   0.44384   0.98092   0.00000  Uiso   1.00
C1045  C     0.35696   0.46948   0.77801   0.00000  Uiso   1.00
C1046  C     0.64304   0.53052   0.72198   0.00000  Uiso   1.00
C1047  C     0.64722   0.46904   0.77807   0.00000  Uiso   1.00
C1048  C     0.35278   0.53096   0.72192   0.00000  Uiso   1.00
C1049  C     0.62382   0.49969   0.75017   0.00000  Uiso   1.00
C1050  C     0.37618   0.50031   0.74982   0.00000  Uiso   1.00
C1051  C     0.47956   0.35809   0.71646   0.00000  Uiso   1.00
C1052  C     0.52044   0.64191   0.78354   0.00000  Uiso   1.00
C1053  C     0.52037   0.35744   0.78357   0.00000  Uiso   1.00
C1054  C     0.47963   0.64256   0.71643   0.00000  Uiso   1.00
C1055  C     0.50001   0.50005   0.66469   0.00000  Uiso   1.00
C1056  C     0.49999   0.49995   0.83531   0.00000  Uiso   1.00
C1057  C     0.53174   0.47666   0.90877   0.00000  Uiso   1.00
C1058  C     0.46826   0.52334   0.59123   0.00000  Uiso   1.00
C1059  C     0.50007   0.50002   0.88360   0.00000  Uiso   1.00
C1060  C     0.49993   0.49998   0.61640   0.00000  Uiso   1.00
C1061  C     0.46881   0.52394   0.90451   0.00000  Uiso   1.00
C1062  C     0.53120   0.47607   0.59549   0.00000  Uiso   1.00
C1063  C     0.47150   0.52811   0.95108   0.00000  Uiso   1.00
C1064  C     0.52851   0.47189   0.54892   0.00000  Uiso   1.00
C1065  C     0.50033   0.50032   0.97658   0.00000  Uiso   1.00
C1066  C     0.49968   0.49968   0.52342   0.00000  Uiso   1.00
C1067  C     0.52989   0.47335   0.95525   0.00000  Uiso   1.00
C1068  C     0.47011   0.52665   0.54475   0.00000  Uiso   1.00
C1069  C     0.44476   0.55805   0.97291   0.00000  Uiso   1.00
C1070  C     0.55524   0.44196   0.52709   0.00000  Uiso   1.00
Cu1071 Cu    0.50000   0.54689   0.75000   0.00000  Uiso   1.00
Cu1072 Cu    0.50000   0.45311   0.75000   0.00000  Uiso   1.00
N1073  N     0.50000   0.61736   0.75000   0.00000  Uiso   1.00
N1074  N     0.50000   0.38264   0.75000   0.00000  Uiso   1.00
O1075  O     0.43988   0.53958   0.75000   0.00000  Uiso   1.00
O1076  O     0.56012   0.46042   0.75001   0.00000  Uiso   1.00
O1077  O     0.56012   0.53958   0.75001   0.00000  Uiso   1.00
O1078  O     0.43988   0.46042   0.75000   0.00000  Uiso   1.00
O1079  O     0.49999   0.53960   0.68513   0.00000  Uiso   1.00
O1080  O     0.50001   0.46040   0.81487   0.00000  Uiso   1.00
O1081  O     0.50001   0.53960   0.81487   0.00000  Uiso   1.00
O1082  O     0.49999   0.46040   0.68513   0.00000  Uiso   1.00
O1083  O     0.56483   0.45735   0.88869   0.00000  Uiso   1.00
H1084  H     0.56977   0.47479   0.86126   0.00000  Uiso   1.00
O1085  O     0.43517   0.54265   0.61131   0.00000  Uiso   1.00
H1086  H     0.43023   0.52522   0.63875   0.00000  Uiso   1.00
O1087  O     0.43451   0.54170   0.88055   0.00000  Uiso   1.00
H1088  H     0.43049   0.52582   0.85163   0.00000  Uiso   1.00
O1089  O     0.56550   0.45831   0.61945   0.00000  Uiso   1.00
H1090  H     0.56951   0.47419   0.64838   0.00000  Uiso   1.00
O1091  O     0.42079   0.59107   0.95037   0.00000  Uiso   1.00
H1092  H     0.43825   0.60626   0.92883   0.00000  Uiso   1.00
O1093  O     0.57922   0.40894   0.54963   0.00000  Uiso   1.00
H1094  H     0.56176   0.39375   0.57117   0.00000  Uiso   1.00
N1095  N     0.41521   0.58672   0.53992   0.00000  Uiso   1.00
H1096  H     0.38526   0.58001   0.52704   0.00000  Uiso   1.00
H1097  H     0.42252   0.62080   0.53202   0.00000  Uiso   1.00
N1098  N     0.58480   0.41329   0.96009   0.00000  Uiso   1.00
H1099  H     0.61475   0.42001   0.97296   0.00000  Uiso   1.00
H1100  H     0.57750   0.37921   0.96798   0.00000  Uiso   1.00
N1101  N     0.38157   0.43979   0.80745   0.00000  Uiso   1.00
H1102  H     0.37361   0.40545   0.80089   0.00000  Uiso   1.00
H1103  H     0.37552   0.44753   0.84024   0.00000  Uiso   1.00
N1104  N     0.61842   0.56019   0.69253   0.00000  Uiso   1.00
H1105  H     0.62447   0.55243   0.65974   0.00000  Uiso   1.00
H1106  H     0.62638   0.59454   0.69906   0.00000  Uiso   1.00
N1107  N     0.62706   0.43839   0.80714   0.00000  Uiso   1.00
H1108  H     0.63464   0.40436   0.79934   0.00000  Uiso   1.00
H1109  H     0.63762   0.44499   0.83991   0.00000  Uiso   1.00
N1110  N     0.37294   0.56161   0.69285   0.00000  Uiso   1.00
H1111  H     0.36238   0.55501   0.66009   0.00000  Uiso   1.00
H1112  H     0.36536   0.59564   0.70066   0.00000  Uiso   1.00
O1113  O     0.45749   0.37962   0.68184   0.00000  Uiso   1.00
H1114  H     0.44572   0.40824   0.69319   0.00000  Uiso   1.00
O1115  O     0.54251   0.62038   0.81816   0.00000  Uiso   1.00
H1116  H     0.55428   0.59176   0.80681   0.00000  Uiso   1.00
O1117  O     0.54238   0.37829   0.81818   0.00000  Uiso   1.00
H1118  H     0.55274   0.40758   0.80704   0.00000  Uiso   1.00
O1119  O     0.45762   0.62171   0.68182   0.00000  Uiso   1.00
H1120  H     0.44726   0.59242   0.69296   0.00000  Uiso   1.00
C1121  C     0.75421   0.50014   0.74957   0.00000  Uiso   1.00
C1122  C     0.91246   0.49986   0.75043   0.00000  Uiso   1.00
C1123  C     0.77641   0.55617   0.51908   0.00000  Uiso   1.00
C1124  C     0.89026   0.44384   0.98092   0.00000  Uiso   1.00
C1125  C     0.69030   0.46948   0.77801   0.00000  Uiso   1.00
C1126  C     0.97637   0.53052   0.72198   0.00000  Uiso   1.00
C1127  C     0.98055   0.46904   0.77807   0.00000  Uiso   1.00
C1128  C     0.68611   0.53096   0.72192   0.00000  Uiso   1.00
C1129  C     0.95715   0.49969   0.75017   0.00000  Uiso   1.00
C1130  C     0.70951   0.50031   0.74982   0.00000  Uiso   1.00
C1131  C     0.81290   0.35809   0.71646   0.00000  Uiso   1.00
C1132  C     0.85377   0.64191   0.78354   0.00000  Uiso   1.00
C1133  C     0.85370   0.35744   0.78357   0.00000  Uiso   1.00
C1134  C     0.81297   0.64256   0.71643   0.00000  Uiso   1.00
C1135  C     0.83334   0.50005   0.66469   0.00000  Uiso   1.00
C1136  C     0.83332   0.49995   0.83531   0.00000  Uiso   1.00
C1137  C     0.86508   0.47666   0.90877   0.00000  Uiso   1.00
C1138  C     0.80159   0.52334   0.59123   0.00000  Uiso   1.00
C1139  C     0.83341   0.50002   0.88360   0.00000  Uiso   1.00
C1140  C     0.83326   0.49998   0.61640   0.00000  Uiso   1.00
C1141  C     0.80214   0.52394   0.90451   0.00000  Uiso   1.00
C1142  C     0.86453   0.47607   0.59549   0.00000  Uiso   1.00
C1143  C     0.80483   0.52811   0.95108   0.00000  Uiso   1.00
C1144  C     0.86184   0.47189   0.54892   0.00000  Uiso   1.00
C1145  C     0.83366   0.50032   0.97658   0.00000  Uiso   1.00
C1146  C     0.83301   0.49968   0.52342   0.00000  Uiso   1.00
C1147  C     0.86322   0.47335   0.95525   0.00000  Uiso   1.00
C1148  C     0.80345   0.52665   0.54475   0.00000  Uiso   1.00
C1149  C     0.77810   0.55805   0.97291   0.00000  Uiso   1.00
C1150  C     0.88858   0.44196   0.52709   0.00000  Uiso   1.00
Cu1151 Cu    0.83333   0.54689   0.75000   0.00000  Uiso   1.00
Cu1152 Cu    0.83333   0.45311   0.75000   0.00000  Uiso   1.00
N1153  N     0.83333   0.61736   0.75000   0.00000  Uiso   1.00
N1154  N     0.83333   0.38264   0.75000   0.00000  Uiso   1.00
O1155  O     0.77321   0.53958   0.75000   0.00000  Uiso   1.00
O1156  O     0.89345   0.46042   0.75001   0.00000  Uiso   1.00
O1157  O     0.89345   0.53958   0.75001   0.00000  Uiso   1.00
O1158  O     0.77321   0.46042   0.75000   0.00000  Uiso   1.00
O1159  O     0.83332   0.53960   0.68513   0.00000  Uiso   1.00
O1160  O     0.83334   0.46040   0.81487   0.00000  Uiso   1.00
O1161  O     0.83334   0.53960   0.81487   0.00000  Uiso   1.00
O1162  O     0.83332   0.46040   0.68513   0.00000  Uiso   1.00
O1163  O     0.89817   0.45735   0.88869   0.00000  Uiso   1.00
H1164  H     0.90311   0.47479   0.86126   0.00000  Uiso   1.00
O1165  O     0.76850   0.54265   0.61131   0.00000  Uiso   1.00
H1166  H     0.76356   0.52522   0.63875   0.00000  Uiso   1.00
O1167  O     0.76784   0.54170   0.88055   0.00000  Uiso   1.00
H1168  H     0.76382   0.52582   0.85163   0.00000  Uiso   1.00
O1169  O     0.89883   0.45831   0.61945   0.00000  Uiso   1.00
H1170  H     0.90285   0.47419   0.64838   0.00000  Uiso   1.00
O1171  O     0.75412   0.59107   0.95037   0.00000  Uiso   1.00
H1172  H     0.77159   0.60626   0.92883   0.00000  Uiso   1.00
O1173  O     0.91255   0.40894   0.54963   0.00000  Uiso   1.00
H1174  H     0.89509   0.39375   0.57117   0.00000  Uiso   1.00
N1175  N     0.74854   0.58672   0.53992   0.00000  Uiso   1.00
H1176  H     0.71860   0.58001   0.52704   0.00000  Uiso   1.00
H1177  H     0.75585   0.62080   0.53202   0.00000  Uiso   1.00
N1178  N     0.91814   0.41329   0.96009   0.00000  Uiso   1.00
H1179  H     0.94808   0.42001   0.97296   0.00000  Uiso   1.00
H1180  H     0.91083   0.37921   0.96798   0.00000  Uiso   1.00
N1181  N     0.71491   0.43979   0.80745   0.00000  Uiso   1.00
H1182  H     0.70695   0.40545   0.80089   0.00000  Uiso   1.00
H1183  H     0.70886   0.44753   0.84024   0.00000  Uiso   1.00
N1184  N     0.95175   0.56019   0.69253   0.00000  Uiso   1.00
H1185  H     0.95780   0.55243   0.65974   0.00000  Uiso   1.00
H1186  H     0.95972   0.59454   0.69906   0.00000  Uiso   1.00
N1187  N     0.96039   0.43839   0.80714   0.00000  Uiso   1.00
H1188  H     0.96797   0.40436   0.79934   0.00000  Uiso   1.00
H1189  H     0.97095   0.44499   0.83991   0.00000  Uiso   1.00
N1190  N     0.70628   0.56161   0.69285   0.00000  Uiso   1.00
H1191  H     0.69571   0.55501   0.66009   0.00000  Uiso   1.00
H1192  H     0.69870   0.59564   0.70066   0.00000  Uiso   1.00
O1193  O     0.79083   0.37962   0.68184   0.00000  Uiso   1.00
H1194  H     0.77906   0.40824   0.69319   0.00000  Uiso   1.00
O1195  O     0.87584   0.62038   0.81816   0.00000  Uiso   1.00
H1196  H     0.88761   0.59176   0.80681   0.00000  Uiso   1.00
O1197  O     0.87571   0.37829   0.81818   0.00000  Uiso   1.00
H1198  H     0.88608   0.40758   0.80704   0.00000  Uiso   1.00
O1199  O     0.79096   0.62171   0.68182   0.00000  Uiso   1.00
H1200  H     0.78059   0.59242   0.69296   0.00000  Uiso   1.00
C1201  C     0.08754   0.83347   0.74957   0.00000  Uiso   1.00
C1202  C     0.24579   0.83320   0.75043   0.00000  Uiso   1.00
C1203  C     0.10975   0.88950   0.51908   0.00000  Uiso   1.00
C1204  C     0.22359   0.77717   0.98092   0.00000  Uiso   1.00
C1205  C     0.02363   0.80281   0.77801   0.00000  Uiso   1.00
C1206  C     0.30970   0.86385   0.72198   0.00000  Uiso   1.00
C1207  C     0.31388   0.80238   0.77807   0.00000  Uiso   1.00
C1208  C     0.01945   0.86429   0.72192   0.00000  Uiso   1.00
C1209  C     0.29049   0.83302   0.75017   0.00000  Uiso   1.00
C1210  C     0.04284   0.83364   0.74982   0.00000  Uiso   1.00
C1211  C     0.14623   0.69143   0.71646   0.00000  Uiso   1.00
C1212  C     0.18710   0.97524   0.78354   0.00000  Uiso   1.00
C1213  C     0.18703   0.69077   0.78357   0.00000  Uiso   1.00
C1214  C     0.14630   0.97590   0.71643   0.00000  Uiso   1.00
C1215  C     0.16668   0.83338   0.66469   0.00000  Uiso   1.00
C1216  C     0.16666   0.83328   0.83531   0.00000  Uiso   1.00
C1217  C     0.19841   0.81000   0.90877   0.00000  Uiso   1.00
C1218  C     0.13492   0.85667   0.59123   0.00000  Uiso   1.00
C1219  C     0.16674   0.83335   0.88360   0.00000  Uiso   1.00
C1220  C     0.16660   0.83332   0.61640   0.00000  Uiso   1.00
C1221  C     0.13547   0.85727   0.90451   0.00000  Uiso   1.00
C1222  C     0.19787   0.80940   0.59549   0.00000  Uiso   1.00
C1223  C     0.13817   0.86145   0.95108   0.00000  Uiso   1.00
C1224  C     0.19517   0.80522   0.54892   0.00000  Uiso   1.00
C1225  C     0.16699   0.83365   0.97658   0.00000  Uiso   1.00
C1226  C     0.16635   0.83302   0.52342   0.00000  Uiso   1.00
C1227  C     0.19656   0.80668   0.95525   0.00000  Uiso   1.00
C1228  C     0.13678   0.85999   0.54475   0.00000  Uiso   1.00
C1229  C     0.11143   0.89139   0.97291   0.00000  Uiso   1.00
C1230  C     0.22191   0.77529   0.52709   0.00000  Uiso   1.00
Cu1231 Cu    0.16667   0.88022   0.75000   0.00000  Uiso   1.00
Cu1232 Cu    0.16667   0.78645   0.75000   0.00000  Uiso   1.00
N1233  N     0.16667   0.95069   0.75000   0.00000  Uiso   1.00
N1234  N     0.16667   0.71598   0.75000   0.00000  Uiso   1.00
O1235  O     0.10655   0.87291   0.75000   0.00000  Uiso   1.00
O1236  O     0.22679   0.79375   0.75001   0.00000  Uiso   1.00
O1237  O     0.22679   0.87291   0.75001   0.00000  Uiso   1.00
O1238  O     0.10655   0.79375   0.75000   0.00000  Uiso   1.00
O1239  O     0.16666   0.87293   0.68513   0.00000  Uiso   1.00
O1240  O     0.16668   0.79373   0.81487   0.00000  Uiso   1.00
O1241  O     0.16668   0.87293   0.81487   0.00000  Uiso   1.00
O1242  O     0.16666   0.79373   0.68513   0.00000  Uiso   1.00
O1243  O     0.23150   0.79068   0.88869   0.00000  Uiso   1.00
H1244  H     0.23644   0.80812   0.86126   0.00000  Uiso   1.00
O1245  O     0.10183   0.87599   0.61131   0.00000  Uiso   1.00
H1246  H     0.09690   0.85855   0.63875   0.00000  Uiso   1.00
O1247  O     0.10118   0.87503   0.88055   0.00000  Uiso   1.00
H1248  H     0.09716   0.85915   0.85163   0.00000  Uiso   1.00
O1249  O     0.23216   0.79165   0.61945   0.00000  Uiso   1.00
H1250  H     0.23618   0.80752   0.64838   0.00000  Uiso   1.00
O1251  O     0.08746   0.92441   0.95037   0.00000  Uiso   1.00
H1252  H     0.10492   0.93959   0.92883   0.00000  Uiso   1.00
O1253  O     0.24589   0.74227   0.54963   0.00000  Uiso   1.00
H1254  H     0.22843   0.72709   0.57117   0.00000  Uiso   1.00
N1255  N     0.08188   0.92005   0.53992   0.00000  Uiso   1.00
H1256  H     0.05193   0.91334   0.52704   0.00000  Uiso   1.00
H1257  H     0.08918   0.95413   0.53202   0.00000  Uiso   1.00
N1258  N     0.25147   0.74662   0.96009   0.00000  Uiso   1.00
H1259  H     0.28142   0.75334   0.97296   0.00000  Uiso   1.00
H1260  H     0.24417   0.71254   0.96798   0.00000  Uiso   1.00
N1261  N     0.04824   0.77312   0.80745   0.00000  Uiso   1.00
H1262  H     0.04028   0.73878   0.80089   0.00000  Uiso   1.00
H1263  H     0.04219   0.78087   0.84024   0.00000  Uiso   1.00
N1264  N     0.28509   0.89353   0.69253   0.00000  Uiso   1.00
H1265  H     0.29113   0.88576   0.65974   0.00000  Uiso   1.00
H1266  H     0.29305   0.92787   0.69906   0.00000  Uiso   1.00
N1267  N     0.29372   0.77172   0.80714   0.00000  Uiso   1.00
H1268  H     0.30131   0.73769   0.79934   0.00000  Uiso   1.00
H1269  H     0.30429   0.77833   0.83991   0.00000  Uiso   1.00
N1270  N     0.03961   0.89494   0.69285   0.00000  Uiso   1.00
H1271  H     0.02904   0.88835   0.66009   0.00000  Uiso   1.00
H1272  H     0.03203   0.92898   0.70066   0.00000  Uiso   1.00
O1273  O     0.12416   0.71296   0.68184   0.00000  Uiso   1.00
H1274  H     0.11239   0.74157   0.69319   0.00000  Uiso   1.00
O1275  O     0.20917   0.95371   0.81816   0.00000  Uiso   1.00
H1276  H     0.22094   0.92510   0.80681   0.00000  Uiso   1.00
O1277  O     0.20905   0.71163   0.81818   0.00000  Uiso   1.00
H1278  H     0.21941   0.74092   0.80704   0.00000  Uiso   1.00
O1279  O     0.12429   0.95504   0.68182   0.00000  Uiso   1.00
H1280  H     0.11392   0.92575   0.69296   0.00000  Uiso   1.00
C1281  C     0.42087   0.83347   0.74957   0.00000  Uiso   1.00
C1282  C     0.57913   0.83320   0.75043   0.00000  Uiso   1.00
C1283  C     0.44308   0.88950   0.51908   0.00000  Uiso   1.00
C1284  C     0.55693   0.77717   0.98092   0.00000  Uiso   1.00
C1285  C     0.35696   0.80281   0.77801   0.00000  Uiso   1.00
C1286  C     0.64304   0.86385   0.72198   0.00000  Uiso   1.00
C1287  C     0.64722   0.80238   0.77807   0.00000  Uiso   1.00
C1288  C     0.35278   0.86429   0.72192   0.00000  Uiso   1.00
C1289  C     0.62382   0.83302   0.75017   0.00000  Uiso   1.00
C1290  C     0.37618   0.83364   0.74982   0.00000  Uiso   1.00
C1291  C     0.47956   0.69143   0.71646   0.00000  Uiso   1.00
C1292  C     0.52044   0.97524   0.78354   0.00000  Uiso   1.00
C1293  C     0.52037   0.69077   0.78357   0.00000  Uiso   1.00
C1294  C     0.47963   0.97590   0.71643   0.00000  Uiso   1.00
C1295  C     0.50001   0.83338   0.66469   0.00000  Uiso   1.00
C1296  C     0.49999   0.83328   0.83531   0.00000  Uiso   1.00
C1297  C     0.53174   0.81000   0.90877   0.00000  Uiso   1.00
C1298  C     0.46826   0.85667   0.59123   0.00000  Uiso   1.00
C1299  C     0.50007   0.83335   0.88360   0.00000  Uiso   1.00
C1300  C     0.49993   0.83332   0.61640   0.00000  Uiso   1.00
C1301  C     0.46881   0.85727   0.90451   0.00000  Uiso   1.00
C1302  C     0.53120   0.80940   0.59549   0.00000  Uiso   1.00
C1303  C     0.47150   0.86145   0.95108   0.00000  Uiso   1.00
C1304  C     0.52851   0.80522   0.54892   0.00000  Uiso   1.00
C1305  C     0.50033   0.83365   0.97658   0.00000  Uiso   1.00
C1306  C     0.49968   0.83302   0.52342   0.00000  Uiso   1.00
C1307  C     0.52989   0.80668   0.95525   0.00000  Uiso   1.00
C1308  C     0.47011   0.85999   0.54475   0.00000  Uiso   1.00
C1309  C     0.44476   0.89139   0.97291   0.00000  Uiso   1.00
C1310  C     0.55524   0.77529   0.52709   0.00000  Uiso   1.00
Cu1311 Cu    0.50000   0.88022   0.75000   0.00000  Uiso   1.00
Cu1312 Cu    0.50000   0.78645   0.75000   0.00000  Uiso   1.00
N1313  N     0.50000   0.95069   0.75000   0.00000  Uiso   1.00
N1314  N     0.50000   0.71598   0.75000   0.00000  Uiso   1.00
O1315  O     0.43988   0.87291   0.75000   0.00000  Uiso   1.00
O1316  O     0.56012   0.79375   0.75001   0.00000  Uiso   1.00
O1317  O     0.56012   0.87291   0.75001   0.00000  Uiso   1.00
O1318  O     0.43988   0.79375   0.75000   0.00000  Uiso   1.00
O1319  O     0.49999   0.87293   0.68513   0.00000  Uiso   1.00
O1320  O     0.50001   0.79373   0.81487   0.00000  Uiso   1.00
O1321  O     0.50001   0.87293   0.81487   0.00000  Uiso   1.00
O1322  O     0.49999   0.79373   0.68513   0.00000  Uiso   1.00
O1323  O     0.56483   0.79068   0.88869   0.00000  Uiso   1.00
H1324  H     0.56977   0.80812   0.86126   0.00000  Uiso   1.00
O1325  O     0.43517   0.87599   0.61131   0.00000  Uiso   1.00
H1326  H     0.43023   0.85855   0.63875   0.00000  Uiso   1.00
O1327  O     0.43451   0.87503   0.88055   0.00000  Uiso   1.00
H1328  H     0.43049   0.85915   0.85163   0.00000  Uiso   1.00
O1329  O     0.56550   0.79165   0.61945   0.00000  Uiso   1.00
H1330  H     0.56951   0.80752   0.64838   0.00000  Uiso   1.00
O1331  O     0.42079   0.92441   0.95037   0.00000  Uiso   1.00
H1332  H     0.43825   0.93959   0.92883   0.00000  Uiso   1.00
O1333  O     0.57922   0.74227   0.54963   0.00000  Uiso   1.00
H1334  H     0.56176   0.72709   0.57117   0.00000  Uiso   1.00
N1335  N     0.41521   0.92005   0.53992   0.00000  Uiso   1.00
H1336  H     0.38526   0.91334   0.52704   0.00000  Uiso   1.00
H1337  H     0.42252   0.95413   0.53202   0.00000  Uiso   1.00
N1338  N     0.58480   0.74662   0.96009   0.00000  Uiso   1.00
H1339  H     0.61475   0.75334   0.97296   0.00000  Uiso   1.00
H1340  H     0.57750   0.71254   0.96798   0.00000  Uiso   1.00
N1341  N     0.38157   0.77312   0.80745   0.00000  Uiso   1.00
H1342  H     0.37361   0.73878   0.80089   0.00000  Uiso   1.00
H1343  H     0.37552   0.78087   0.84024   0.00000  Uiso   1.00
N1344  N     0.61842   0.89353   0.69253   0.00000  Uiso   1.00
H1345  H     0.62447   0.88576   0.65974   0.00000  Uiso   1.00
H1346  H     0.62638   0.92787   0.69906   0.00000  Uiso   1.00
N1347  N     0.62706   0.77172   0.80714   0.00000  Uiso   1.00
H1348  H     0.63464   0.73769   0.79934   0.00000  Uiso   1.00
H1349  H     0.63762   0.77833   0.83991   0.00000  Uiso   1.00
N1350  N     0.37294   0.89494   0.69285   0.00000  Uiso   1.00
H1351  H     0.36238   0.88835   0.66009   0.00000  Uiso   1.00
H1352  H     0.36536   0.92898   0.70066   0.00000  Uiso   1.00
O1353  O     0.45749   0.71296   0.68184   0.00000  Uiso   1.00
H1354  H     0.44572   0.74157   0.69319   0.00000  Uiso   1.00
O1355  O     0.54251   0.95371   0.81816   0.00000  Uiso   1.00
H1356  H     0.55428   0.92510   0.80681   0.00000  Uiso   1.00
O1357  O     0.54238   0.71163   0.81818   0.00000  Uiso   1.00
H1358  H     0.55274   0.74092   0.80704   0.00000  Uiso   1.00
O1359  O     0.45762   0.95504   0.68182   0.00000  Uiso   1.00
H1360  H     0.44726   0.92575   0.69296   0.00000  Uiso   1.00
C1361  C     0.75421   0.83347   0.74957   0.00000  Uiso   1.00
C1362  C     0.91246   0.83320   0.75043   0.00000  Uiso   1.00
C1363  C     0.77641   0.88950   0.51908   0.00000  Uiso   1.00
C1364  C     0.89026   0.77717   0.98092   0.00000  Uiso   1.00
C1365  C     0.69030   0.80281   0.77801   0.00000  Uiso   1.00
C1366  C     0.97637   0.86385   0.72198   0.00000  Uiso   1.00
C1367  C     0.98055   0.80238   0.77807   0.00000  Uiso   1.00
C1368  C     0.68611   0.86429   0.72192   0.00000  Uiso   1.00
C1369  C     0.95715   0.83302   0.75017   0.00000  Uiso   1.00
C1370  C     0.70951   0.83364   0.74982   0.00000  Uiso   1.00
C1371  C     0.81290   0.69143   0.71646   0.00000  Uiso   1.00
C1372  C     0.85377   0.97524   0.78354   0.00000  Uiso   1.00
C1373  C     0.85370   0.69077   0.78357   0.00000  Uiso   1.00
C1374  C     0.81297   0.97590   0.71643   0.00000  Uiso   1.00
C1375  C     0.83334   0.83338   0.66469   0.00000  Uiso   1.00
C1376  C     0.83332   0.83328   0.83531   0.00000  Uiso   1.00
C1377  C     0.86508   0.81000   0.90877   0.00000  Uiso   1.00
C1378  C     0.80159   0.85667   0.59123   0.00000  Uiso   1.00
C1379  C     0.83341   0.83335   0.88360   0.00000  Uiso   1.00
C1380  C     0.83326   0.83332   0.61640   0.00000  Uiso   1.00
C1381  C     0.80214   0.85727   0.90451   0.00000  Uiso   1.00
C1382  C     0.86453   0.80940   0.59549   0.00000  Uiso   1.00
C1383  C     0.80483   0.86145   0.95108   0.00000  Uiso   1.00
C1384  C     0.86184   0.80522   0.54892   0.00000  Uiso   1.00
C1385  C     0.83366   0.83365   0.97658   0.00000  Uiso   1.00
C1386  C     0.83301   0.83302   0.52342   0.00000  Uiso   1.00
C1387  C     0.86322   0.80668   0.95525   0.00000  Uiso   1.00
C1388  C     0.80345   0.85999   0.54475   0.00000  Uiso   1.00
C1389  C     0.77810   0.89139   0.97291   0.00000  Uiso   1.00
C1390  C     0.88858   0.77529   0.52709   0.00000  Uiso   1.00
Cu1391 Cu    0.83333   0.88022   0.75000   0.00000  Uiso   1.00
Cu1392 Cu    0.83333   0.78645   0.75000   0.00000  Uiso   1.00
N1393  N     0.83333   0.95069   0.75000   0.00000  Uiso   1.00
N1394  N     0.83333   0.71598   0.75000   0.00000  Uiso   1.00
O1395  O     0.77321   0.87291   0.75000   0.00000  Uiso   1.00
O1396  O     0.89345   0.79375   0.75001   0.00000  Uiso   1.00
O1397  O     0.89345   0.87291   0.75001   0.00000  Uiso   1.00
O1398  O     0.77321   0.79375   0.75000   0.00000  Uiso   1.00
O1399  O     0.83332   0.87293   0.68513   0.00000  Uiso   1.00
O1400  O     0.83334   0.79373   0.81487   0.00000  Uiso   1.00
O1401  O     0.83334   0.87293   0.81487   0.00000  Uiso   1.00
O1402  O     0.83332   0.79373   0.68513   0.00000  Uiso   1.00
O1403  O     0.89817   0.79068   0.88869   0.00000  Uiso   1.00
H1404  H     0.90311   0.80812   0.86126   0.00000  Uiso   1.00
O1405  O     0.76850   0.87599   0.61131   0.00000  Uiso   1.00
H1406  H     0.76356   0.85855   0.63875   0.00000  Uiso   1.00
O1407  O     0.76784   0.87503   0.88055   0.00000  Uiso   1.00
H1408  H     0.76382   0.85915   0.85163   0.00000  Uiso   1.00
O1409  O     0.89883   0.79165   0.61945   0.00000  Uiso   1.00
H1410  H     0.90285   0.80752   0.64838   0.00000  Uiso   1.00
O1411  O     0.75412   0.92441   0.95037   0.00000  Uiso   1.00
H1412  H     0.77159   0.93959   0.92883   0.00000  Uiso   1.00
O1413  O     0.91255   0.74227   0.54963   0.00000  Uiso   1.00
H1414  H     0.89509   0.72709   0.57117   0.00000  Uiso   1.00
N1415  N     0.74854   0.92005   0.53992   0.00000  Uiso   1.00
H1416  H     0.71860   0.91334   0.52704   0.00000  Uiso   1.00
H1417  H     0.75585   0.95413   0.53202   0.00000  Uiso   1.00
N1418  N     0.91814   0.74662   0.96009   0.00000  Uiso   1.00
H1419  H     0.94808   0.75334   0.97296   0.00000  Uiso   1.00
H1420  H     0.91083   0.71254   0.96798   0.00000  Uiso   1.00
N1421  N     0.71491   0.77312   0.80745   0.00000  Uiso   1.00
H1422  H     0.70695   0.73878   0.80089   0.00000  Uiso   1.00
H1423  H     0.70886   0.78087   0.84024   0.00000  Uiso   1.00
N1424  N     0.95175   0.89353   0.69253   0.00000  Uiso   1.00
H1425  H     0.95780   0.88576   0.65974   0.00000  Uiso   1.00
H1426  H     0.95972   0.92787   0.69906   0.00000  Uiso   1.00
N1427  N     0.96039   0.77172   0.80714   0.00000  Uiso   1.00
H1428  H     0.96797   0.73769   0.79934   0.00000  Uiso   1.00
H1429  H     0.97095   0.77833   0.83991   0.00000  Uiso   1.00
N1430  N     0.70628   0.89494   0.69285   0.00000  Uiso   1.00
H1431  H     0.69571   0.88835   0.66009   0.00000  Uiso   1.00
H1432  H     0.69870   0.92898   0.70066   0.00000  Uiso   1.00
O1433  O     0.79083   0.71296   0.68184   0.00000  Uiso   1.00
H1434  H     0.77906   0.74157   0.69319   0.00000  Uiso   1.00
O1435  O     0.87584   0.95371   0.81816   0.00000  Uiso   1.00
H1436  H     0.88761   0.92510   0.80681   0.00000  Uiso   1.00
O1437  O     0.87571   0.71163   0.81818   0.00000  Uiso   1.00
H1438  H     0.88608   0.74092   0.80704   0.00000  Uiso   1.00
O1439  O     0.79096   0.95504   0.68182   0.00000  Uiso   1.00
H1440  H     0.78059   0.92575   0.69296   0.00000  Uiso   1.00
loop_
_geom_bond_atom_site_label_1
_geom_bond_atom_site_label_2
_geom_bond_distance
_geom_bond_site_symmetry_2
_ccdc_geom_bond_type
C1     O38     1.301   .     A
C1     O35     1.301   .     A
C1     C10     1.454   .     S
C2     O36     1.301   .     A
C2     O37     1.301   .     A
C2     C9      1.454   .     S
C3     C28     1.415   .     A
C3     N55     1.436   .     S
C3     C749    1.398   1_554 S
C4     C27     1.415   .     A
C4     N58     1.436   .     S
C4     C750    1.398   .     S
C5     N61     1.437   .     S
C5     C10     1.405   .     A
C5     C167    1.401   1_455 S
C6     N64     1.437   .     S
C6     C9      1.405   .     A
C6     C88     1.401   .     S
C7     C9      1.407   .     A
C7     N67     1.434   .     S
C7     C85     1.401   .     S
C8     N70     1.434   .     S
C8     C10     1.407   .     A
C8     C166    1.401   1_455 S
C11    O73     1.375   .     S
C11    N34     1.378   .     A
C11    C494    1.414   1_545 S
C12    O75     1.375   .     S
C12    N33     1.378   .     A
C12    C253    1.414   .     S
C13    O77     1.373   .     S
C13    N34     1.379   .     A
C13    C492    1.414   1_545 S
C14    N33     1.379   .     A
C14    O79     1.373   .     S
C14    C251    1.414   .     S
C15    C20     1.456   .     S
C15    O39     1.302   .     A
C15    O42     1.300   .     A
C16    O40     1.302   .     A
C16    C19     1.456   .     S
C16    O41     1.300   .     A
C17    C27     1.410   .     A
C17    O43     1.383   .     S
C17    C19     1.409   .     A
C18    C28     1.410   .     A
C18    O45     1.383   .     S
C18    C20     1.409   .     A
C19    C21     1.409   .     A
C20    C22     1.409   .     A
C21    C23     1.408   .     A
C21    O47     1.386   .     S
C22    O49     1.386   .     S
C22    C24     1.408   .     A
C23    C29     1.416   .     A
C23    C25     1.419   .     A
C24    C26     1.419   .     A
C24    C30     1.416   .     A
C25    C27     1.421   .     A
C25    C746    1.414   .     S
C26    C28     1.421   .     A
C26    C745    1.414   1_554 S
C29    O51     1.380   .     S
C29    C723    1.398   .     S
C30    O53     1.380   .     S
C30    C724    1.398   1_554 S
Cu31   N33     2.039   .     S
Cu31   O37     1.965   .     S
Cu31   Cu32    2.714   .     S
Cu31   O41     1.967   .     S
Cu31   O35     1.968   .     S
Cu31   O39     1.968   .     S
Cu32   O38     1.965   .     S
Cu32   O36     1.968   .     S
Cu32   O40     1.968   .     S
Cu32   O42     1.967   .     S
Cu32   N34     2.039   .     S
O43    H44     0.989   .     S
O45    H46     0.989   .     S
O47    H48     0.989   .     S
O49    H50     0.989   .     S
O51    H52     0.992   .     S
O53    H54     0.992   .     S
N55    H56     1.046   .     S
N55    H57     1.046   .     S
N58    H60     1.046   .     S
N58    H59     1.046   .     S
N61    H63     1.045   .     S
N61    H62     1.045   .     S
N64    H66     1.045   .     S
N64    H65     1.045   .     S
N67    H68     1.045   .     S
N67    H69     1.045   .     S
N70    H71     1.045   .     S
N70    H72     1.045   .     S
O73    H74     0.982   .     S
O75    H76     0.982   .     S
O77    H78     0.980   .     S
O79    H80     0.980   .     S
C81    O118    1.301   .     A
C81    O115    1.301   .     A
C81    C90     1.454   .     S
C82    O116    1.301   .     A
C82    O117    1.301   .     A
C82    C89     1.454   .     S
C83    C108    1.415   .     A
C83    N135    1.436   .     S
C83    C829    1.398   1_554 S
C84    C107    1.415   .     A
C84    N138    1.436   .     S
C84    C830    1.398   .     S
C85    N141    1.437   .     S
C85    C90     1.405   .     A
C86    N144    1.437   .     S
C86    C89     1.405   .     A
C86    C168    1.401   .     S
C87    C89     1.407   .     A
C87    N147    1.434   .     S
C87    C165    1.401   .     S
C88    N150    1.434   .     S
C88    C90     1.407   .     A
C91    O153    1.375   .     S
C91    N114    1.378   .     A
C91    C574    1.414   1_545 S
C92    O155    1.375   .     S
C92    N113    1.378   .     A
C92    C333    1.414   .     S
C93    O157    1.373   .     S
C93    N114    1.379   .     A
C93    C572    1.414   1_545 S
C94    N113    1.379   .     A
C94    O159    1.373   .     S
C94    C331    1.414   .     S
C95    C100    1.456   .     S
C95    O119    1.302   .     A
C95    O122    1.300   .     A
C96    O120    1.302   .     A
C96    C99     1.456   .     S
C96    O121    1.300   .     A
C97    C107    1.410   .     A
C97    O123    1.383   .     S
C97    C99     1.409   .     A
C98    C108    1.410   .     A
C98    O125    1.383   .     S
C98    C100    1.409   .     A
C99    C101    1.409   .     A
C100   C102    1.409   .     A
C101   C103    1.408   .     A
C101   O127    1.386   .     S
C102   O129    1.386   .     S
C102   C104    1.408   .     A
C103   C109    1.416   .     A
C103   C105    1.419   .     A
C104   C106    1.419   .     A
C104   C110    1.416   .     A
C105   C107    1.421   .     A
C105   C826    1.414   .     S
C106   C108    1.421   .     A
C106   C825    1.414   1_554 S
C109   O131    1.380   .     S
C109   C803    1.398   .     S
C110   O133    1.380   .     S
C110   C804    1.398   1_554 S
Cu111  N113    2.039   .     S
Cu111  O117    1.965   .     S
Cu111  Cu112   2.714   .     S
Cu111  O121    1.967   .     S
Cu111  O115    1.968   .     S
Cu111  O119    1.968   .     S
Cu112  O118    1.965   .     S
Cu112  O116    1.968   .     S
Cu112  O120    1.968   .     S
Cu112  O122    1.967   .     S
Cu112  N114    2.039   .     S
O123   H124    0.989   .     S
O125   H126    0.989   .     S
O127   H128    0.989   .     S
O129   H130    0.989   .     S
O131   H132    0.992   .     S
O133   H134    0.992   .     S
N135   H136    1.046   .     S
N135   H137    1.046   .     S
N138   H140    1.046   .     S
N138   H139    1.046   .     S
N141   H143    1.045   .     S
N141   H142    1.045   .     S
N144   H146    1.045   .     S
N144   H145    1.045   .     S
N147   H148    1.045   .     S
N147   H149    1.045   .     S
N150   H151    1.045   .     S
N150   H152    1.045   .     S
O153   H154    0.982   .     S
O155   H156    0.982   .     S
O157   H158    0.980   .     S
O159   H160    0.980   .     S
C161   O198    1.301   .     A
C161   O195    1.301   .     A
C161   C170    1.454   .     S
C162   O196    1.301   .     A
C162   O197    1.301   .     A
C162   C169    1.454   .     S
C163   C188    1.415   .     A
C163   N215    1.436   .     S
C163   C909    1.398   1_554 S
C164   C187    1.415   .     A
C164   N218    1.436   .     S
C164   C910    1.398   .     S
C165   N221    1.437   .     S
C165   C170    1.405   .     A
C166   N224    1.437   .     S
C166   C169    1.405   .     A
C166   C8      1.401   1_655 S
C167   C169    1.407   .     A
C167   N227    1.434   .     S
C167   C5      1.401   1_655 S
C168   N230    1.434   .     S
C168   C170    1.407   .     A
C171   O233    1.375   .     S
C171   N194    1.378   .     A
C171   C654    1.414   1_545 S
C172   O235    1.375   .     S
C172   N193    1.378   .     A
C172   C413    1.414   .     S
C173   O237    1.373   .     S
C173   N194    1.379   .     A
C173   C652    1.414   1_545 S
C174   N193    1.379   .     A
C174   O239    1.373   .     S
C174   C411    1.414   .     S
C175   C180    1.456   .     S
C175   O199    1.302   .     A
C175   O202    1.300   .     A
C176   O200    1.302   .     A
C176   C179    1.456   .     S
C176   O201    1.300   .     A
C177   C187    1.410   .     A
C177   O203    1.383   .     S
C177   C179    1.409   .     A
C178   C188    1.410   .     A
C178   O205    1.383   .     S
C178   C180    1.409   .     A
C179   C181    1.409   .     A
C180   C182    1.409   .     A
C181   C183    1.408   .     A
C181   O207    1.386   .     S
C182   O209    1.386   .     S
C182   C184    1.408   .     A
C183   C189    1.416   .     A
C183   C185    1.419   .     A
C184   C186    1.419   .     A
C184   C190    1.416   .     A
C185   C187    1.421   .     A
C185   C906    1.414   .     S
C186   C188    1.421   .     A
C186   C905    1.414   1_554 S
C189   O211    1.380   .     S
C189   C883    1.398   .     S
C190   O213    1.380   .     S
C190   C884    1.398   1_554 S
Cu191  N193    2.039   .     S
Cu191  O197    1.965   .     S
Cu191  Cu192   2.714   .     S
Cu191  O201    1.967   .     S
Cu191  O195    1.968   .     S
Cu191  O199    1.968   .     S
Cu192  O198    1.965   .     S
Cu192  O196    1.968   .     S
Cu192  O200    1.968   .     S
Cu192  O202    1.967   .     S
Cu192  N194    2.039   .     S
O203   H204    0.989   .     S
O205   H206    0.989   .     S
O207   H208    0.989   .     S
O209   H210    0.989   .     S
O211   H212    0.992   .     S
O213   H214    0.992   .     S
N215   H216    1.046   .     S
N215   H217    1.046   .     S
N218   H220    1.046   .     S
N218   H219    1.046   .     S
N221   H223    1.045   .     S
N221   H222    1.045   .     S
N224   H226    1.045   .     S
N224   H225    1.045   .     S
N227   H228    1.045   .     S
N227   H229    1.045   .     S
N230   H231    1.045   .     S
N230   H232    1.045   .     S
O233   H234    0.982   .     S
O235   H236    0.982   .     S
O237   H238    0.980   .     S
O239   H240    0.980   .     S
C241   O278    1.301   .     A
C241   O275    1.301   .     A
C241   C250    1.454   .     S
C242   O276    1.301   .     A
C242   O277    1.301   .     A
C242   C249    1.454   .     S
C243   C268    1.415   .     A
C243   N295    1.436   .     S
C243   C989    1.398   1_554 S
C244   C267    1.415   .     A
C244   N298    1.436   .     S
C244   C990    1.398   .     S
C245   N301    1.437   .     S
C245   C250    1.405   .     A
C245   C407    1.401   1_455 S
C246   N304    1.437   .     S
C246   C249    1.405   .     A
C246   C328    1.401   .     S
C247   C249    1.407   .     A
C247   N307    1.434   .     S
C247   C325    1.401   .     S
C248   N310    1.434   .     S
C248   C250    1.407   .     A
C248   C406    1.401   1_455 S
C251   O313    1.375   .     S
C251   N274    1.378   .     A
C252   O315    1.375   .     S
C252   N273    1.378   .     A
C252   C493    1.414   .     S
C253   O317    1.373   .     S
C253   N274    1.379   .     A
C254   N273    1.379   .     A
C254   O319    1.373   .     S
C254   C491    1.414   .     S
C255   C260    1.456   .     S
C255   O279    1.302   .     A
C255   O282    1.300   .     A
C256   O280    1.302   .     A
C256   C259    1.456   .     S
C256   O281    1.300   .     A
C257   C267    1.410   .     A
C257   O283    1.383   .     S
C257   C259    1.409   .     A
C258   C268    1.410   .     A
C258   O285    1.383   .     S
C258   C260    1.409   .     A
C259   C261    1.409   .     A
C260   C262    1.409   .     A
C261   C263    1.408   .     A
C261   O287    1.386   .     S
C262   O289    1.386   .     S
C262   C264    1.408   .     A
C263   C269    1.416   .     A
C263   C265    1.419   .     A
C264   C266    1.419   .     A
C264   C270    1.416   .     A
C265   C267    1.421   .     A
C265   C986    1.414   .     S
C266   C268    1.421   .     A
C266   C985    1.414   1_554 S
C269   O291    1.380   .     S
C269   C963    1.398   .     S
C270   O293    1.380   .     S
C270   C964    1.398   1_554 S
Cu271  N273    2.039   .     S
Cu271  O277    1.965   .     S
Cu271  Cu272   2.714   .     S
Cu271  O281    1.967   .     S
Cu271  O275    1.968   .     S
Cu271  O279    1.968   .     S
Cu272  O278    1.965   .     S
Cu272  O276    1.968   .     S
Cu272  O280    1.968   .     S
Cu272  O282    1.967   .     S
Cu272  N274    2.039   .     S
O283   H284    0.989   .     S
O285   H286    0.989   .     S
O287   H288    0.989   .     S
O289   H290    0.989   .     S
O291   H292    0.992   .     S
O293   H294    0.992   .     S
N295   H296    1.046   .     S
N295   H297    1.046   .     S
N298   H300    1.046   .     S
N298   H299    1.046   .     S
N301   H303    1.045   .     S
N301   H302    1.045   .     S
N304   H306    1.045   .     S
N304   H305    1.045   .     S
N307   H308    1.045   .     S
N307   H309    1.045   .     S
N310   H311    1.045   .     S
N310   H312    1.045   .     S
O313   H314    0.982   .     S
O315   H316    0.982   .     S
O317   H318    0.980   .     S
O319   H320    0.980   .     S
C321   O358    1.301   .     A
C321   O355    1.301   .     A
C321   C330    1.454   .     S
C322   O356    1.301   .     A
C322   O357    1.301   .     A
C322   C329    1.454   .     S
C323   C348    1.415   .     A
C323   N375    1.436   .     S
C323   C1069   1.398   1_554 S
C324   C347    1.415   .     A
C324   N378    1.436   .     S
C324   C1070   1.398   .     S
C325   N381    1.437   .     S
C325   C330    1.405   .     A
C326   N384    1.437   .     S
C326   C329    1.405   .     A
C326   C408    1.401   .     S
C327   C329    1.407   .     A
C327   N387    1.434   .     S
C327   C405    1.401   .     S
C328   N390    1.434   .     S
C328   C330    1.407   .     A
C331   O393    1.375   .     S
C331   N354    1.378   .     A
C332   O395    1.375   .     S
C332   N353    1.378   .     A
C332   C573    1.414   .     S
C333   O397    1.373   .     S
C333   N354    1.379   .     A
C334   N353    1.379   .     A
C334   O399    1.373   .     S
C334   C571    1.414   .     S
C335   C340    1.456   .     S
C335   O359    1.302   .     A
C335   O362    1.300   .     A
C336   O360    1.302   .     A
C336   C339    1.456   .     S
C336   O361    1.300   .     A
C337   C347    1.410   .     A
C337   O363    1.383   .     S
C337   C339    1.409   .     A
C338   C348    1.410   .     A
C338   O365    1.383   .     S
C338   C340    1.409   .     A
C339   C341    1.409   .     A
C340   C342    1.409   .     A
C341   C343    1.408   .     A
C341   O367    1.386   .     S
C342   O369    1.386   .     S
C342   C344    1.408   .     A
C343   C349    1.416   .     A
C343   C345    1.419   .     A
C344   C346    1.419   .     A
C344   C350    1.416   .     A
C345   C347    1.421   .     A
C345   C1066   1.414   .     S
C346   C348    1.421   .     A
C346   C1065   1.414   1_554 S
C349   O371    1.380   .     S
C349   C1043   1.398   .     S
C350   O373    1.380   .     S
C350   C1044   1.398   1_554 S
Cu351  N353    2.039   .     S
Cu351  O357    1.965   .     S
Cu351  Cu352   2.714   .     S
Cu351  O361    1.967   .     S
Cu351  O355    1.968   .     S
Cu351  O359    1.968   .     S
Cu352  O358    1.965   .     S
Cu352  O356    1.968   .     S
Cu352  O360    1.968   .     S
Cu352  O362    1.967   .     S
Cu352  N354    2.039   .     S
O363   H364    0.989   .     S
O365   H366    0.989   .     S
O367   H368    0.989   .     S
O369   H370    0.989   .     S
O371   H372    0.992   .     S
O373   H374    0.992   .     S
N375   H376    1.046   .     S
N375   H377    1.046   .     S
N378   H380    1.046   .     S
N378   H379    1.046   .     S
N381   H383    1.045   .     S
N381   H382    1.045   .     S
N384   H386    1.045   .     S
N384   H385    1.045   .     S
N387   H388    1.045   .     S
N387   H389    1.045   .     S
N390   H391    1.045   .     S
N390   H392    1.045   .     S
O393   H394    0.982   .     S
O395   H396    0.982   .     S
O397   H398    0.980   .     S
O399   H400    0.980   .     S
C401   O438    1.301   .     A
C401   O435    1.301   .     A
C401   C410    1.454   .     S
C402   O436    1.301   .     A
C402   O437    1.301   .     A
C402   C409    1.454   .     S
C403   C428    1.415   .     A
C403   N455    1.436   .     S
C403   C1149   1.398   1_554 S
C404   C427    1.415   .     A
C404   N458    1.436   .     S
C404   C1150   1.398   .     S
C405   N461    1.437   .     S
C405   C410    1.405   .     A
C406   N464    1.437   .     S
C406   C409    1.405   .     A
C406   C248    1.401   1_655 S
C407   C409    1.407   .     A
C407   N467    1.434   .     S
C407   C245    1.401   1_655 S
C408   N470    1.434   .     S
C408   C410    1.407   .     A
C411   O473    1.375   .     S
C411   N434    1.378   .     A
C412   O475    1.375   .     S
C412   N433    1.378   .     A
C412   C653    1.414   .     S
C413   O477    1.373   .     S
C413   N434    1.379   .     A
C414   N433    1.379   .     A
C414   O479    1.373   .     S
C414   C651    1.414   .     S
C415   C420    1.456   .     S
C415   O439    1.302   .     A
C415   O442    1.300   .     A
C416   O440    1.302   .     A
C416   C419    1.456   .     S
C416   O441    1.300   .     A
C417   C427    1.410   .     A
C417   O443    1.383   .     S
C417   C419    1.409   .     A
C418   C428    1.410   .     A
C418   O445    1.383   .     S
C418   C420    1.409   .     A
C419   C421    1.409   .     A
C420   C422    1.409   .     A
C421   C423    1.408   .     A
C421   O447    1.386   .     S
C422   O449    1.386   .     S
C422   C424    1.408   .     A
C423   C429    1.416   .     A
C423   C425    1.419   .     A
C424   C426    1.419   .     A
C424   C430    1.416   .     A
C425   C427    1.421   .     A
C425   C1146   1.414   .     S
C426   C428    1.421   .     A
C426   C1145   1.414   1_554 S
C429   O451    1.380   .     S
C429   C1123   1.398   .     S
C430   O453    1.380   .     S
C430   C1124   1.398   1_554 S
Cu431  N433    2.039   .     S
Cu431  O437    1.965   .     S
Cu431  Cu432   2.714   .     S
Cu431  O441    1.967   .     S
Cu431  O435    1.968   .     S
Cu431  O439    1.968   .     S
Cu432  O438    1.965   .     S
Cu432  O436    1.968   .     S
Cu432  O440    1.968   .     S
Cu432  O442    1.967   .     S
Cu432  N434    2.039   .     S
O443   H444    0.989   .     S
O445   H446    0.989   .     S
O447   H448    0.989   .     S
O449   H450    0.989   .     S
O451   H452    0.992   .     S
O453   H454    0.992   .     S
N455   H456    1.046   .     S
N455   H457    1.046   .     S
N458   H460    1.046   .     S
N458   H459    1.046   .     S
N461   H463    1.045   .     S
N461   H462    1.045   .     S
N464   H466    1.045   .     S
N464   H465    1.045   .     S
N467   H468    1.045   .     S
N467   H469    1.045   .     S
N470   H471    1.045   .     S
N470   H472    1.045   .     S
O473   H474    0.982   .     S
O475   H476    0.982   .     S
O477   H478    0.980   .     S
O479   H480    0.980   .     S
C481   O518    1.301   .     A
C481   O515    1.301   .     A
C481   C490    1.454   .     S
C482   O516    1.301   .     A
C482   O517    1.301   .     A
C482   C489    1.454   .     S
C483   C508    1.415   .     A
C483   N535    1.436   .     S
C483   C1229   1.398   1_554 S
C484   C507    1.415   .     A
C484   N538    1.436   .     S
C484   C1230   1.398   .     S
C485   N541    1.437   .     S
C485   C490    1.405   .     A
C485   C647    1.401   1_455 S
C486   N544    1.437   .     S
C486   C489    1.405   .     A
C486   C568    1.401   .     S
C487   C489    1.407   .     A
C487   N547    1.434   .     S
C487   C565    1.401   .     S
C488   N550    1.434   .     S
C488   C490    1.407   .     A
C488   C646    1.401   1_455 S
C491   O553    1.375   .     S
C491   N514    1.378   .     A
C492   O555    1.375   .     S
C492   N513    1.378   .     A
C492   C13     1.414   1_565 S
C493   O557    1.373   .     S
C493   N514    1.379   .     A
C494   N513    1.379   .     A
C494   O559    1.373   .     S
C494   C11     1.414   1_565 S
C495   C500    1.456   .     S
C495   O519    1.302   .     A
C495   O522    1.300   .     A
C496   O520    1.302   .     A
C496   C499    1.456   .     S
C496   O521    1.300   .     A
C497   C507    1.410   .     A
C497   O523    1.383   .     S
C497   C499    1.409   .     A
C498   C508    1.410   .     A
C498   O525    1.383   .     S
C498   C500    1.409   .     A
C499   C501    1.409   .     A
C500   C502    1.409   .     A
C501   C503    1.408   .     A
C501   O527    1.386   .     S
C502   O529    1.386   .     S
C502   C504    1.408   .     A
C503   C509    1.416   .     A
C503   C505    1.419   .     A
C504   C506    1.419   .     A
C504   C510    1.416   .     A
C505   C507    1.421   .     A
C505   C1226   1.414   .     S
C506   C508    1.421   .     A
C506   C1225   1.414   1_554 S
C509   O531    1.380   .     S
C509   C1203   1.398   .     S
C510   O533    1.380   .     S
C510   C1204   1.398   1_554 S
Cu511  N513    2.039   .     S
Cu511  O517    1.965   .     S
Cu511  Cu512   2.714   .     S
Cu511  O521    1.967   .     S
Cu511  O515    1.968   .     S
Cu511  O519    1.968   .     S
Cu512  O518    1.965   .     S
Cu512  O516    1.968   .     S
Cu512  O520    1.968   .     S
Cu512  O522    1.967   .     S
Cu512  N514    2.039   .     S
O523   H524    0.989   .     S
O525   H526    0.989   .     S
O527   H528    0.989   .     S
O529   H530    0.989   .     S
O531   H532    0.992   .     S
O533   H534    0.992   .     S
N535   H536    1.046   .     S
N535   H537    1.046   .     S
N538   H540    1.046   .     S
N538   H539    1.046   .     S
N541   H543    1.045   .     S
N541   H542    1.045   .     S
N544   H546    1.045   .     S
N544   H545    1.045   .     S
N547   H548    1.045   .     S
N547   H549    1.045   .     S
N550   H551    1.045   .     S
N550   H552    1.045   .     S
O553   H554    0.982   .     S
O555   H556    0.982   .     S
O557   H558    0.980   .     S
O559   H560    0.980   .     S
C561   O598    1.301   .     A
C561   O595    1.301   .     A
C561   C570    1.454   .     S
C562   O596    1.301   .     A
C562   O597    1.301   .     A
C562   C569    1.454   .     S
C563   C588    1.415   .     A
C563   N615    1.436   .     S
C563   C1309   1.398   1_554 S
C564   C587    1.415   .     A
C564   N618    1.436   .     S
C564   C1310   1.398   .     S
C565   N621    1.437   .     S
C565   C570    1.405   .     A
C566   N624    1.437   .     S
C566   C569    1.405   .     A
C566   C648    1.401   .     S
C567   C569    1.407   .     A
C567   N627    1.434   .     S
C567   C645    1.401   .     S
C568   N630    1.434   .     S
C568   C570    1.407   .     A
C571   O633    1.375   .     S
C571   N594    1.378   .     A
C572   O635    1.375   .     S
C572   N593    1.378   .     A
C572   C93     1.414   1_565 S
C573   O637    1.373   .     S
C573   N594    1.379   .     A
C574   N593    1.379   .     A
C574   O639    1.373   .     S
C574   C91     1.414   1_565 S
C575   C580    1.456   .     S
C575   O599    1.302   .     A
C575   O602    1.300   .     A
C576   O600    1.302   .     A
C576   C579    1.456   .     S
C576   O601    1.300   .     A
C577   C587    1.410   .     A
C577   O603    1.383   .     S
C577   C579    1.409   .     A
C578   C588    1.410   .     A
C578   O605    1.383   .     S
C578   C580    1.409   .     A
C579   C581    1.409   .     A
C580   C582    1.409   .     A
C581   C583    1.408   .     A
C581   O607    1.386   .     S
C582   O609    1.386   .     S
C582   C584    1.408   .     A
C583   C589    1.416   .     A
C583   C585    1.419   .     A
C584   C586    1.419   .     A
C584   C590    1.416   .     A
C585   C587    1.421   .     A
C585   C1306   1.414   .     S
C586   C588    1.421   .     A
C586   C1305   1.414   1_554 S
C589   O611    1.380   .     S
C589   C1283   1.398   .     S
C590   O613    1.380   .     S
C590   C1284   1.398   1_554 S
Cu591  N593    2.039   .     S
Cu591  O597    1.965   .     S
Cu591  Cu592   2.714   .     S
Cu591  O601    1.967   .     S
Cu591  O595    1.968   .     S
Cu591  O599    1.968   .     S
Cu592  O598    1.965   .     S
Cu592  O596    1.968   .     S
Cu592  O600    1.968   .     S
Cu592  O602    1.967   .     S
Cu592  N594    2.039   .     S
O603   H604    0.989   .     S
O605   H606    0.989   .     S
O607   H608    0.989   .     S
O609   H610    0.989   .     S
O611   H612    0.992   .     S
O613   H614    0.992   .     S
N615   H616    1.046   .     S
N615   H617    1.046   .     S
N618   H620    1.046   .     S
N618   H619    1.046   .     S
N621   H623    1.045   .     S
N621   H622    1.045   .     S
N624   H626    1.045   .     S
N624   H625    1.045   .     S
N627   H628    1.045   .     S
N627   H629    1.045   .     S
N630   H631    1.045   .     S
N630   H632    1.045   .     S
O633   H634    0.982   .     S
O635   H636    0.982   .     S
O637   H638    0.980   .     S
O639   H640    0.980   .     S
C641   O678    1.301   .     A
C641   O675    1.301   .     A
C641   C650    1.454   .     S
C642   O676    1.301   .     A
C642   O677    1.301   .     A
C642   C649    1.454   .     S
C643   C668    1.415   .     A
C643   N695    1.436   .     S
C643   C1389   1.398   1_554 S
C644   C667    1.415   .     A
C644   N698    1.436   .     S
C644   C1390   1.398   .     S
C645   N701    1.437   .     S
C645   C650    1.405   .     A
C646   N704    1.437   .     S
C646   C649    1.405   .     A
C646   C488    1.401   1_655 S
C647   C649    1.407   .     A
C647   N707    1.434   .     S
C647   C485    1.401   1_655 S
C648   N710    1.434   .     S
C648   C650    1.407   .     A
C651   O713    1.375   .     S
C651   N674    1.378   .     A
C652   O715    1.375   .     S
C652   N673    1.378   .     A
C652   C173    1.414   1_565 S
C653   O717    1.373   .     S
C653   N674    1.379   .     A
C654   N673    1.379   .     A
C654   O719    1.373   .     S
C654   C171    1.414   1_565 S
C655   C660    1.456   .     S
C655   O679    1.302   .     A
C655   O682    1.300   .     A
C656   O680    1.302   .     A
C656   C659    1.456   .     S
C656   O681    1.300   .     A
C657   C667    1.410   .     A
C657   O683    1.383   .     S
C657   C659    1.409   .     A
C658   C668    1.410   .     A
C658   O685    1.383   .     S
C658   C660    1.409   .     A
C659   C661    1.409   .     A
C660   C662    1.409   .     A
C661   C663    1.408   .     A
C661   O687    1.386   .     S
C662   O689    1.386   .     S
C662   C664    1.408   .     A
C663   C669    1.416   .     A
C663   C665    1.419   .     A
C664   C666    1.419   .     A
C664   C670    1.416   .     A
C665   C667    1.421   .     A
C665   C1386   1.414   .     S
C666   C668    1.421   .     A
C666   C1385   1.414   1_554 S
C669   O691    1.380   .     S
C669   C1363   1.398   .     S
C670   O693    1.380   .     S
C670   C1364   1.398   1_554 S
Cu671  N673    2.039   .     S
Cu671  O677    1.965   .     S
Cu671  Cu672   2.714   .     S
Cu671  O681    1.967   .     S
Cu671  O675    1.968   .     S
Cu671  O679    1.968   .     S
Cu672  O678    1.965   .     S
Cu672  O676    1.968   .     S
Cu672  O680    1.968   .     S
Cu672  O682    1.967   .     S
Cu672  N674    2.039   .     S
O683   H684    0.989   .     S
O685   H686    0.989   .     S
O687   H688    0.989   .     S
O689   H690    0.989   .     S
O691   H692    0.992   .     S
O693   H694    0.992   .     S
N695   H696    1.046   .     S
N695   H697    1.046   .     S
N698   H700    1.046   .     S
N698   H699    1.046   .     S
N701   H703    1.045   .     S
N701   H702    1.045   .     S
N704   H706    1.045   .     S
N704   H705    1.045   .     S
N707   H708    1.045   .     S
N707   H709    1.045   .     S
N710   H711    1.045   .     S
N710   H712    1.045   .     S
O713   H714    0.982   .     S
O715   H716    0.982   .     S
O717   H718    0.980   .     S
O719   H720    0.980   .     S
C721   O758    1.301   .     A
C721   O755    1.301   .     A
C721   C730    1.454   .     S
C722   O756    1.301   .     A
C722   O757    1.301   .     A
C722   C729    1.454   .     S
C723   C748    1.415   .     A
C723   N775    1.436   .     S
C724   C747    1.415   .     A
C724   N778    1.436   .     S
C724   C30     1.398   1_556 S
C725   N781    1.437   .     S
C725   C730    1.405   .     A
C725   C887    1.401   1_455 S
C726   N784    1.437   .     S
C726   C729    1.405   .     A
C726   C808    1.401   .     S
C727   C729    1.407   .     A
C727   N787    1.434   .     S
C727   C805    1.401   .     S
C728   N790    1.434   .     S
C728   C730    1.407   .     A
C728   C886    1.401   1_455 S
C731   O793    1.375   .     S
C731   N754    1.378   .     A
C731   C1214   1.414   1_545 S
C732   O795    1.375   .     S
C732   N753    1.378   .     A
C732   C973    1.414   .     S
C733   O797    1.373   .     S
C733   N754    1.379   .     A
C733   C1212   1.414   1_545 S
C734   N753    1.379   .     A
C734   O799    1.373   .     S
C734   C971    1.414   .     S
C735   C740    1.456   .     S
C735   O759    1.302   .     A
C735   O762    1.300   .     A
C736   O760    1.302   .     A
C736   C739    1.456   .     S
C736   O761    1.300   .     A
C737   C747    1.410   .     A
C737   O763    1.383   .     S
C737   C739    1.409   .     A
C738   C748    1.410   .     A
C738   O765    1.383   .     S
C738   C740    1.409   .     A
C739   C741    1.409   .     A
C740   C742    1.409   .     A
C741   C743    1.408   .     A
C741   O767    1.386   .     S
C742   O769    1.386   .     S
C742   C744    1.408   .     A
C743   C749    1.416   .     A
C743   C745    1.419   .     A
C744   C746    1.419   .     A
C744   C750    1.416   .     A
C745   C747    1.421   .     A
C745   C26     1.414   1_556 S
C746   C748    1.421   .     A
C749   O771    1.380   .     S
C749   C3      1.398   1_556 S
C750   O773    1.380   .     S
Cu751  N753    2.039   .     S
Cu751  O757    1.965   .     S
Cu751  Cu752   2.714   .     S
Cu751  O761    1.967   .     S
Cu751  O755    1.968   .     S
Cu751  O759    1.968   .     S
Cu752  O758    1.965   .     S
Cu752  O756    1.968   .     S
Cu752  O760    1.968   .     S
Cu752  O762    1.967   .     S
Cu752  N754    2.039   .     S
O763   H764    0.989   .     S
O765   H766    0.989   .     S
O767   H768    0.989   .     S
O769   H770    0.989   .     S
O771   H772    0.992   .     S
O773   H774    0.992   .     S
N775   H776    1.046   .     S
N775   H777    1.046   .     S
N778   H780    1.046   .     S
N778   H779    1.046   .     S
N781   H783    1.045   .     S
N781   H782    1.045   .     S
N784   H786    1.045   .     S
N784   H785    1.045   .     S
N787   H788    1.045   .     S
N787   H789    1.045   .     S
N790   H791    1.045   .     S
N790   H792    1.045   .     S
O793   H794    0.982   .     S
O795   H796    0.982   .     S
O797   H798    0.980   .     S
O799   H800    0.980   .     S
C801   O838    1.301   .     A
C801   O835    1.301   .     A
C801   C810    1.454   .     S
C802   O836    1.301   .     A
C802   O837    1.301   .     A
C802   C809    1.454   .     S
C803   C828    1.415   .     A
C803   N855    1.436   .     S
C804   C827    1.415   .     A
C804   N858    1.436   .     S
C804   C110    1.398   1_556 S
C805   N861    1.437   .     S
C805   C810    1.405   .     A
C806   N864    1.437   .     S
C806   C809    1.405   .     A
C806   C888    1.401   .     S
C807   C809    1.407   .     A
C807   N867    1.434   .     S
C807   C885    1.401   .     S
C808   N870    1.434   .     S
C808   C810    1.407   .     A
C811   O873    1.375   .     S
C811   N834    1.378   .     A
C811   C1294   1.414   1_545 S
C812   O875    1.375   .     S
C812   N833    1.378   .     A
C812   C1053   1.414   .     S
C813   O877    1.373   .     S
C813   N834    1.379   .     A
C813   C1292   1.414   1_545 S
C814   N833    1.379   .     A
C814   O879    1.373   .     S
C814   C1051   1.414   .     S
C815   C820    1.456   .     S
C815   O839    1.302   .     A
C815   O842    1.300   .     A
C816   O840    1.302   .     A
C816   C819    1.456   .     S
C816   O841    1.300   .     A
C817   C827    1.410   .     A
C817   O843    1.383   .     S
C817   C819    1.409   .     A
C818   C828    1.410   .     A
C818   O845    1.383   .     S
C818   C820    1.409   .     A
C819   C821    1.409   .     A
C820   C822    1.409   .     A
C821   C823    1.408   .     A
C821   O847    1.386   .     S
C822   O849    1.386   .     S
C822   C824    1.408   .     A
C823   C829    1.416   .     A
C823   C825    1.419   .     A
C824   C826    1.419   .     A
C824   C830    1.416   .     A
C825   C827    1.421   .     A
C825   C106    1.414   1_556 S
C826   C828    1.421   .     A
C829   O851    1.380   .     S
C829   C83     1.398   1_556 S
C830   O853    1.380   .     S
Cu831  N833    2.039   .     S
Cu831  O837    1.965   .     S
Cu831  Cu832   2.714   .     S
Cu831  O841    1.967   .     S
Cu831  O835    1.968   .     S
Cu831  O839    1.968   .     S
Cu832  O838    1.965   .     S
Cu832  O836    1.968   .     S
Cu832  O840    1.968   .     S
Cu832  O842    1.967   .     S
Cu832  N834    2.039   .     S
O843   H844    0.989   .     S
O845   H846    0.989   .     S
O847   H848    0.989   .     S
O849   H850    0.989   .     S
O851   H852    0.992   .     S
O853   H854    0.992   .     S
N855   H856    1.046   .     S
N855   H857    1.046   .     S
N858   H860    1.046   .     S
N858   H859    1.046   .     S
N861   H863    1.045   .     S
N861   H862    1.045   .     S
N864   H866    1.045   .     S
N864   H865    1.045   .     S
N867   H868    1.045   .     S
N867   H869    1.045   .     S
N870   H871    1.045   .     S
N870   H872    1.045   .     S
O873   H874    0.982   .     S
O875   H876    0.982   .     S
O877   H878    0.980   .     S
O879   H880    0.980   .     S
C881   O918    1.301   .     A
C881   O915    1.301   .     A
C881   C890    1.454   .     S
C882   O916    1.301   .     A
C882   O917    1.301   .     A
C882   C889    1.454   .     S
C883   C908    1.415   .     A
C883   N935    1.436   .     S
C884   C907    1.415   .     A
C884   N938    1.436   .     S
C884   C190    1.398   1_556 S
C885   N941    1.437   .     S
C885   C890    1.405   .     A
C886   N944    1.437   .     S
C886   C889    1.405   .     A
C886   C728    1.401   1_655 S
C887   C889    1.407   .     A
C887   N947    1.434   .     S
C887   C725    1.401   1_655 S
C888   N950    1.434   .     S
C888   C890    1.407   .     A
C891   O953    1.375   .     S
C891   N914    1.378   .     A
C891   C1374   1.414   1_545 S
C892   O955    1.375   .     S
C892   N913    1.378   .     A
C892   C1133   1.414   .     S
C893   O957    1.373   .     S
C893   N914    1.379   .     A
C893   C1372   1.414   1_545 S
C894   N913    1.379   .     A
C894   O959    1.373   .     S
C894   C1131   1.414   .     S
C895   C900    1.456   .     S
C895   O919    1.302   .     A
C895   O922    1.300   .     A
C896   O920    1.302   .     A
C896   C899    1.456   .     S
C896   O921    1.300   .     A
C897   C907    1.410   .     A
C897   O923    1.383   .     S
C897   C899    1.409   .     A
C898   C908    1.410   .     A
C898   O925    1.383   .     S
C898   C900    1.409   .     A
C899   C901    1.409   .     A
C900   C902    1.409   .     A
C901   C903    1.408   .     A
C901   O927    1.386   .     S
C902   O929    1.386   .     S
C902   C904    1.408   .     A
C903   C909    1.416   .     A
C903   C905    1.419   .     A
C904   C906    1.419   .     A
C904   C910    1.416   .     A
C905   C907    1.421   .     A
C905   C186    1.414   1_556 S
C906   C908    1.421   .     A
C909   O931    1.380   .     S
C909   C163    1.398   1_556 S
C910   O933    1.380   .     S
Cu911  N913    2.039   .     S
Cu911  O917    1.965   .     S
Cu911  Cu912   2.714   .     S
Cu911  O921    1.967   .     S
Cu911  O915    1.968   .     S
Cu911  O919    1.968   .     S
Cu912  O918    1.965   .     S
Cu912  O916    1.968   .     S
Cu912  O920    1.968   .     S
Cu912  O922    1.967   .     S
Cu912  N914    2.039   .     S
O923   H924    0.989   .     S
O925   H926    0.989   .     S
O927   H928    0.989   .     S
O929   H930    0.989   .     S
O931   H932    0.992   .     S
O933   H934    0.992   .     S
N935   H936    1.046   .     S
N935   H937    1.046   .     S
N938   H940    1.046   .     S
N938   H939    1.046   .     S
N941   H943    1.045   .     S
N941   H942    1.045   .     S
N944   H946    1.045   .     S
N944   H945    1.045   .     S
N947   H948    1.045   .     S
N947   H949    1.045   .     S
N950   H951    1.045   .     S
N950   H952    1.045   .     S
O953   H954    0.982   .     S
O955   H956    0.982   .     S
O957   H958    0.980   .     S
O959   H960    0.980   .     S
C961   O998    1.301   .     A
C961   O995    1.301   .     A
C961   C970    1.454   .     S
C962   O996    1.301   .     A
C962   O997    1.301   .     A
C962   C969    1.454   .     S
C963   C988    1.415   .     A
C963   N1015   1.436   .     S
C964   C987    1.415   .     A
C964   N1018   1.436   .     S
C964   C270    1.398   1_556 S
C965   N1021   1.437   .     S
C965   C970    1.405   .     A
C965   C1127   1.401   1_455 S
C966   N1024   1.437   .     S
C966   C969    1.405   .     A
C966   C1048   1.401   .     S
C967   C969    1.407   .     A
C967   N1027   1.434   .     S
C967   C1045   1.401   .     S
C968   N1030   1.434   .     S
C968   C970    1.407   .     A
C968   C1126   1.401   1_455 S
C971   O1033   1.375   .     S
C971   N994    1.378   .     A
C972   O1035   1.375   .     S
C972   N993    1.378   .     A
C972   C1213   1.414   .     S
C973   O1037   1.373   .     S
C973   N994    1.379   .     A
C974   N993    1.379   .     A
C974   O1039   1.373   .     S
C974   C1211   1.414   .     S
C975   C980    1.456   .     S
C975   O999    1.302   .     A
C975   O1002   1.300   .     A
C976   O1000   1.302   .     A
C976   C979    1.456   .     S
C976   O1001   1.300   .     A
C977   C987    1.410   .     A
C977   O1003   1.383   .     S
C977   C979    1.409   .     A
C978   C988    1.410   .     A
C978   O1005   1.383   .     S
C978   C980    1.409   .     A
C979   C981    1.409   .     A
C980   C982    1.409   .     A
C981   C983    1.408   .     A
C981   O1007   1.386   .     S
C982   O1009   1.386   .     S
C982   C984    1.408   .     A
C983   C989    1.416   .     A
C983   C985    1.419   .     A
C984   C986    1.419   .     A
C984   C990    1.416   .     A
C985   C987    1.421   .     A
C985   C266    1.414   1_556 S
C986   C988    1.421   .     A
C989   O1011   1.380   .     S
C989   C243    1.398   1_556 S
C990   O1013   1.380   .     S
Cu991  N993    2.039   .     S
Cu991  O997    1.965   .     S
Cu991  Cu992   2.714   .     S
Cu991  O1001   1.967   .     S
Cu991  O995    1.968   .     S
Cu991  O999    1.968   .     S
Cu992  O998    1.965   .     S
Cu992  O996    1.968   .     S
Cu992  O1000   1.968   .     S
Cu992  O1002   1.967   .     S
Cu992  N994    2.039   .     S
O1003  H1004   0.989   .     S
O1005  H1006   0.989   .     S
O1007  H1008   0.989   .     S
O1009  H1010   0.989   .     S
O1011  H1012   0.992   .     S
O1013  H1014   0.992   .     S
N1015  H1016   1.046   .     S
N1015  H1017   1.046   .     S
N1018  H1020   1.046   .     S
N1018  H1019   1.046   .     S
N1021  H1023   1.045   .     S
N1021  H1022   1.045   .     S
N1024  H1026   1.045   .     S
N1024  H1025   1.045   .     S
N1027  H1028   1.045   .     S
N1027  H1029   1.045   .     S
N1030  H1031   1.045   .     S
N1030  H1032   1.045   .     S
O1033  H1034   0.982   .     S
O1035  H1036   0.982   .     S
O1037  H1038   0.980   .     S
O1039  H1040   0.980   .     S
C1041  O1078   1.301   .     A
C1041  O1075   1.301   .     A
C1041  C1050   1.454   .     S
C1042  O1076   1.301   .     A
C1042  O1077   1.301   .     A
C1042  C1049   1.454   .     S
C1043  C1068   1.415   .     A
C1043  N1095   1.436   .     S
C1044  C1067   1.415   .     A
C1044  N1098   1.436   .     S
C1044  C350    1.398   1_556 S
C1045  N1101   1.437   .     S
C1045  C1050   1.405   .     A
C1046  N1104   1.437   .     S
C1046  C1049   1.405   .     A
C1046  C1128   1.401   .     S
C1047  C1049   1.407   .     A
C1047  N1107   1.434   .     S
C1047  C1125   1.401   .     S
C1048  N1110   1.434   .     S
C1048  C1050   1.407   .     A
C1051  O1113   1.375   .     S
C1051  N1074   1.378   .     A
C1052  O1115   1.375   .     S
C1052  N1073   1.378   .     A
C1052  C1293   1.414   .     S
C1053  O1117   1.373   .     S
C1053  N1074   1.379   .     A
C1054  N1073   1.379   .     A
C1054  O1119   1.373   .     S
C1054  C1291   1.414   .     S
C1055  C1060   1.456   .     S
C1055  O1079   1.302   .     A
C1055  O1082   1.300   .     A
C1056  O1080   1.302   .     A
C1056  C1059   1.456   .     S
C1056  O1081   1.300   .     A
C1057  C1067   1.410   .     A
C1057  O1083   1.383   .     S
C1057  C1059   1.409   .     A
C1058  C1068   1.410   .     A
C1058  O1085   1.383   .     S
C1058  C1060   1.409   .     A
C1059  C1061   1.409   .     A
C1060  C1062   1.409   .     A
C1061  C1063   1.408   .     A
C1061  O1087   1.386   .     S
C1062  O1089   1.386   .     S
C1062  C1064   1.408   .     A
C1063  C1069   1.416   .     A
C1063  C1065   1.419   .     A
C1064  C1066   1.419   .     A
C1064  C1070   1.416   .     A
C1065  C1067   1.421   .     A
C1065  C346    1.414   1_556 S
C1066  C1068   1.421   .     A
C1069  O1091   1.380   .     S
C1069  C323    1.398   1_556 S
C1070  O1093   1.380   .     S
Cu1071 N1073   2.039   .     S
Cu1071 O1077   1.965   .     S
Cu1071 Cu1072  2.714   .     S
Cu1071 O1081   1.967   .     S
Cu1071 O1075   1.968   .     S
Cu1071 O1079   1.968   .     S
Cu1072 O1078   1.965   .     S
Cu1072 O1076   1.968   .     S
Cu1072 O1080   1.968   .     S
Cu1072 O1082   1.967   .     S
Cu1072 N1074   2.039   .     S
O1083  H1084   0.989   .     S
O1085  H1086   0.989   .     S
O1087  H1088   0.989   .     S
O1089  H1090   0.989   .     S
O1091  H1092   0.992   .     S
O1093  H1094   0.992   .     S
N1095  H1096   1.046   .     S
N1095  H1097   1.046   .     S
N1098  H1100   1.046   .     S
N1098  H1099   1.046   .     S
N1101  H1103   1.045   .     S
N1101  H1102   1.045   .     S
N1104  H1106   1.045   .     S
N1104  H1105   1.045   .     S
N1107  H1108   1.045   .     S
N1107  H1109   1.045   .     S
N1110  H1111   1.045   .     S
N1110  H1112   1.045   .     S
O1113  H1114   0.982   .     S
O1115  H1116   0.982   .     S
O1117  H1118   0.980   .     S
O1119  H1120   0.980   .     S
C1121  O1158   1.301   .     A
C1121  O1155   1.301   .     A
C1121  C1130   1.454   .     S
C1122  O1156   1.301   .     A
C1122  O1157   1.301   .     A
C1122  C1129   1.454   .     S
C1123  C1148   1.415   .     A
C1123  N1175   1.436   .     S
C1124  C1147   1.415   .     A
C1124  N1178   1.436   .     S
C1124  C430    1.398   1_556 S
C1125  N1181   1.437   .     S
C1125  C1130   1.405   .     A
C1126  N1184   1.437   .     S
C1126  C1129   1.405   .     A
C1126  C968    1.401   1_655 S
C1127  C1129   1.407   .     A
C1127  N1187   1.434   .     S
C1127  C965    1.401   1_655 S
C1128  N1190   1.434   .     S
C1128  C1130   1.407   .     A
C1131  O1193   1.375   .     S
C1131  N1154   1.378   .     A
C1132  O1195   1.375   .     S
C1132  N1153   1.378   .     A
C1132  C1373   1.414   .     S
C1133  O1197   1.373   .     S
C1133  N1154   1.379   .     A
C1134  N1153   1.379   .     A
C1134  O1199   1.373   .     S
C1134  C1371   1.414   .     S
C1135  C1140   1.456   .     S
C1135  O1159   1.302   .     A
C1135  O1162   1.300   .     A
C1136  O1160   1.302   .     A
C1136  C1139   1.456   .     S
C1136  O1161   1.300   .     A
C1137  C1147   1.410   .     A
C1137  O1163   1.383   .     S
C1137  C1139   1.409   .     A
C1138  C1148   1.410   .     A
C1138  O1165   1.383   .     S
C1138  C1140   1.409   .     A
C1139  C1141   1.409   .     A
C1140  C1142   1.409   .     A
C1141  C1143   1.408   .     A
C1141  O1167   1.386   .     S
C1142  O1169   1.386   .     S
C1142  C1144   1.408   .     A
C1143  C1149   1.416   .     A
C1143  C1145   1.419   .     A
C1144  C1146   1.419   .     A
C1144  C1150   1.416   .     A
C1145  C1147   1.421   .     A
C1145  C426    1.414   1_556 S
C1146  C1148   1.421   .     A
C1149  O1171   1.380   .     S
C1149  C403    1.398   1_556 S
C1150  O1173   1.380   .     S
Cu1151 N1153   2.039   .     S
Cu1151 O1157   1.965   .     S
Cu1151 Cu1152  2.714   .     S
Cu1151 O1161   1.967   .     S
Cu1151 O1155   1.968   .     S
Cu1151 O1159   1.968   .     S
Cu1152 O1158   1.965   .     S
Cu1152 O1156   1.968   .     S
Cu1152 O1160   1.968   .     S
Cu1152 O1162   1.967   .     S
Cu1152 N1154   2.039   .     S
O1163  H1164   0.989   .     S
O1165  H1166   0.989   .     S
O1167  H1168   0.989   .     S
O1169  H1170   0.989   .     S
O1171  H1172   0.992   .     S
O1173  H1174   0.992   .     S
N1175  H1176   1.046   .     S
N1175  H1177   1.046   .     S
N1178  H1180   1.046   .     S
N1178  H1179   1.046   .     S
N1181  H1183   1.045   .     S
N1181  H1182   1.045   .     S
N1184  H1186   1.045   .     S
N1184  H1185   1.045   .     S
N1187  H1188   1.045   .     S
N1187  H1189   1.045   .     S
N1190  H1191   1.045   .     S
N1190  H1192   1.045   .     S
O1193  H1194   0.982   .     S
O1195  H1196   0.982   .     S
O1197  H1198   0.980   .     S
O1199  H1200   0.980   .     S
C1201  O1238   1.301   .     A
C1201  O1235   1.301   .     A
C1201  C1210   1.454   .     S
C1202  O1236   1.301   .     A
C1202  O1237   1.301   .     A
C1202  C1209   1.454   .     S
C1203  C1228   1.415   .     A
C1203  N1255   1.436   .     S
C1204  C1227   1.415   .     A
C1204  N1258   1.436   .     S
C1204  C510    1.398   1_556 S
C1205  N1261   1.437   .     S
C1205  C1210   1.405   .     A
C1205  C1367   1.401   1_455 S
C1206  N1264   1.437   .     S
C1206  C1209   1.405   .     A
C1206  C1288   1.401   .     S
C1207  C1209   1.407   .     A
C1207  N1267   1.434   .     S
C1207  C1285   1.401   .     S
C1208  N1270   1.434   .     S
C1208  C1210   1.407   .     A
C1208  C1366   1.401   1_455 S
C1211  O1273   1.375   .     S
C1211  N1234   1.378   .     A
C1212  O1275   1.375   .     S
C1212  N1233   1.378   .     A
C1212  C733    1.414   1_565 S
C1213  O1277   1.373   .     S
C1213  N1234   1.379   .     A
C1214  N1233   1.379   .     A
C1214  O1279   1.373   .     S
C1214  C731    1.414   1_565 S
C1215  C1220   1.456   .     S
C1215  O1239   1.302   .     A
C1215  O1242   1.300   .     A
C1216  O1240   1.302   .     A
C1216  C1219   1.456   .     S
C1216  O1241   1.300   .     A
C1217  C1227   1.410   .     A
C1217  O1243   1.383   .     S
C1217  C1219   1.409   .     A
C1218  C1228   1.410   .     A
C1218  O1245   1.383   .     S
C1218  C1220   1.409   .     A
C1219  C1221   1.409   .     A
C1220  C1222   1.409   .     A
C1221  C1223   1.408   .     A
C1221  O1247   1.386   .     S
C1222  O1249   1.386   .     S
C1222  C1224   1.408   .     A
C1223  C1229   1.416   .     A
C1223  C1225   1.419   .     A
C1224  C1226   1.419   .     A
C1224  C1230   1.416   .     A
C1225  C1227   1.421   .     A
C1225  C506    1.414   1_556 S
C1226  C1228   1.421   .     A
C1229  O1251   1.380   .     S
C1229  C483    1.398   1_556 S
C1230  O1253   1.380   .     S
Cu1231 N1233   2.039   .     S
Cu1231 O1237   1.965   .     S
Cu1231 Cu1232  2.714   .     S
Cu1231 O1241   1.967   .     S
Cu1231 O1235   1.968   .     S
Cu1231 O1239   1.968   .     S
Cu1232 O1238   1.965   .     S
Cu1232 O1236   1.968   .     S
Cu1232 O1240   1.968   .     S
Cu1232 O1242   1.967   .     S
Cu1232 N1234   2.039   .     S
O1243  H1244   0.989   .     S
O1245  H1246   0.989   .     S
O1247  H1248   0.989   .     S
O1249  H1250   0.989   .     S
O1251  H1252   0.992   .     S
O1253  H1254   0.992   .     S
N1255  H1256   1.046   .     S
N1255  H1257   1.046   .     S
N1258  H1260   1.046   .     S
N1258  H1259   1.046   .     S
N1261  H1263   1.045   .     S
N1261  H1262   1.045   .     S
N1264  H1266   1.045   .     S
N1264  H1265   1.045   .     S
N1267  H1268   1.045   .     S
N1267  H1269   1.045   .     S
N1270  H1271   1.045   .     S
N1270  H1272   1.045   .     S
O1273  H1274   0.982   .     S
O1275  H1276   0.982   .     S
O1277  H1278   0.980   .     S
O1279  H1280   0.980   .     S
C1281  O1318   1.301   .     A
C1281  O1315   1.301   .     A
C1281  C1290   1.454   .     S
C1282  O1316   1.301   .     A
C1282  O1317   1.301   .     A
C1282  C1289   1.454   .     S
C1283  C1308   1.415   .     A
C1283  N1335   1.436   .     S
C1284  C1307   1.415   .     A
C1284  N1338   1.436   .     S
C1284  C590    1.398   1_556 S
C1285  N1341   1.437   .     S
C1285  C1290   1.405   .     A
C1286  N1344   1.437   .     S
C1286  C1289   1.405   .     A
C1286  C1368   1.401   .     S
C1287  C1289   1.407   .     A
C1287  N1347   1.434   .     S
C1287  C1365   1.401   .     S
C1288  N1350   1.434   .     S
C1288  C1290   1.407   .     A
C1291  O1353   1.375   .     S
C1291  N1314   1.378   .     A
C1292  O1355   1.375   .     S
C1292  N1313   1.378   .     A
C1292  C813    1.414   1_565 S
C1293  O1357   1.373   .     S
C1293  N1314   1.379   .     A
C1294  N1313   1.379   .     A
C1294  O1359   1.373   .     S
C1294  C811    1.414   1_565 S
C1295  C1300   1.456   .     S
C1295  O1319   1.302   .     A
C1295  O1322   1.300   .     A
C1296  O1320   1.302   .     A
C1296  C1299   1.456   .     S
C1296  O1321   1.300   .     A
C1297  C1307   1.410   .     A
C1297  O1323   1.383   .     S
C1297  C1299   1.409   .     A
C1298  C1308   1.410   .     A
C1298  O1325   1.383   .     S
C1298  C1300   1.409   .     A
C1299  C1301   1.409   .     A
C1300  C1302   1.409   .     A
C1301  C1303   1.408   .     A
C1301  O1327   1.386   .     S
C1302  O1329   1.386   .     S
C1302  C1304   1.408   .     A
C1303  C1309   1.416   .     A
C1303  C1305   1.419   .     A
C1304  C1306   1.419   .     A
C1304  C1310   1.416   .     A
C1305  C1307   1.421   .     A
C1305  C586    1.414   1_556 S
C1306  C1308   1.421   .     A
C1309  O1331   1.380   .     S
C1309  C563    1.398   1_556 S
C1310  O1333   1.380   .     S
Cu1311 N1313   2.039   .     S
Cu1311 O1317   1.965   .     S
Cu1311 Cu1312  2.714   .     S
Cu1311 O1321   1.967   .     S
Cu1311 O1315   1.968   .     S
Cu1311 O1319   1.968   .     S
Cu1312 O1318   1.965   .     S
Cu1312 O1316   1.968   .     S
Cu1312 O1320   1.968   .     S
Cu1312 O1322   1.967   .     S
Cu1312 N1314   2.039   .     S
O1323  H1324   0.989   .     S
O1325  H1326   0.989   .     S
O1327  H1328   0.989   .     S
O1329  H1330   0.989   .     S
O1331  H1332   0.992   .     S
O1333  H1334   0.992   .     S
N1335  H1336   1.046   .     S
N1335  H1337   1.046   .     S
N1338  H1340   1.046   .     S
N1338  H1339   1.046   .     S
N1341  H1343   1.045   .     S
N1341  H1342   1.045   .     S
N1344  H1346   1.045   .     S
N1344  H1345   1.045   .     S
N1347  H1348   1.045   .     S
N1347  H1349   1.045   .     S
N1350  H1351   1.045   .     S
N1350  H1352   1.045   .     S
O1353  H1354   0.982   .     S
O1355  H1356   0.982   .     S
O1357  H1358   0.980   .     S
O1359  H1360   0.980   .     S
C1361  O1398   1.301   .     A
C1361  O1395   1.301   .     A
C1361  C1370   1.454   .     S
C1362  O1396   1.301   .     A
C1362  O1397   1.301   .     A
C1362  C1369   1.454   .     S
C1363  C1388   1.415   .     A
C1363  N1415   1.436   .     S
C1364  C1387   1.415   .     A
C1364  N1418   1.436   .     S
C1364  C670    1.398   1_556 S
C1365  N1421   1.437   .     S
C1365  C1370   1.405   .     A
C1366  N1424   1.437   .     S
C1366  C1369   1.405   .     A
C1366  C1208   1.401   1_655 S
C1367  C1369   1.407   .     A
C1367  N1427   1.434   .     S
C1367  C1205   1.401   1_655 S
C1368  N1430   1.434   .     S
C1368  C1370   1.407   .     A
C1371  O1433   1.375   .     S
C1371  N1394   1.378   .     A
C1372  O1435   1.375   .     S
C1372  N1393   1.378   .     A
C1372  C893    1.414   1_565 S
C1373  O1437   1.373   .     S
C1373  N1394   1.379   .     A
C1374  N1393   1.379   .     A
C1374  O1439   1.373   .     S
C1374  C891    1.414   1_565 S
C1375  C1380   1.456   .     S
C1375  O1399   1.302   .     A
C1375  O1402   1.300   .     A
C1376  O1400   1.302   .     A
C1376  C1379   1.456   .     S
C1376  O1401   1.300   .     A
C1377  C1387   1.410   .     A
C1377  O1403   1.383   .     S
C1377  C1379   1.409   .     A
C1378  C1388   1.410   .     A
C1378  O1405   1.383   .     S
C1378  C1380   1.409   .     A
C1379  C1381   1.409   .     A
C1380  C1382   1.409   .     A
C1381  C1383   1.408   .     A
C1381  O1407   1.386   .     S
C1382  O1409   1.386   .     S
C1382  C1384   1.408   .     A
C1383  C1389   1.416   .     A
C1383  C1385   1.419   .     A
C1384  C1386   1.419   .     A
C1384  C1390   1.416   .     A
C1385  C1387   1.421   .     A
C1385  C666    1.414   1_556 S
C1386  C1388   1.421   .     A
C1389  O1411   1.380   .     S
C1389  C643    1.398   1_556 S
C1390  O1413   1.380   .     S
Cu1391 N1393   2.039   .     S
Cu1391 O1397   1.965   .     S
Cu1391 Cu1392  2.714   .     S
Cu1391 O1401   1.967   .     S
Cu1391 O1395   1.968   .     S
Cu1391 O1399   1.968   .     S
Cu1392 O1398   1.965   .     S
Cu1392 O1396   1.968   .     S
Cu1392 O1400   1.968   .     S
Cu1392 O1402   1.967   .     S
Cu1392 N1394   2.039   .     S
O1403  H1404   0.989   .     S
O1405  H1406   0.989   .     S
O1407  H1408   0.989   .     S
O1409  H1410   0.989   .     S
O1411  H1412   0.992   .     S
O1413  H1414   0.992   .     S
N1415  H1416   1.046   .     S
N1415  H1417   1.046   .     S
N1418  H1420   1.046   .     S
N1418  H1419   1.046   .     S
N1421  H1423   1.045   .     S
N1421  H1422   1.045   .     S
N1424  H1426   1.045   .     S
N1424  H1425   1.045   .     S
N1427  H1428   1.045   .     S
N1427  H1429   1.045   .     S
N1430  H1431   1.045   .     S
N1430  H1432   1.045   .     S
O1433  H1434   0.982   .     S
O1435  H1436   0.982   .     S
O1437  H1438   0.980   .     S
O1439  H1440   0.980   .     S
