data_str_m2_o1_o1_pcu_sym.43
_audit_creation_date              2020-01-03
_audit_creation_method            'Materials Studio'
_symmetry_space_group_name_H-M    'P1'
_symmetry_Int_Tables_number       1
_symmetry_cell_setting            triclinic
loop_
_symmetry_equiv_pos_as_xyz
  x,y,z
_cell_length_a                    32.0271
_cell_length_b                    29.6909
_cell_length_c                    28.8202
_cell_angle_alpha                 93.4726
_cell_angle_beta                  89.6665
_cell_angle_gamma                 89.9891
loop_
_atom_site_label
_atom_site_type_symbol
_atom_site_fract_x
_atom_site_fract_y
_atom_site_fract_z
_atom_site_U_iso_or_equiv
_atom_site_adp_type
_atom_site_occupancy
C1     C     0.06144   0.19283   0.16571   0.00000  Uiso   1.00
C2     C     0.49996   0.29013   0.31112   0.00000  Uiso   1.00
C3     C     0.00083   0.28977   0.02753   0.00000  Uiso   1.00
C4     C     0.49916   0.21023   0.30581   0.00000  Uiso   1.00
C5     C     0.25005   0.45987   0.02221   0.00000  Uiso   1.00
C6     C     0.24995   0.04013   0.31112   0.00000  Uiso   1.00
C7     C     0.25083   0.03977   0.02753   0.00000  Uiso   1.00
C8     C     0.24918   0.46023   0.30581   0.00000  Uiso   1.00
C9     C     0.39565   0.13176   0.12429   0.00000  Uiso   1.00
C10    C     0.10437   0.36822   0.20905   0.00000  Uiso   1.00
C11    C     0.12103   0.34323   0.12850   0.00000  Uiso   1.00
C12    C     0.43857   0.30717   0.16762   0.00000  Uiso   1.00
C13    C     0.37896   0.15679   0.20482   0.00000  Uiso   1.00
C14    C     0.11930   0.15530   0.20586   0.00000  Uiso   1.00
C15    C     0.38069   0.34469   0.12748   0.00000  Uiso   1.00
C16    C     0.39305   0.36605   0.20974   0.00000  Uiso   1.00
C17    C     0.10697   0.13397   0.12359   0.00000  Uiso   1.00
C18    C     0.14563   0.38178   0.12428   0.00000  Uiso   1.00
C19    C     0.35435   0.11824   0.20904   0.00000  Uiso   1.00
C20    C     0.37104   0.09321   0.12851   0.00000  Uiso   1.00
C21    C     0.12897   0.40678   0.20483   0.00000  Uiso   1.00
C22    C     0.36931   0.40531   0.20585   0.00000  Uiso   1.00
C23    C     0.43886   0.19250   0.16579   0.00000  Uiso   1.00
C24    C     0.13070   0.09470   0.12748   0.00000  Uiso   1.00
C25    C     0.14304   0.11603   0.20975   0.00000  Uiso   1.00
C26    C     0.35695   0.38395   0.12359   0.00000  Uiso   1.00
C27    C     0.09731   0.33853   0.16941   0.00000  Uiso   1.00
C28    C     0.40270   0.16146   0.16392   0.00000  Uiso   1.00
C29    C     0.40211   0.33797   0.16932   0.00000  Uiso   1.00
C30    C     0.09789   0.16203   0.16402   0.00000  Uiso   1.00
C31    C     0.34730   0.08853   0.16941   0.00000  Uiso   1.00
C32    C     0.15269   0.41147   0.16392   0.00000  Uiso   1.00
C33    C     0.15211   0.08797   0.16932   0.00000  Uiso   1.00
C34    C     0.06114   0.30750   0.16755   0.00000  Uiso   1.00
C35    C     0.34789   0.41202   0.16401   0.00000  Uiso   1.00
C36    C     0.00229   0.16585   0.04478   0.00000  Uiso   1.00
C37    C     0.49774   0.33415   0.28855   0.00000  Uiso   1.00
C38    C     0.00431   0.33261   0.05596   0.00000  Uiso   1.00
C39    C     0.49563   0.16739   0.27738   0.00000  Uiso   1.00
C40    C     0.25225   0.41585   0.04479   0.00000  Uiso   1.00
C41    C     0.24772   0.08415   0.28855   0.00000  Uiso   1.00
C42    C     0.25431   0.08261   0.05596   0.00000  Uiso   1.00
C43    C     0.24575   0.41739   0.27737   0.00000  Uiso   1.00
C44    C     0.41204   0.14073   0.07756   0.00000  Uiso   1.00
C45    C     0.31143   0.44283   0.16571   0.00000  Uiso   1.00
C46    C     0.08800   0.35922   0.25578   0.00000  Uiso   1.00
C47    C     0.12228   0.30659   0.09084   0.00000  Uiso   1.00
C48    C     0.37769   0.19345   0.24247   0.00000  Uiso   1.00
C49    C     0.11850   0.19022   0.24535   0.00000  Uiso   1.00
C50    C     0.38147   0.30976   0.08800   0.00000  Uiso   1.00
C51    C     0.40615   0.35460   0.25688   0.00000  Uiso   1.00
C52    C     0.09389   0.14544   0.07644   0.00000  Uiso   1.00
C53    C     0.16199   0.39078   0.07755   0.00000  Uiso   1.00
C54    C     0.33797   0.10926   0.25577   0.00000  Uiso   1.00
C55    C     0.37230   0.05656   0.09086   0.00000  Uiso   1.00
C56    C     0.18856   0.05717   0.16762   0.00000  Uiso   1.00
C57    C     0.12772   0.44341   0.24250   0.00000  Uiso   1.00
C58    C     0.36853   0.44024   0.24533   0.00000  Uiso   1.00
C59    C     0.13149   0.05978   0.08799   0.00000  Uiso   1.00
C60    C     0.15612   0.10458   0.25689   0.00000  Uiso   1.00
C61    C     0.34384   0.39539   0.07645   0.00000  Uiso   1.00
C62    C     0.18886   0.44250   0.16579   0.00000  Uiso   1.00
C63    C     0.31114   0.05750   0.16755   0.00000  Uiso   1.00
C64    C     0.00005   0.20987   0.02221   0.00000  Uiso   1.00
Cu65   Cu   -0.00000   0.25000   0.21355   0.00000  Uiso   1.00
Cu66   Cu    0.00000   0.25000   0.11978   0.00000  Uiso   1.00
Cu67   Cu    0.25000   0.00000   0.21355   0.00000  Uiso   1.00
Cu68   Cu    0.25000   0.00000   0.11978   0.00000  Uiso   1.00
H69    H     0.49946   0.16377   0.08140   0.00000  Uiso   1.00
H70    H     0.07051   0.38503   0.27579   0.00000  Uiso   1.00
H71    H     0.12226   0.31431   0.05452   0.00000  Uiso   1.00
H72    H     0.37768   0.18573   0.27879   0.00000  Uiso   1.00
H73    H     0.11488   0.18073   0.28091   0.00000  Uiso   1.00
H74    H     0.38506   0.31923   0.05243   0.00000  Uiso   1.00
H75    H     0.41960   0.38025   0.28055   0.00000  Uiso   1.00
H76    H     0.08048   0.11979   0.05275   0.00000  Uiso   1.00
H77    H     0.17948   0.36498   0.05753   0.00000  Uiso   1.00
H78    H     0.32046   0.13507   0.27576   0.00000  Uiso   1.00
H79    H     0.37231   0.06427   0.05454   0.00000  Uiso   1.00
H80    H     0.00053   0.33623   0.25193   0.00000  Uiso   1.00
H81    H     0.12774   0.43568   0.27881   0.00000  Uiso   1.00
H82    H     0.36494   0.43077   0.28090   0.00000  Uiso   1.00
H83    H     0.13512   0.06926   0.05242   0.00000  Uiso   1.00
H84    H     0.16955   0.13023   0.28057   0.00000  Uiso   1.00
H85    H     0.33038   0.36974   0.05279   0.00000  Uiso   1.00
H86    H     0.47716   0.34756   0.07331   0.00000  Uiso   1.00
H87    H     0.02274   0.15244   0.25996   0.00000  Uiso   1.00
H88    H     0.24947   0.41377   0.08141   0.00000  Uiso   1.00
H89    H     0.25053   0.08623   0.25193   0.00000  Uiso   1.00
H90    H     0.22717   0.09756   0.07331   0.00000  Uiso   1.00
H91    H     0.27293   0.40243   0.26009   0.00000  Uiso   1.00
H92    H     0.42956   0.11493   0.05758   0.00000  Uiso   1.00
N93    N    -0.00000   0.25000   0.28402   0.00000  Uiso   1.00
N94    N     0.00000   0.25000   0.04931   0.00000  Uiso   1.00
N95    N     0.25000   0.00000   0.28402   0.00000  Uiso   1.00
N96    N     0.25000   0.00000   0.04931   0.00000  Uiso   1.00
O97    O     0.04508   0.20491   0.20625   0.00000  Uiso   1.00
O98    O     0.20491   0.04509   0.12709   0.00000  Uiso   1.00
O99    O     0.20491   0.04509   0.20625   0.00000  Uiso   1.00
O100   O     0.29508   0.45491   0.12709   0.00000  Uiso   1.00
O101   O     0.20491   0.45491   0.12709   0.00000  Uiso   1.00
O102   O     0.29508   0.04509   0.20625   0.00000  Uiso   1.00
O103   O     0.29508   0.04509   0.12709   0.00000  Uiso   1.00
O104   O     0.20491   0.45491   0.20625   0.00000  Uiso   1.00
O105   O     0.00805   0.12995   0.02278   0.00000  Uiso   1.00
O106   O     0.49204   0.37006   0.31055   0.00000  Uiso   1.00
O107   O     0.03729   0.35326   0.05735   0.00000  Uiso   1.00
O108   O     0.45491   0.29509   0.12709   0.00000  Uiso   1.00
O109   O     0.46264   0.14675   0.27607   0.00000  Uiso   1.00
O110   O     0.25793   0.37993   0.02279   0.00000  Uiso   1.00
O111   O     0.24199   0.12006   0.31055   0.00000  Uiso   1.00
O112   O     0.28730   0.10326   0.05734   0.00000  Uiso   1.00
O113   O     0.21276   0.39674   0.27591   0.00000  Uiso   1.00
O114   O     0.40360   0.17592   0.05986   0.00000  Uiso   1.00
O115   O     0.09643   0.32402   0.27345   0.00000  Uiso   1.00
O116   O     0.12474   0.26722   0.10047   0.00000  Uiso   1.00
O117   O     0.37526   0.23281   0.23282   0.00000  Uiso   1.00
O118   O     0.12273   0.23008   0.23819   0.00000  Uiso   1.00
O119   O     0.45491   0.29509   0.20625   0.00000  Uiso   1.00
O120   O     0.37727   0.26989   0.09518   0.00000  Uiso   1.00
O121   O     0.39907   0.31739   0.27091   0.00000  Uiso   1.00
O122   O     0.10095   0.18266   0.06245   0.00000  Uiso   1.00
O123   O     0.15356   0.42599   0.05989   0.00000  Uiso   1.00
O124   O     0.34640   0.07407   0.27347   0.00000  Uiso   1.00
O125   O     0.37473   0.01720   0.10050   0.00000  Uiso   1.00
O126   O     0.12527   0.48278   0.23287   0.00000  Uiso   1.00
O127   O     0.37273   0.48011   0.23814   0.00000  Uiso   1.00
O128   O     0.12726   0.01992   0.09515   0.00000  Uiso   1.00
O129   O     0.14905   0.06736   0.27090   0.00000  Uiso   1.00
O130   O     0.04508   0.20491   0.12709   0.00000  Uiso   1.00
O131   O     0.35092   0.43259   0.06242   0.00000  Uiso   1.00
O132   O     0.45491   0.20491   0.12709   0.00000  Uiso   1.00
O133   O     0.04508   0.29509   0.20625   0.00000  Uiso   1.00
O134   O     0.04508   0.29509   0.12709   0.00000  Uiso   1.00
O135   O     0.45491   0.20491   0.20625   0.00000  Uiso   1.00
O136   O     0.29508   0.45491   0.20625   0.00000  Uiso   1.00
C137   C     0.56144   0.19283   0.16571   0.00000  Uiso   1.00
C138   C     0.99996   0.29013   0.31112   0.00000  Uiso   1.00
C139   C     0.50083   0.28977   0.02753   0.00000  Uiso   1.00
C140   C     0.99916   0.21023   0.30581   0.00000  Uiso   1.00
C141   C     0.75005   0.45987   0.02221   0.00000  Uiso   1.00
C142   C     0.74995   0.04013   0.31112   0.00000  Uiso   1.00
C143   C     0.75083   0.03977   0.02753   0.00000  Uiso   1.00
C144   C     0.74918   0.46023   0.30581   0.00000  Uiso   1.00
C145   C     0.89565   0.13176   0.12429   0.00000  Uiso   1.00
C146   C     0.60437   0.36822   0.20905   0.00000  Uiso   1.00
C147   C     0.62103   0.34323   0.12850   0.00000  Uiso   1.00
C148   C     0.93857   0.30717   0.16762   0.00000  Uiso   1.00
C149   C     0.87896   0.15679   0.20482   0.00000  Uiso   1.00
C150   C     0.61930   0.15530   0.20586   0.00000  Uiso   1.00
C151   C     0.88069   0.34469   0.12748   0.00000  Uiso   1.00
C152   C     0.89305   0.36605   0.20974   0.00000  Uiso   1.00
C153   C     0.60697   0.13397   0.12359   0.00000  Uiso   1.00
C154   C     0.64563   0.38178   0.12428   0.00000  Uiso   1.00
C155   C     0.85435   0.11824   0.20904   0.00000  Uiso   1.00
C156   C     0.87104   0.09321   0.12851   0.00000  Uiso   1.00
C157   C     0.62897   0.40678   0.20483   0.00000  Uiso   1.00
C158   C     0.86931   0.40531   0.20585   0.00000  Uiso   1.00
C159   C     0.93886   0.19250   0.16579   0.00000  Uiso   1.00
C160   C     0.63070   0.09470   0.12748   0.00000  Uiso   1.00
C161   C     0.64304   0.11603   0.20975   0.00000  Uiso   1.00
C162   C     0.85695   0.38395   0.12359   0.00000  Uiso   1.00
C163   C     0.59731   0.33853   0.16941   0.00000  Uiso   1.00
C164   C     0.90270   0.16146   0.16392   0.00000  Uiso   1.00
C165   C     0.90211   0.33797   0.16932   0.00000  Uiso   1.00
C166   C     0.59789   0.16203   0.16402   0.00000  Uiso   1.00
C167   C     0.84730   0.08853   0.16941   0.00000  Uiso   1.00
C168   C     0.65269   0.41147   0.16392   0.00000  Uiso   1.00
C169   C     0.65211   0.08797   0.16932   0.00000  Uiso   1.00
C170   C     0.56114   0.30750   0.16755   0.00000  Uiso   1.00
C171   C     0.84789   0.41202   0.16401   0.00000  Uiso   1.00
C172   C     0.50229   0.16585   0.04478   0.00000  Uiso   1.00
C173   C     0.99774   0.33415   0.28855   0.00000  Uiso   1.00
C174   C     0.50431   0.33261   0.05596   0.00000  Uiso   1.00
C175   C     0.99563   0.16739   0.27738   0.00000  Uiso   1.00
C176   C     0.75225   0.41585   0.04479   0.00000  Uiso   1.00
C177   C     0.74772   0.08415   0.28855   0.00000  Uiso   1.00
C178   C     0.75431   0.08261   0.05596   0.00000  Uiso   1.00
C179   C     0.74575   0.41739   0.27737   0.00000  Uiso   1.00
C180   C     0.91204   0.14073   0.07756   0.00000  Uiso   1.00
C181   C     0.81143   0.44283   0.16571   0.00000  Uiso   1.00
C182   C     0.58800   0.35922   0.25578   0.00000  Uiso   1.00
C183   C     0.62228   0.30659   0.09084   0.00000  Uiso   1.00
C184   C     0.87769   0.19345   0.24247   0.00000  Uiso   1.00
C185   C     0.61850   0.19022   0.24535   0.00000  Uiso   1.00
C186   C     0.88147   0.30976   0.08800   0.00000  Uiso   1.00
C187   C     0.90615   0.35460   0.25688   0.00000  Uiso   1.00
C188   C     0.59389   0.14544   0.07644   0.00000  Uiso   1.00
C189   C     0.66199   0.39078   0.07755   0.00000  Uiso   1.00
C190   C     0.83797   0.10926   0.25577   0.00000  Uiso   1.00
C191   C     0.87230   0.05656   0.09086   0.00000  Uiso   1.00
C192   C     0.68856   0.05717   0.16762   0.00000  Uiso   1.00
C193   C     0.62772   0.44341   0.24250   0.00000  Uiso   1.00
C194   C     0.86853   0.44024   0.24533   0.00000  Uiso   1.00
C195   C     0.63149   0.05978   0.08799   0.00000  Uiso   1.00
C196   C     0.65612   0.10458   0.25689   0.00000  Uiso   1.00
C197   C     0.84384   0.39539   0.07645   0.00000  Uiso   1.00
C198   C     0.68886   0.44250   0.16579   0.00000  Uiso   1.00
C199   C     0.81114   0.05750   0.16755   0.00000  Uiso   1.00
C200   C     0.50005   0.20987   0.02221   0.00000  Uiso   1.00
Cu201  Cu    0.50000   0.25000   0.21355   0.00000  Uiso   1.00
Cu202  Cu    0.50000   0.25000   0.11978   0.00000  Uiso   1.00
Cu203  Cu    0.75000   0.00000   0.21355   0.00000  Uiso   1.00
Cu204  Cu    0.75000   0.00000   0.11978   0.00000  Uiso   1.00
H205   H     0.99946   0.16377   0.08140   0.00000  Uiso   1.00
H206   H     0.57051   0.38503   0.27579   0.00000  Uiso   1.00
H207   H     0.62226   0.31431   0.05452   0.00000  Uiso   1.00
H208   H     0.87768   0.18573   0.27879   0.00000  Uiso   1.00
H209   H     0.61488   0.18073   0.28091   0.00000  Uiso   1.00
H210   H     0.88506   0.31923   0.05243   0.00000  Uiso   1.00
H211   H     0.91960   0.38025   0.28055   0.00000  Uiso   1.00
H212   H     0.58048   0.11979   0.05275   0.00000  Uiso   1.00
H213   H     0.67948   0.36498   0.05753   0.00000  Uiso   1.00
H214   H     0.82046   0.13507   0.27576   0.00000  Uiso   1.00
H215   H     0.87231   0.06427   0.05454   0.00000  Uiso   1.00
H216   H     0.50053   0.33623   0.25193   0.00000  Uiso   1.00
H217   H     0.62774   0.43568   0.27881   0.00000  Uiso   1.00
H218   H     0.86494   0.43077   0.28090   0.00000  Uiso   1.00
H219   H     0.63512   0.06926   0.05242   0.00000  Uiso   1.00
H220   H     0.66955   0.13023   0.28057   0.00000  Uiso   1.00
H221   H     0.83038   0.36974   0.05279   0.00000  Uiso   1.00
H222   H     0.97716   0.34756   0.07331   0.00000  Uiso   1.00
H223   H     0.52274   0.15244   0.25996   0.00000  Uiso   1.00
H224   H     0.74947   0.41377   0.08141   0.00000  Uiso   1.00
H225   H     0.75053   0.08623   0.25193   0.00000  Uiso   1.00
H226   H     0.72717   0.09756   0.07331   0.00000  Uiso   1.00
H227   H     0.77293   0.40243   0.26009   0.00000  Uiso   1.00
H228   H     0.92956   0.11493   0.05758   0.00000  Uiso   1.00
N229   N     0.50000   0.25000   0.28402   0.00000  Uiso   1.00
N230   N     0.50000   0.25000   0.04931   0.00000  Uiso   1.00
N231   N     0.75000   0.00000   0.28402   0.00000  Uiso   1.00
N232   N     0.75000   0.00000   0.04931   0.00000  Uiso   1.00
O233   O     0.54508   0.20491   0.20625   0.00000  Uiso   1.00
O234   O     0.70491   0.04509   0.12709   0.00000  Uiso   1.00
O235   O     0.70491   0.04509   0.20625   0.00000  Uiso   1.00
O236   O     0.79508   0.45491   0.12709   0.00000  Uiso   1.00
O237   O     0.70491   0.45491   0.12709   0.00000  Uiso   1.00
O238   O     0.79508   0.04509   0.20625   0.00000  Uiso   1.00
O239   O     0.79508   0.04509   0.12709   0.00000  Uiso   1.00
O240   O     0.70491   0.45491   0.20625   0.00000  Uiso   1.00
O241   O     0.50805   0.12995   0.02278   0.00000  Uiso   1.00
O242   O     0.99204   0.37006   0.31055   0.00000  Uiso   1.00
O243   O     0.53729   0.35326   0.05735   0.00000  Uiso   1.00
O244   O     0.95491   0.29509   0.12709   0.00000  Uiso   1.00
O245   O     0.96264   0.14675   0.27607   0.00000  Uiso   1.00
O246   O     0.75793   0.37993   0.02279   0.00000  Uiso   1.00
O247   O     0.74199   0.12006   0.31055   0.00000  Uiso   1.00
O248   O     0.78730   0.10326   0.05734   0.00000  Uiso   1.00
O249   O     0.71276   0.39674   0.27591   0.00000  Uiso   1.00
O250   O     0.90360   0.17592   0.05986   0.00000  Uiso   1.00
O251   O     0.59643   0.32402   0.27345   0.00000  Uiso   1.00
O252   O     0.62474   0.26722   0.10047   0.00000  Uiso   1.00
O253   O     0.87526   0.23281   0.23282   0.00000  Uiso   1.00
O254   O     0.62273   0.23008   0.23819   0.00000  Uiso   1.00
O255   O     0.95491   0.29509   0.20625   0.00000  Uiso   1.00
O256   O     0.87727   0.26989   0.09518   0.00000  Uiso   1.00
O257   O     0.89907   0.31739   0.27091   0.00000  Uiso   1.00
O258   O     0.60095   0.18266   0.06245   0.00000  Uiso   1.00
O259   O     0.65356   0.42599   0.05989   0.00000  Uiso   1.00
O260   O     0.84640   0.07407   0.27347   0.00000  Uiso   1.00
O261   O     0.87473   0.01720   0.10050   0.00000  Uiso   1.00
O262   O     0.62527   0.48278   0.23287   0.00000  Uiso   1.00
O263   O     0.87273   0.48011   0.23814   0.00000  Uiso   1.00
O264   O     0.62726   0.01992   0.09515   0.00000  Uiso   1.00
O265   O     0.64905   0.06736   0.27090   0.00000  Uiso   1.00
O266   O     0.54508   0.20491   0.12709   0.00000  Uiso   1.00
O267   O     0.85092   0.43259   0.06242   0.00000  Uiso   1.00
O268   O     0.95491   0.20491   0.12709   0.00000  Uiso   1.00
O269   O     0.54508   0.29509   0.20625   0.00000  Uiso   1.00
O270   O     0.54508   0.29509   0.12709   0.00000  Uiso   1.00
O271   O     0.95491   0.20491   0.20625   0.00000  Uiso   1.00
O272   O     0.79508   0.45491   0.20625   0.00000  Uiso   1.00
C273   C     0.06144   0.69283   0.16571   0.00000  Uiso   1.00
C274   C     0.49996   0.79013   0.31112   0.00000  Uiso   1.00
C275   C     0.00083   0.78977   0.02753   0.00000  Uiso   1.00
C276   C     0.49916   0.71023   0.30581   0.00000  Uiso   1.00
C277   C     0.25005   0.95987   0.02221   0.00000  Uiso   1.00
C278   C     0.24995   0.54013   0.31112   0.00000  Uiso   1.00
C279   C     0.25083   0.53977   0.02753   0.00000  Uiso   1.00
C280   C     0.24918   0.96023   0.30581   0.00000  Uiso   1.00
C281   C     0.39565   0.63176   0.12429   0.00000  Uiso   1.00
C282   C     0.10437   0.86822   0.20905   0.00000  Uiso   1.00
C283   C     0.12103   0.84323   0.12850   0.00000  Uiso   1.00
C284   C     0.43857   0.80717   0.16762   0.00000  Uiso   1.00
C285   C     0.37896   0.65679   0.20482   0.00000  Uiso   1.00
C286   C     0.11930   0.65530   0.20586   0.00000  Uiso   1.00
C287   C     0.38069   0.84469   0.12748   0.00000  Uiso   1.00
C288   C     0.39305   0.86605   0.20974   0.00000  Uiso   1.00
C289   C     0.10697   0.63397   0.12359   0.00000  Uiso   1.00
C290   C     0.14563   0.88178   0.12428   0.00000  Uiso   1.00
C291   C     0.35435   0.61824   0.20904   0.00000  Uiso   1.00
C292   C     0.37104   0.59321   0.12851   0.00000  Uiso   1.00
C293   C     0.12897   0.90678   0.20483   0.00000  Uiso   1.00
C294   C     0.36931   0.90531   0.20585   0.00000  Uiso   1.00
C295   C     0.43886   0.69250   0.16579   0.00000  Uiso   1.00
C296   C     0.13070   0.59470   0.12748   0.00000  Uiso   1.00
C297   C     0.14304   0.61603   0.20975   0.00000  Uiso   1.00
C298   C     0.35695   0.88395   0.12359   0.00000  Uiso   1.00
C299   C     0.09731   0.83853   0.16941   0.00000  Uiso   1.00
C300   C     0.40270   0.66146   0.16392   0.00000  Uiso   1.00
C301   C     0.40211   0.83797   0.16932   0.00000  Uiso   1.00
C302   C     0.09789   0.66203   0.16402   0.00000  Uiso   1.00
C303   C     0.34730   0.58853   0.16941   0.00000  Uiso   1.00
C304   C     0.15269   0.91147   0.16392   0.00000  Uiso   1.00
C305   C     0.15211   0.58797   0.16932   0.00000  Uiso   1.00
C306   C     0.06114   0.80750   0.16755   0.00000  Uiso   1.00
C307   C     0.34789   0.91202   0.16401   0.00000  Uiso   1.00
C308   C     0.00229   0.66585   0.04478   0.00000  Uiso   1.00
C309   C     0.49774   0.83415   0.28855   0.00000  Uiso   1.00
C310   C     0.00431   0.83261   0.05596   0.00000  Uiso   1.00
C311   C     0.49563   0.66739   0.27738   0.00000  Uiso   1.00
C312   C     0.25225   0.91585   0.04479   0.00000  Uiso   1.00
C313   C     0.24772   0.58415   0.28855   0.00000  Uiso   1.00
C314   C     0.25431   0.58261   0.05596   0.00000  Uiso   1.00
C315   C     0.24575   0.91739   0.27737   0.00000  Uiso   1.00
C316   C     0.41204   0.64073   0.07756   0.00000  Uiso   1.00
C317   C     0.31143   0.94283   0.16571   0.00000  Uiso   1.00
C318   C     0.08800   0.85922   0.25578   0.00000  Uiso   1.00
C319   C     0.12228   0.80659   0.09084   0.00000  Uiso   1.00
C320   C     0.37769   0.69345   0.24247   0.00000  Uiso   1.00
C321   C     0.11850   0.69022   0.24535   0.00000  Uiso   1.00
C322   C     0.38147   0.80976   0.08800   0.00000  Uiso   1.00
C323   C     0.40615   0.85460   0.25688   0.00000  Uiso   1.00
C324   C     0.09389   0.64544   0.07644   0.00000  Uiso   1.00
C325   C     0.16199   0.89078   0.07755   0.00000  Uiso   1.00
C326   C     0.33797   0.60926   0.25577   0.00000  Uiso   1.00
C327   C     0.37230   0.55656   0.09086   0.00000  Uiso   1.00
C328   C     0.18856   0.55717   0.16762   0.00000  Uiso   1.00
C329   C     0.12772   0.94341   0.24250   0.00000  Uiso   1.00
C330   C     0.36853   0.94024   0.24533   0.00000  Uiso   1.00
C331   C     0.13149   0.55978   0.08799   0.00000  Uiso   1.00
C332   C     0.15612   0.60458   0.25689   0.00000  Uiso   1.00
C333   C     0.34384   0.89539   0.07645   0.00000  Uiso   1.00
C334   C     0.18886   0.94250   0.16579   0.00000  Uiso   1.00
C335   C     0.31114   0.55750   0.16755   0.00000  Uiso   1.00
C336   C     0.00005   0.70987   0.02221   0.00000  Uiso   1.00
Cu337  Cu   -0.00000   0.75000   0.21355   0.00000  Uiso   1.00
Cu338  Cu    0.00000   0.75000   0.11978   0.00000  Uiso   1.00
Cu339  Cu    0.25000   0.50000   0.21355   0.00000  Uiso   1.00
Cu340  Cu    0.25000   0.50000   0.11978   0.00000  Uiso   1.00
H341   H     0.49946   0.66377   0.08140   0.00000  Uiso   1.00
H342   H     0.07051   0.88503   0.27579   0.00000  Uiso   1.00
H343   H     0.12226   0.81431   0.05452   0.00000  Uiso   1.00
H344   H     0.37768   0.68573   0.27879   0.00000  Uiso   1.00
H345   H     0.11488   0.68073   0.28091   0.00000  Uiso   1.00
H346   H     0.38506   0.81923   0.05243   0.00000  Uiso   1.00
H347   H     0.41960   0.88025   0.28055   0.00000  Uiso   1.00
H348   H     0.08048   0.61979   0.05275   0.00000  Uiso   1.00
H349   H     0.17948   0.86498   0.05753   0.00000  Uiso   1.00
H350   H     0.32046   0.63507   0.27576   0.00000  Uiso   1.00
H351   H     0.37231   0.56427   0.05454   0.00000  Uiso   1.00
H352   H     0.00053   0.83623   0.25193   0.00000  Uiso   1.00
H353   H     0.12774   0.93568   0.27881   0.00000  Uiso   1.00
H354   H     0.36494   0.93077   0.28090   0.00000  Uiso   1.00
H355   H     0.13512   0.56926   0.05242   0.00000  Uiso   1.00
H356   H     0.16955   0.63023   0.28057   0.00000  Uiso   1.00
H357   H     0.33038   0.86974   0.05279   0.00000  Uiso   1.00
H358   H     0.47716   0.84756   0.07331   0.00000  Uiso   1.00
H359   H     0.02274   0.65244   0.25996   0.00000  Uiso   1.00
H360   H     0.24947   0.91377   0.08141   0.00000  Uiso   1.00
H361   H     0.25053   0.58623   0.25193   0.00000  Uiso   1.00
H362   H     0.22717   0.59756   0.07331   0.00000  Uiso   1.00
H363   H     0.27293   0.90243   0.26009   0.00000  Uiso   1.00
H364   H     0.42956   0.61493   0.05758   0.00000  Uiso   1.00
N365   N    -0.00000   0.75000   0.28402   0.00000  Uiso   1.00
N366   N     0.00000   0.75000   0.04931   0.00000  Uiso   1.00
N367   N     0.25000   0.50000   0.28402   0.00000  Uiso   1.00
N368   N     0.25000   0.50000   0.04931   0.00000  Uiso   1.00
O369   O     0.04508   0.70491   0.20625   0.00000  Uiso   1.00
O370   O     0.20491   0.54509   0.12709   0.00000  Uiso   1.00
O371   O     0.20491   0.54509   0.20625   0.00000  Uiso   1.00
O372   O     0.29508   0.95491   0.12709   0.00000  Uiso   1.00
O373   O     0.20491   0.95491   0.12709   0.00000  Uiso   1.00
O374   O     0.29508   0.54509   0.20625   0.00000  Uiso   1.00
O375   O     0.29508   0.54509   0.12709   0.00000  Uiso   1.00
O376   O     0.20491   0.95491   0.20625   0.00000  Uiso   1.00
O377   O     0.00805   0.62995   0.02278   0.00000  Uiso   1.00
O378   O     0.49204   0.87006   0.31055   0.00000  Uiso   1.00
O379   O     0.03729   0.85326   0.05735   0.00000  Uiso   1.00
O380   O     0.45491   0.79509   0.12709   0.00000  Uiso   1.00
O381   O     0.46264   0.64675   0.27607   0.00000  Uiso   1.00
O382   O     0.25793   0.87993   0.02279   0.00000  Uiso   1.00
O383   O     0.24199   0.62006   0.31055   0.00000  Uiso   1.00
O384   O     0.28730   0.60326   0.05734   0.00000  Uiso   1.00
O385   O     0.21276   0.89674   0.27591   0.00000  Uiso   1.00
O386   O     0.40360   0.67592   0.05986   0.00000  Uiso   1.00
O387   O     0.09643   0.82402   0.27345   0.00000  Uiso   1.00
O388   O     0.12474   0.76722   0.10047   0.00000  Uiso   1.00
O389   O     0.37526   0.73281   0.23282   0.00000  Uiso   1.00
O390   O     0.12273   0.73008   0.23819   0.00000  Uiso   1.00
O391   O     0.45491   0.79509   0.20625   0.00000  Uiso   1.00
O392   O     0.37727   0.76989   0.09518   0.00000  Uiso   1.00
O393   O     0.39907   0.81739   0.27091   0.00000  Uiso   1.00
O394   O     0.10095   0.68266   0.06245   0.00000  Uiso   1.00
O395   O     0.15356   0.92599   0.05989   0.00000  Uiso   1.00
O396   O     0.34640   0.57407   0.27347   0.00000  Uiso   1.00
O397   O     0.37473   0.51720   0.10050   0.00000  Uiso   1.00
O398   O     0.12527   0.98278   0.23287   0.00000  Uiso   1.00
O399   O     0.37273   0.98011   0.23814   0.00000  Uiso   1.00
O400   O     0.12726   0.51992   0.09515   0.00000  Uiso   1.00
O401   O     0.14905   0.56736   0.27090   0.00000  Uiso   1.00
O402   O     0.04508   0.70491   0.12709   0.00000  Uiso   1.00
O403   O     0.35092   0.93259   0.06242   0.00000  Uiso   1.00
O404   O     0.45491   0.70491   0.12709   0.00000  Uiso   1.00
O405   O     0.04508   0.79509   0.20625   0.00000  Uiso   1.00
O406   O     0.04508   0.79509   0.12709   0.00000  Uiso   1.00
O407   O     0.45491   0.70491   0.20625   0.00000  Uiso   1.00
O408   O     0.29508   0.95491   0.20625   0.00000  Uiso   1.00
C409   C     0.56144   0.69283   0.16571   0.00000  Uiso   1.00
C410   C     0.99996   0.79013   0.31112   0.00000  Uiso   1.00
C411   C     0.50083   0.78977   0.02753   0.00000  Uiso   1.00
C412   C     0.99916   0.71023   0.30581   0.00000  Uiso   1.00
C413   C     0.75005   0.95987   0.02221   0.00000  Uiso   1.00
C414   C     0.74995   0.54013   0.31112   0.00000  Uiso   1.00
C415   C     0.75083   0.53977   0.02753   0.00000  Uiso   1.00
C416   C     0.74918   0.96023   0.30581   0.00000  Uiso   1.00
C417   C     0.89565   0.63176   0.12429   0.00000  Uiso   1.00
C418   C     0.60437   0.86822   0.20905   0.00000  Uiso   1.00
C419   C     0.62103   0.84323   0.12850   0.00000  Uiso   1.00
C420   C     0.93857   0.80717   0.16762   0.00000  Uiso   1.00
C421   C     0.87896   0.65679   0.20482   0.00000  Uiso   1.00
C422   C     0.61930   0.65530   0.20586   0.00000  Uiso   1.00
C423   C     0.88069   0.84469   0.12748   0.00000  Uiso   1.00
C424   C     0.89305   0.86605   0.20974   0.00000  Uiso   1.00
C425   C     0.60697   0.63397   0.12359   0.00000  Uiso   1.00
C426   C     0.64563   0.88178   0.12428   0.00000  Uiso   1.00
C427   C     0.85435   0.61824   0.20904   0.00000  Uiso   1.00
C428   C     0.87104   0.59321   0.12851   0.00000  Uiso   1.00
C429   C     0.62897   0.90678   0.20483   0.00000  Uiso   1.00
C430   C     0.86931   0.90531   0.20585   0.00000  Uiso   1.00
C431   C     0.93886   0.69250   0.16579   0.00000  Uiso   1.00
C432   C     0.63070   0.59470   0.12748   0.00000  Uiso   1.00
C433   C     0.64304   0.61603   0.20975   0.00000  Uiso   1.00
C434   C     0.85695   0.88395   0.12359   0.00000  Uiso   1.00
C435   C     0.59731   0.83853   0.16941   0.00000  Uiso   1.00
C436   C     0.90270   0.66146   0.16392   0.00000  Uiso   1.00
C437   C     0.90211   0.83797   0.16932   0.00000  Uiso   1.00
C438   C     0.59789   0.66203   0.16402   0.00000  Uiso   1.00
C439   C     0.84730   0.58853   0.16941   0.00000  Uiso   1.00
C440   C     0.65269   0.91147   0.16392   0.00000  Uiso   1.00
C441   C     0.65211   0.58797   0.16932   0.00000  Uiso   1.00
C442   C     0.56114   0.80750   0.16755   0.00000  Uiso   1.00
C443   C     0.84789   0.91202   0.16401   0.00000  Uiso   1.00
C444   C     0.50229   0.66585   0.04478   0.00000  Uiso   1.00
C445   C     0.99774   0.83415   0.28855   0.00000  Uiso   1.00
C446   C     0.50431   0.83261   0.05596   0.00000  Uiso   1.00
C447   C     0.99563   0.66739   0.27738   0.00000  Uiso   1.00
C448   C     0.75225   0.91585   0.04479   0.00000  Uiso   1.00
C449   C     0.74772   0.58415   0.28855   0.00000  Uiso   1.00
C450   C     0.75431   0.58261   0.05596   0.00000  Uiso   1.00
C451   C     0.74575   0.91739   0.27737   0.00000  Uiso   1.00
C452   C     0.91204   0.64073   0.07756   0.00000  Uiso   1.00
C453   C     0.81143   0.94283   0.16571   0.00000  Uiso   1.00
C454   C     0.58800   0.85922   0.25578   0.00000  Uiso   1.00
C455   C     0.62228   0.80659   0.09084   0.00000  Uiso   1.00
C456   C     0.87769   0.69345   0.24247   0.00000  Uiso   1.00
C457   C     0.61850   0.69022   0.24535   0.00000  Uiso   1.00
C458   C     0.88147   0.80976   0.08800   0.00000  Uiso   1.00
C459   C     0.90615   0.85460   0.25688   0.00000  Uiso   1.00
C460   C     0.59389   0.64544   0.07644   0.00000  Uiso   1.00
C461   C     0.66199   0.89078   0.07755   0.00000  Uiso   1.00
C462   C     0.83797   0.60926   0.25577   0.00000  Uiso   1.00
C463   C     0.87230   0.55656   0.09086   0.00000  Uiso   1.00
C464   C     0.68856   0.55717   0.16762   0.00000  Uiso   1.00
C465   C     0.62772   0.94341   0.24250   0.00000  Uiso   1.00
C466   C     0.86853   0.94024   0.24533   0.00000  Uiso   1.00
C467   C     0.63149   0.55978   0.08799   0.00000  Uiso   1.00
C468   C     0.65612   0.60458   0.25689   0.00000  Uiso   1.00
C469   C     0.84384   0.89539   0.07645   0.00000  Uiso   1.00
C470   C     0.68886   0.94250   0.16579   0.00000  Uiso   1.00
C471   C     0.81114   0.55750   0.16755   0.00000  Uiso   1.00
C472   C     0.50005   0.70987   0.02221   0.00000  Uiso   1.00
Cu473  Cu    0.50000   0.75000   0.21355   0.00000  Uiso   1.00
Cu474  Cu    0.50000   0.75000   0.11978   0.00000  Uiso   1.00
Cu475  Cu    0.75000   0.50000   0.21355   0.00000  Uiso   1.00
Cu476  Cu    0.75000   0.50000   0.11978   0.00000  Uiso   1.00
H477   H     0.99946   0.66377   0.08140   0.00000  Uiso   1.00
H478   H     0.57051   0.88503   0.27579   0.00000  Uiso   1.00
H479   H     0.62226   0.81431   0.05452   0.00000  Uiso   1.00
H480   H     0.87768   0.68573   0.27879   0.00000  Uiso   1.00
H481   H     0.61488   0.68073   0.28091   0.00000  Uiso   1.00
H482   H     0.88506   0.81923   0.05243   0.00000  Uiso   1.00
H483   H     0.91960   0.88025   0.28055   0.00000  Uiso   1.00
H484   H     0.58048   0.61979   0.05275   0.00000  Uiso   1.00
H485   H     0.67948   0.86498   0.05753   0.00000  Uiso   1.00
H486   H     0.82046   0.63507   0.27576   0.00000  Uiso   1.00
H487   H     0.87231   0.56427   0.05454   0.00000  Uiso   1.00
H488   H     0.50053   0.83623   0.25193   0.00000  Uiso   1.00
H489   H     0.62774   0.93568   0.27881   0.00000  Uiso   1.00
H490   H     0.86494   0.93077   0.28090   0.00000  Uiso   1.00
H491   H     0.63512   0.56926   0.05242   0.00000  Uiso   1.00
H492   H     0.66955   0.63023   0.28057   0.00000  Uiso   1.00
H493   H     0.83038   0.86974   0.05279   0.00000  Uiso   1.00
H494   H     0.97716   0.84756   0.07331   0.00000  Uiso   1.00
H495   H     0.52274   0.65244   0.25996   0.00000  Uiso   1.00
H496   H     0.74947   0.91377   0.08141   0.00000  Uiso   1.00
H497   H     0.75053   0.58623   0.25193   0.00000  Uiso   1.00
H498   H     0.72717   0.59756   0.07331   0.00000  Uiso   1.00
H499   H     0.77293   0.90243   0.26009   0.00000  Uiso   1.00
H500   H     0.92956   0.61493   0.05758   0.00000  Uiso   1.00
N501   N     0.50000   0.75000   0.28402   0.00000  Uiso   1.00
N502   N     0.50000   0.75000   0.04931   0.00000  Uiso   1.00
N503   N     0.75000   0.50000   0.28402   0.00000  Uiso   1.00
N504   N     0.75000   0.50000   0.04931   0.00000  Uiso   1.00
O505   O     0.54508   0.70491   0.20625   0.00000  Uiso   1.00
O506   O     0.70491   0.54509   0.12709   0.00000  Uiso   1.00
O507   O     0.70491   0.54509   0.20625   0.00000  Uiso   1.00
O508   O     0.79508   0.95491   0.12709   0.00000  Uiso   1.00
O509   O     0.70491   0.95491   0.12709   0.00000  Uiso   1.00
O510   O     0.79508   0.54509   0.20625   0.00000  Uiso   1.00
O511   O     0.79508   0.54509   0.12709   0.00000  Uiso   1.00
O512   O     0.70491   0.95491   0.20625   0.00000  Uiso   1.00
O513   O     0.50805   0.62995   0.02278   0.00000  Uiso   1.00
O514   O     0.99204   0.87006   0.31055   0.00000  Uiso   1.00
O515   O     0.53729   0.85326   0.05735   0.00000  Uiso   1.00
O516   O     0.95491   0.79509   0.12709   0.00000  Uiso   1.00
O517   O     0.96264   0.64675   0.27607   0.00000  Uiso   1.00
O518   O     0.75793   0.87993   0.02279   0.00000  Uiso   1.00
O519   O     0.74199   0.62006   0.31055   0.00000  Uiso   1.00
O520   O     0.78730   0.60326   0.05734   0.00000  Uiso   1.00
O521   O     0.71276   0.89674   0.27591   0.00000  Uiso   1.00
O522   O     0.90360   0.67592   0.05986   0.00000  Uiso   1.00
O523   O     0.59643   0.82402   0.27345   0.00000  Uiso   1.00
O524   O     0.62474   0.76722   0.10047   0.00000  Uiso   1.00
O525   O     0.87526   0.73281   0.23282   0.00000  Uiso   1.00
O526   O     0.62273   0.73008   0.23819   0.00000  Uiso   1.00
O527   O     0.95491   0.79509   0.20625   0.00000  Uiso   1.00
O528   O     0.87727   0.76989   0.09518   0.00000  Uiso   1.00
O529   O     0.89907   0.81739   0.27091   0.00000  Uiso   1.00
O530   O     0.60095   0.68266   0.06245   0.00000  Uiso   1.00
O531   O     0.65356   0.92599   0.05989   0.00000  Uiso   1.00
O532   O     0.84640   0.57407   0.27347   0.00000  Uiso   1.00
O533   O     0.87473   0.51720   0.10050   0.00000  Uiso   1.00
O534   O     0.62527   0.98278   0.23287   0.00000  Uiso   1.00
O535   O     0.87273   0.98011   0.23814   0.00000  Uiso   1.00
O536   O     0.62726   0.51992   0.09515   0.00000  Uiso   1.00
O537   O     0.64905   0.56736   0.27090   0.00000  Uiso   1.00
O538   O     0.54508   0.70491   0.12709   0.00000  Uiso   1.00
O539   O     0.85092   0.93259   0.06242   0.00000  Uiso   1.00
O540   O     0.95491   0.70491   0.12709   0.00000  Uiso   1.00
O541   O     0.54508   0.79509   0.20625   0.00000  Uiso   1.00
O542   O     0.54508   0.79509   0.12709   0.00000  Uiso   1.00
O543   O     0.95491   0.70491   0.20625   0.00000  Uiso   1.00
O544   O     0.79508   0.95491   0.20625   0.00000  Uiso   1.00
C545   C     0.06144   0.19283   0.49905   0.00000  Uiso   1.00
C546   C     0.49996   0.29013   0.64446   0.00000  Uiso   1.00
C547   C     0.00083   0.28977   0.36086   0.00000  Uiso   1.00
C548   C     0.49916   0.21023   0.63914   0.00000  Uiso   1.00
C549   C     0.25005   0.45987   0.35554   0.00000  Uiso   1.00
C550   C     0.24995   0.04013   0.64446   0.00000  Uiso   1.00
C551   C     0.25083   0.03977   0.36086   0.00000  Uiso   1.00
C552   C     0.24918   0.46023   0.63914   0.00000  Uiso   1.00
C553   C     0.39565   0.13176   0.45762   0.00000  Uiso   1.00
C554   C     0.10437   0.36822   0.54239   0.00000  Uiso   1.00
C555   C     0.12103   0.34323   0.46184   0.00000  Uiso   1.00
C556   C     0.43857   0.30717   0.50096   0.00000  Uiso   1.00
C557   C     0.37896   0.15679   0.53815   0.00000  Uiso   1.00
C558   C     0.11930   0.15530   0.53919   0.00000  Uiso   1.00
C559   C     0.38069   0.34469   0.46082   0.00000  Uiso   1.00
C560   C     0.39305   0.36605   0.54307   0.00000  Uiso   1.00
C561   C     0.10697   0.13397   0.45692   0.00000  Uiso   1.00
C562   C     0.14563   0.38178   0.45762   0.00000  Uiso   1.00
C563   C     0.35435   0.11824   0.54238   0.00000  Uiso   1.00
C564   C     0.37104   0.09321   0.46185   0.00000  Uiso   1.00
C565   C     0.12897   0.40678   0.53817   0.00000  Uiso   1.00
C566   C     0.36931   0.40531   0.53918   0.00000  Uiso   1.00
C567   C     0.43886   0.19250   0.49912   0.00000  Uiso   1.00
C568   C     0.13070   0.09470   0.46081   0.00000  Uiso   1.00
C569   C     0.14304   0.11603   0.54308   0.00000  Uiso   1.00
C570   C     0.35695   0.38395   0.45693   0.00000  Uiso   1.00
C571   C     0.09731   0.33853   0.50275   0.00000  Uiso   1.00
C572   C     0.40270   0.16146   0.49725   0.00000  Uiso   1.00
C573   C     0.40211   0.33797   0.50265   0.00000  Uiso   1.00
C574   C     0.09789   0.16203   0.49735   0.00000  Uiso   1.00
C575   C     0.34730   0.08853   0.50275   0.00000  Uiso   1.00
C576   C     0.15269   0.41147   0.49725   0.00000  Uiso   1.00
C577   C     0.15211   0.08797   0.50265   0.00000  Uiso   1.00
C578   C     0.06114   0.30750   0.50088   0.00000  Uiso   1.00
C579   C     0.34789   0.41202   0.49735   0.00000  Uiso   1.00
C580   C     0.00229   0.16585   0.37812   0.00000  Uiso   1.00
C581   C     0.49774   0.33415   0.62188   0.00000  Uiso   1.00
C582   C     0.00431   0.33261   0.38929   0.00000  Uiso   1.00
C583   C     0.49563   0.16739   0.61072   0.00000  Uiso   1.00
C584   C     0.25225   0.41585   0.37812   0.00000  Uiso   1.00
C585   C     0.24772   0.08415   0.62188   0.00000  Uiso   1.00
C586   C     0.25431   0.08261   0.38929   0.00000  Uiso   1.00
C587   C     0.24575   0.41739   0.61070   0.00000  Uiso   1.00
C588   C     0.41204   0.14073   0.41090   0.00000  Uiso   1.00
C589   C     0.31143   0.44283   0.49905   0.00000  Uiso   1.00
C590   C     0.08800   0.35922   0.58912   0.00000  Uiso   1.00
C591   C     0.12228   0.30659   0.42417   0.00000  Uiso   1.00
C592   C     0.37769   0.19345   0.57580   0.00000  Uiso   1.00
C593   C     0.11850   0.19022   0.57868   0.00000  Uiso   1.00
C594   C     0.38147   0.30976   0.42134   0.00000  Uiso   1.00
C595   C     0.40615   0.35460   0.59021   0.00000  Uiso   1.00
C596   C     0.09389   0.14544   0.40978   0.00000  Uiso   1.00
C597   C     0.16199   0.39078   0.41088   0.00000  Uiso   1.00
C598   C     0.33797   0.10926   0.58910   0.00000  Uiso   1.00
C599   C     0.37230   0.05656   0.42419   0.00000  Uiso   1.00
C600   C     0.18856   0.05717   0.50095   0.00000  Uiso   1.00
C601   C     0.12772   0.44341   0.57583   0.00000  Uiso   1.00
C602   C     0.36853   0.44024   0.57866   0.00000  Uiso   1.00
C603   C     0.13149   0.05978   0.42132   0.00000  Uiso   1.00
C604   C     0.15612   0.10458   0.59022   0.00000  Uiso   1.00
C605   C     0.34384   0.39539   0.40979   0.00000  Uiso   1.00
C606   C     0.18886   0.44250   0.49912   0.00000  Uiso   1.00
C607   C     0.31114   0.05750   0.50088   0.00000  Uiso   1.00
C608   C     0.00005   0.20987   0.35554   0.00000  Uiso   1.00
Cu609  Cu   -0.00000   0.25000   0.54689   0.00000  Uiso   1.00
Cu610  Cu    0.00000   0.25000   0.45311   0.00000  Uiso   1.00
Cu611  Cu    0.25000   0.00000   0.54689   0.00000  Uiso   1.00
Cu612  Cu    0.25000   0.00000   0.45311   0.00000  Uiso   1.00
H613   H     0.49946   0.16377   0.41473   0.00000  Uiso   1.00
H614   H     0.07051   0.38503   0.60913   0.00000  Uiso   1.00
H615   H     0.12226   0.31431   0.38786   0.00000  Uiso   1.00
H616   H     0.37768   0.18573   0.61212   0.00000  Uiso   1.00
H617   H     0.11488   0.18073   0.61425   0.00000  Uiso   1.00
H618   H     0.38506   0.31923   0.38576   0.00000  Uiso   1.00
H619   H     0.41960   0.38025   0.61388   0.00000  Uiso   1.00
H620   H     0.08048   0.11979   0.38608   0.00000  Uiso   1.00
H621   H     0.17948   0.36498   0.39087   0.00000  Uiso   1.00
H622   H     0.32046   0.13507   0.60909   0.00000  Uiso   1.00
H623   H     0.37231   0.06427   0.38787   0.00000  Uiso   1.00
H624   H     0.00053   0.33623   0.58526   0.00000  Uiso   1.00
H625   H     0.12774   0.43568   0.61215   0.00000  Uiso   1.00
H626   H     0.36494   0.43077   0.61423   0.00000  Uiso   1.00
H627   H     0.13512   0.06926   0.38576   0.00000  Uiso   1.00
H628   H     0.16955   0.13023   0.61391   0.00000  Uiso   1.00
H629   H     0.33038   0.36974   0.38613   0.00000  Uiso   1.00
H630   H     0.47716   0.34756   0.40664   0.00000  Uiso   1.00
H631   H     0.02274   0.15244   0.59329   0.00000  Uiso   1.00
H632   H     0.24947   0.41377   0.41474   0.00000  Uiso   1.00
H633   H     0.25053   0.08623   0.58527   0.00000  Uiso   1.00
H634   H     0.22717   0.09756   0.40664   0.00000  Uiso   1.00
H635   H     0.27293   0.40243   0.59343   0.00000  Uiso   1.00
H636   H     0.42956   0.11493   0.39092   0.00000  Uiso   1.00
N637   N    -0.00000   0.25000   0.61736   0.00000  Uiso   1.00
N638   N     0.00000   0.25000   0.38264   0.00000  Uiso   1.00
N639   N     0.25000   0.00000   0.61736   0.00000  Uiso   1.00
N640   N     0.25000   0.00000   0.38264   0.00000  Uiso   1.00
O641   O     0.04508   0.20491   0.53958   0.00000  Uiso   1.00
O642   O     0.20491   0.04509   0.46042   0.00000  Uiso   1.00
O643   O     0.20491   0.04509   0.53958   0.00000  Uiso   1.00
O644   O     0.29508   0.45491   0.46042   0.00000  Uiso   1.00
O645   O     0.20491   0.45491   0.46042   0.00000  Uiso   1.00
O646   O     0.29508   0.04509   0.53958   0.00000  Uiso   1.00
O647   O     0.29508   0.04509   0.46042   0.00000  Uiso   1.00
O648   O     0.20491   0.45491   0.53958   0.00000  Uiso   1.00
O649   O     0.00805   0.12995   0.35611   0.00000  Uiso   1.00
O650   O     0.49204   0.37006   0.64388   0.00000  Uiso   1.00
O651   O     0.03729   0.35326   0.39068   0.00000  Uiso   1.00
O652   O     0.45491   0.29509   0.46042   0.00000  Uiso   1.00
O653   O     0.46264   0.14675   0.60940   0.00000  Uiso   1.00
O654   O     0.25793   0.37993   0.35612   0.00000  Uiso   1.00
O655   O     0.24199   0.12006   0.64389   0.00000  Uiso   1.00
O656   O     0.28730   0.10326   0.39067   0.00000  Uiso   1.00
O657   O     0.21276   0.39674   0.60924   0.00000  Uiso   1.00
O658   O     0.40360   0.17592   0.39319   0.00000  Uiso   1.00
O659   O     0.09643   0.32402   0.60679   0.00000  Uiso   1.00
O660   O     0.12474   0.26722   0.43381   0.00000  Uiso   1.00
O661   O     0.37526   0.23281   0.56615   0.00000  Uiso   1.00
O662   O     0.12273   0.23008   0.57152   0.00000  Uiso   1.00
O663   O     0.45491   0.29509   0.53958   0.00000  Uiso   1.00
O664   O     0.37727   0.26989   0.42852   0.00000  Uiso   1.00
O665   O     0.39907   0.31739   0.60424   0.00000  Uiso   1.00
O666   O     0.10095   0.18266   0.39578   0.00000  Uiso   1.00
O667   O     0.15356   0.42599   0.39322   0.00000  Uiso   1.00
O668   O     0.34640   0.07407   0.60680   0.00000  Uiso   1.00
O669   O     0.37473   0.01720   0.43383   0.00000  Uiso   1.00
O670   O     0.12527   0.48278   0.56621   0.00000  Uiso   1.00
O671   O     0.37273   0.48011   0.57148   0.00000  Uiso   1.00
O672   O     0.12726   0.01992   0.42849   0.00000  Uiso   1.00
O673   O     0.14905   0.06736   0.60423   0.00000  Uiso   1.00
O674   O     0.04508   0.20491   0.46042   0.00000  Uiso   1.00
O675   O     0.35092   0.43259   0.39575   0.00000  Uiso   1.00
O676   O     0.45491   0.20491   0.46042   0.00000  Uiso   1.00
O677   O     0.04508   0.29509   0.53958   0.00000  Uiso   1.00
O678   O     0.04508   0.29509   0.46042   0.00000  Uiso   1.00
O679   O     0.45491   0.20491   0.53958   0.00000  Uiso   1.00
O680   O     0.29508   0.45491   0.53958   0.00000  Uiso   1.00
C681   C     0.56144   0.19283   0.49905   0.00000  Uiso   1.00
C682   C     0.99996   0.29013   0.64446   0.00000  Uiso   1.00
C683   C     0.50083   0.28977   0.36086   0.00000  Uiso   1.00
C684   C     0.99916   0.21023   0.63914   0.00000  Uiso   1.00
C685   C     0.75005   0.45987   0.35554   0.00000  Uiso   1.00
C686   C     0.74995   0.04013   0.64446   0.00000  Uiso   1.00
C687   C     0.75083   0.03977   0.36086   0.00000  Uiso   1.00
C688   C     0.74918   0.46023   0.63914   0.00000  Uiso   1.00
C689   C     0.89565   0.13176   0.45762   0.00000  Uiso   1.00
C690   C     0.60437   0.36822   0.54239   0.00000  Uiso   1.00
C691   C     0.62103   0.34323   0.46184   0.00000  Uiso   1.00
C692   C     0.93857   0.30717   0.50096   0.00000  Uiso   1.00
C693   C     0.87896   0.15679   0.53815   0.00000  Uiso   1.00
C694   C     0.61930   0.15530   0.53919   0.00000  Uiso   1.00
C695   C     0.88069   0.34469   0.46082   0.00000  Uiso   1.00
C696   C     0.89305   0.36605   0.54307   0.00000  Uiso   1.00
C697   C     0.60697   0.13397   0.45692   0.00000  Uiso   1.00
C698   C     0.64563   0.38178   0.45762   0.00000  Uiso   1.00
C699   C     0.85435   0.11824   0.54238   0.00000  Uiso   1.00
C700   C     0.87104   0.09321   0.46185   0.00000  Uiso   1.00
C701   C     0.62897   0.40678   0.53817   0.00000  Uiso   1.00
C702   C     0.86931   0.40531   0.53918   0.00000  Uiso   1.00
C703   C     0.93886   0.19250   0.49912   0.00000  Uiso   1.00
C704   C     0.63070   0.09470   0.46081   0.00000  Uiso   1.00
C705   C     0.64304   0.11603   0.54308   0.00000  Uiso   1.00
C706   C     0.85695   0.38395   0.45693   0.00000  Uiso   1.00
C707   C     0.59731   0.33853   0.50275   0.00000  Uiso   1.00
C708   C     0.90270   0.16146   0.49725   0.00000  Uiso   1.00
C709   C     0.90211   0.33797   0.50265   0.00000  Uiso   1.00
C710   C     0.59789   0.16203   0.49735   0.00000  Uiso   1.00
C711   C     0.84730   0.08853   0.50275   0.00000  Uiso   1.00
C712   C     0.65269   0.41147   0.49725   0.00000  Uiso   1.00
C713   C     0.65211   0.08797   0.50265   0.00000  Uiso   1.00
C714   C     0.56114   0.30750   0.50088   0.00000  Uiso   1.00
C715   C     0.84789   0.41202   0.49735   0.00000  Uiso   1.00
C716   C     0.50229   0.16585   0.37812   0.00000  Uiso   1.00
C717   C     0.99774   0.33415   0.62188   0.00000  Uiso   1.00
C718   C     0.50431   0.33261   0.38929   0.00000  Uiso   1.00
C719   C     0.99563   0.16739   0.61072   0.00000  Uiso   1.00
C720   C     0.75225   0.41585   0.37812   0.00000  Uiso   1.00
C721   C     0.74772   0.08415   0.62188   0.00000  Uiso   1.00
C722   C     0.75431   0.08261   0.38929   0.00000  Uiso   1.00
C723   C     0.74575   0.41739   0.61070   0.00000  Uiso   1.00
C724   C     0.91204   0.14073   0.41090   0.00000  Uiso   1.00
C725   C     0.81143   0.44283   0.49905   0.00000  Uiso   1.00
C726   C     0.58800   0.35922   0.58912   0.00000  Uiso   1.00
C727   C     0.62228   0.30659   0.42417   0.00000  Uiso   1.00
C728   C     0.87769   0.19345   0.57580   0.00000  Uiso   1.00
C729   C     0.61850   0.19022   0.57868   0.00000  Uiso   1.00
C730   C     0.88147   0.30976   0.42134   0.00000  Uiso   1.00
C731   C     0.90615   0.35460   0.59021   0.00000  Uiso   1.00
C732   C     0.59389   0.14544   0.40978   0.00000  Uiso   1.00
C733   C     0.66199   0.39078   0.41088   0.00000  Uiso   1.00
C734   C     0.83797   0.10926   0.58910   0.00000  Uiso   1.00
C735   C     0.87230   0.05656   0.42419   0.00000  Uiso   1.00
C736   C     0.68856   0.05717   0.50095   0.00000  Uiso   1.00
C737   C     0.62772   0.44341   0.57583   0.00000  Uiso   1.00
C738   C     0.86853   0.44024   0.57866   0.00000  Uiso   1.00
C739   C     0.63149   0.05978   0.42132   0.00000  Uiso   1.00
C740   C     0.65612   0.10458   0.59022   0.00000  Uiso   1.00
C741   C     0.84384   0.39539   0.40979   0.00000  Uiso   1.00
C742   C     0.68886   0.44250   0.49912   0.00000  Uiso   1.00
C743   C     0.81114   0.05750   0.50088   0.00000  Uiso   1.00
C744   C     0.50005   0.20987   0.35554   0.00000  Uiso   1.00
Cu745  Cu    0.50000   0.25000   0.54689   0.00000  Uiso   1.00
Cu746  Cu    0.50000   0.25000   0.45311   0.00000  Uiso   1.00
Cu747  Cu    0.75000   0.00000   0.54689   0.00000  Uiso   1.00
Cu748  Cu    0.75000   0.00000   0.45311   0.00000  Uiso   1.00
H749   H     0.99946   0.16377   0.41473   0.00000  Uiso   1.00
H750   H     0.57051   0.38503   0.60913   0.00000  Uiso   1.00
H751   H     0.62226   0.31431   0.38786   0.00000  Uiso   1.00
H752   H     0.87768   0.18573   0.61212   0.00000  Uiso   1.00
H753   H     0.61488   0.18073   0.61425   0.00000  Uiso   1.00
H754   H     0.88506   0.31923   0.38576   0.00000  Uiso   1.00
H755   H     0.91960   0.38025   0.61388   0.00000  Uiso   1.00
H756   H     0.58048   0.11979   0.38608   0.00000  Uiso   1.00
H757   H     0.67948   0.36498   0.39087   0.00000  Uiso   1.00
H758   H     0.82046   0.13507   0.60909   0.00000  Uiso   1.00
H759   H     0.87231   0.06427   0.38787   0.00000  Uiso   1.00
H760   H     0.50053   0.33623   0.58526   0.00000  Uiso   1.00
H761   H     0.62774   0.43568   0.61215   0.00000  Uiso   1.00
H762   H     0.86494   0.43077   0.61423   0.00000  Uiso   1.00
H763   H     0.63512   0.06926   0.38576   0.00000  Uiso   1.00
H764   H     0.66955   0.13023   0.61391   0.00000  Uiso   1.00
H765   H     0.83038   0.36974   0.38613   0.00000  Uiso   1.00
H766   H     0.97716   0.34756   0.40664   0.00000  Uiso   1.00
H767   H     0.52274   0.15244   0.59329   0.00000  Uiso   1.00
H768   H     0.74947   0.41377   0.41474   0.00000  Uiso   1.00
H769   H     0.75053   0.08623   0.58527   0.00000  Uiso   1.00
H770   H     0.72717   0.09756   0.40664   0.00000  Uiso   1.00
H771   H     0.77293   0.40243   0.59343   0.00000  Uiso   1.00
H772   H     0.92956   0.11493   0.39092   0.00000  Uiso   1.00
N773   N     0.50000   0.25000   0.61736   0.00000  Uiso   1.00
N774   N     0.50000   0.25000   0.38264   0.00000  Uiso   1.00
N775   N     0.75000   0.00000   0.61736   0.00000  Uiso   1.00
N776   N     0.75000   0.00000   0.38264   0.00000  Uiso   1.00
O777   O     0.54508   0.20491   0.53958   0.00000  Uiso   1.00
O778   O     0.70491   0.04509   0.46042   0.00000  Uiso   1.00
O779   O     0.70491   0.04509   0.53958   0.00000  Uiso   1.00
O780   O     0.79508   0.45491   0.46042   0.00000  Uiso   1.00
O781   O     0.70491   0.45491   0.46042   0.00000  Uiso   1.00
O782   O     0.79508   0.04509   0.53958   0.00000  Uiso   1.00
O783   O     0.79508   0.04509   0.46042   0.00000  Uiso   1.00
O784   O     0.70491   0.45491   0.53958   0.00000  Uiso   1.00
O785   O     0.50805   0.12995   0.35611   0.00000  Uiso   1.00
O786   O     0.99204   0.37006   0.64388   0.00000  Uiso   1.00
O787   O     0.53729   0.35326   0.39068   0.00000  Uiso   1.00
O788   O     0.95491   0.29509   0.46042   0.00000  Uiso   1.00
O789   O     0.96264   0.14675   0.60940   0.00000  Uiso   1.00
O790   O     0.75793   0.37993   0.35612   0.00000  Uiso   1.00
O791   O     0.74199   0.12006   0.64389   0.00000  Uiso   1.00
O792   O     0.78730   0.10326   0.39067   0.00000  Uiso   1.00
O793   O     0.71276   0.39674   0.60924   0.00000  Uiso   1.00
O794   O     0.90360   0.17592   0.39319   0.00000  Uiso   1.00
O795   O     0.59643   0.32402   0.60679   0.00000  Uiso   1.00
O796   O     0.62474   0.26722   0.43381   0.00000  Uiso   1.00
O797   O     0.87526   0.23281   0.56615   0.00000  Uiso   1.00
O798   O     0.62273   0.23008   0.57152   0.00000  Uiso   1.00
O799   O     0.95491   0.29509   0.53958   0.00000  Uiso   1.00
O800   O     0.87727   0.26989   0.42852   0.00000  Uiso   1.00
O801   O     0.89907   0.31739   0.60424   0.00000  Uiso   1.00
O802   O     0.60095   0.18266   0.39578   0.00000  Uiso   1.00
O803   O     0.65356   0.42599   0.39322   0.00000  Uiso   1.00
O804   O     0.84640   0.07407   0.60680   0.00000  Uiso   1.00
O805   O     0.87473   0.01720   0.43383   0.00000  Uiso   1.00
O806   O     0.62527   0.48278   0.56621   0.00000  Uiso   1.00
O807   O     0.87273   0.48011   0.57148   0.00000  Uiso   1.00
O808   O     0.62726   0.01992   0.42849   0.00000  Uiso   1.00
O809   O     0.64905   0.06736   0.60423   0.00000  Uiso   1.00
O810   O     0.54508   0.20491   0.46042   0.00000  Uiso   1.00
O811   O     0.85092   0.43259   0.39575   0.00000  Uiso   1.00
O812   O     0.95491   0.20491   0.46042   0.00000  Uiso   1.00
O813   O     0.54508   0.29509   0.53958   0.00000  Uiso   1.00
O814   O     0.54508   0.29509   0.46042   0.00000  Uiso   1.00
O815   O     0.95491   0.20491   0.53958   0.00000  Uiso   1.00
O816   O     0.79508   0.45491   0.53958   0.00000  Uiso   1.00
C817   C     0.06144   0.69283   0.49905   0.00000  Uiso   1.00
C818   C     0.49996   0.79013   0.64446   0.00000  Uiso   1.00
C819   C     0.00083   0.78977   0.36086   0.00000  Uiso   1.00
C820   C     0.49916   0.71023   0.63914   0.00000  Uiso   1.00
C821   C     0.25005   0.95987   0.35554   0.00000  Uiso   1.00
C822   C     0.24995   0.54013   0.64446   0.00000  Uiso   1.00
C823   C     0.25083   0.53977   0.36086   0.00000  Uiso   1.00
C824   C     0.24918   0.96023   0.63914   0.00000  Uiso   1.00
C825   C     0.39565   0.63176   0.45762   0.00000  Uiso   1.00
C826   C     0.10437   0.86822   0.54239   0.00000  Uiso   1.00
C827   C     0.12103   0.84323   0.46184   0.00000  Uiso   1.00
C828   C     0.43857   0.80717   0.50096   0.00000  Uiso   1.00
C829   C     0.37896   0.65679   0.53815   0.00000  Uiso   1.00
C830   C     0.11930   0.65530   0.53919   0.00000  Uiso   1.00
C831   C     0.38069   0.84469   0.46082   0.00000  Uiso   1.00
C832   C     0.39305   0.86605   0.54307   0.00000  Uiso   1.00
C833   C     0.10697   0.63397   0.45692   0.00000  Uiso   1.00
C834   C     0.14563   0.88178   0.45762   0.00000  Uiso   1.00
C835   C     0.35435   0.61824   0.54238   0.00000  Uiso   1.00
C836   C     0.37104   0.59321   0.46185   0.00000  Uiso   1.00
C837   C     0.12897   0.90678   0.53817   0.00000  Uiso   1.00
C838   C     0.36931   0.90531   0.53918   0.00000  Uiso   1.00
C839   C     0.43886   0.69250   0.49912   0.00000  Uiso   1.00
C840   C     0.13070   0.59470   0.46081   0.00000  Uiso   1.00
C841   C     0.14304   0.61603   0.54308   0.00000  Uiso   1.00
C842   C     0.35695   0.88395   0.45693   0.00000  Uiso   1.00
C843   C     0.09731   0.83853   0.50275   0.00000  Uiso   1.00
C844   C     0.40270   0.66146   0.49725   0.00000  Uiso   1.00
C845   C     0.40211   0.83797   0.50265   0.00000  Uiso   1.00
C846   C     0.09789   0.66203   0.49735   0.00000  Uiso   1.00
C847   C     0.34730   0.58853   0.50275   0.00000  Uiso   1.00
C848   C     0.15269   0.91147   0.49725   0.00000  Uiso   1.00
C849   C     0.15211   0.58797   0.50265   0.00000  Uiso   1.00
C850   C     0.06114   0.80750   0.50088   0.00000  Uiso   1.00
C851   C     0.34789   0.91202   0.49735   0.00000  Uiso   1.00
C852   C     0.00229   0.66585   0.37812   0.00000  Uiso   1.00
C853   C     0.49774   0.83415   0.62188   0.00000  Uiso   1.00
C854   C     0.00431   0.83261   0.38929   0.00000  Uiso   1.00
C855   C     0.49563   0.66739   0.61072   0.00000  Uiso   1.00
C856   C     0.25225   0.91585   0.37812   0.00000  Uiso   1.00
C857   C     0.24772   0.58415   0.62188   0.00000  Uiso   1.00
C858   C     0.25431   0.58261   0.38929   0.00000  Uiso   1.00
C859   C     0.24575   0.91739   0.61070   0.00000  Uiso   1.00
C860   C     0.41204   0.64073   0.41090   0.00000  Uiso   1.00
C861   C     0.31143   0.94283   0.49905   0.00000  Uiso   1.00
C862   C     0.08800   0.85922   0.58912   0.00000  Uiso   1.00
C863   C     0.12228   0.80659   0.42417   0.00000  Uiso   1.00
C864   C     0.37769   0.69345   0.57580   0.00000  Uiso   1.00
C865   C     0.11850   0.69022   0.57868   0.00000  Uiso   1.00
C866   C     0.38147   0.80976   0.42134   0.00000  Uiso   1.00
C867   C     0.40615   0.85460   0.59021   0.00000  Uiso   1.00
C868   C     0.09389   0.64544   0.40978   0.00000  Uiso   1.00
C869   C     0.16199   0.89078   0.41088   0.00000  Uiso   1.00
C870   C     0.33797   0.60926   0.58910   0.00000  Uiso   1.00
C871   C     0.37230   0.55656   0.42419   0.00000  Uiso   1.00
C872   C     0.18856   0.55717   0.50095   0.00000  Uiso   1.00
C873   C     0.12772   0.94341   0.57583   0.00000  Uiso   1.00
C874   C     0.36853   0.94024   0.57866   0.00000  Uiso   1.00
C875   C     0.13149   0.55978   0.42132   0.00000  Uiso   1.00
C876   C     0.15612   0.60458   0.59022   0.00000  Uiso   1.00
C877   C     0.34384   0.89539   0.40979   0.00000  Uiso   1.00
C878   C     0.18886   0.94250   0.49912   0.00000  Uiso   1.00
C879   C     0.31114   0.55750   0.50088   0.00000  Uiso   1.00
C880   C     0.00005   0.70987   0.35554   0.00000  Uiso   1.00
Cu881  Cu   -0.00000   0.75000   0.54689   0.00000  Uiso   1.00
Cu882  Cu    0.00000   0.75000   0.45311   0.00000  Uiso   1.00
Cu883  Cu    0.25000   0.50000   0.54689   0.00000  Uiso   1.00
Cu884  Cu    0.25000   0.50000   0.45311   0.00000  Uiso   1.00
H885   H     0.49946   0.66377   0.41473   0.00000  Uiso   1.00
H886   H     0.07051   0.88503   0.60913   0.00000  Uiso   1.00
H887   H     0.12226   0.81431   0.38786   0.00000  Uiso   1.00
H888   H     0.37768   0.68573   0.61212   0.00000  Uiso   1.00
H889   H     0.11488   0.68073   0.61425   0.00000  Uiso   1.00
H890   H     0.38506   0.81923   0.38576   0.00000  Uiso   1.00
H891   H     0.41960   0.88025   0.61388   0.00000  Uiso   1.00
H892   H     0.08048   0.61979   0.38608   0.00000  Uiso   1.00
H893   H     0.17948   0.86498   0.39087   0.00000  Uiso   1.00
H894   H     0.32046   0.63507   0.60909   0.00000  Uiso   1.00
H895   H     0.37231   0.56427   0.38787   0.00000  Uiso   1.00
H896   H     0.00053   0.83623   0.58526   0.00000  Uiso   1.00
H897   H     0.12774   0.93568   0.61215   0.00000  Uiso   1.00
H898   H     0.36494   0.93077   0.61423   0.00000  Uiso   1.00
H899   H     0.13512   0.56926   0.38576   0.00000  Uiso   1.00
H900   H     0.16955   0.63023   0.61391   0.00000  Uiso   1.00
H901   H     0.33038   0.86974   0.38613   0.00000  Uiso   1.00
H902   H     0.47716   0.84756   0.40664   0.00000  Uiso   1.00
H903   H     0.02274   0.65244   0.59329   0.00000  Uiso   1.00
H904   H     0.24947   0.91377   0.41474   0.00000  Uiso   1.00
H905   H     0.25053   0.58623   0.58527   0.00000  Uiso   1.00
H906   H     0.22717   0.59756   0.40664   0.00000  Uiso   1.00
H907   H     0.27293   0.90243   0.59343   0.00000  Uiso   1.00
H908   H     0.42956   0.61493   0.39092   0.00000  Uiso   1.00
N909   N    -0.00000   0.75000   0.61736   0.00000  Uiso   1.00
N910   N     0.00000   0.75000   0.38264   0.00000  Uiso   1.00
N911   N     0.25000   0.50000   0.61736   0.00000  Uiso   1.00
N912   N     0.25000   0.50000   0.38264   0.00000  Uiso   1.00
O913   O     0.04508   0.70491   0.53958   0.00000  Uiso   1.00
O914   O     0.20491   0.54509   0.46042   0.00000  Uiso   1.00
O915   O     0.20491   0.54509   0.53958   0.00000  Uiso   1.00
O916   O     0.29508   0.95491   0.46042   0.00000  Uiso   1.00
O917   O     0.20491   0.95491   0.46042   0.00000  Uiso   1.00
O918   O     0.29508   0.54509   0.53958   0.00000  Uiso   1.00
O919   O     0.29508   0.54509   0.46042   0.00000  Uiso   1.00
O920   O     0.20491   0.95491   0.53958   0.00000  Uiso   1.00
O921   O     0.00805   0.62995   0.35611   0.00000  Uiso   1.00
O922   O     0.49204   0.87006   0.64388   0.00000  Uiso   1.00
O923   O     0.03729   0.85326   0.39068   0.00000  Uiso   1.00
O924   O     0.45491   0.79509   0.46042   0.00000  Uiso   1.00
O925   O     0.46264   0.64675   0.60940   0.00000  Uiso   1.00
O926   O     0.25793   0.87993   0.35612   0.00000  Uiso   1.00
O927   O     0.24199   0.62006   0.64389   0.00000  Uiso   1.00
O928   O     0.28730   0.60326   0.39067   0.00000  Uiso   1.00
O929   O     0.21276   0.89674   0.60924   0.00000  Uiso   1.00
O930   O     0.40360   0.67592   0.39319   0.00000  Uiso   1.00
O931   O     0.09643   0.82402   0.60679   0.00000  Uiso   1.00
O932   O     0.12474   0.76722   0.43381   0.00000  Uiso   1.00
O933   O     0.37526   0.73281   0.56615   0.00000  Uiso   1.00
O934   O     0.12273   0.73008   0.57152   0.00000  Uiso   1.00
O935   O     0.45491   0.79509   0.53958   0.00000  Uiso   1.00
O936   O     0.37727   0.76989   0.42852   0.00000  Uiso   1.00
O937   O     0.39907   0.81739   0.60424   0.00000  Uiso   1.00
O938   O     0.10095   0.68266   0.39578   0.00000  Uiso   1.00
O939   O     0.15356   0.92599   0.39322   0.00000  Uiso   1.00
O940   O     0.34640   0.57407   0.60680   0.00000  Uiso   1.00
O941   O     0.37473   0.51720   0.43383   0.00000  Uiso   1.00
O942   O     0.12527   0.98278   0.56621   0.00000  Uiso   1.00
O943   O     0.37273   0.98011   0.57148   0.00000  Uiso   1.00
O944   O     0.12726   0.51992   0.42849   0.00000  Uiso   1.00
O945   O     0.14905   0.56736   0.60423   0.00000  Uiso   1.00
O946   O     0.04508   0.70491   0.46042   0.00000  Uiso   1.00
O947   O     0.35092   0.93259   0.39575   0.00000  Uiso   1.00
O948   O     0.45491   0.70491   0.46042   0.00000  Uiso   1.00
O949   O     0.04508   0.79509   0.53958   0.00000  Uiso   1.00
O950   O     0.04508   0.79509   0.46042   0.00000  Uiso   1.00
O951   O     0.45491   0.70491   0.53958   0.00000  Uiso   1.00
O952   O     0.29508   0.95491   0.53958   0.00000  Uiso   1.00
C953   C     0.56144   0.69283   0.49905   0.00000  Uiso   1.00
C954   C     0.99996   0.79013   0.64446   0.00000  Uiso   1.00
C955   C     0.50083   0.78977   0.36086   0.00000  Uiso   1.00
C956   C     0.99916   0.71023   0.63914   0.00000  Uiso   1.00
C957   C     0.75005   0.95987   0.35554   0.00000  Uiso   1.00
C958   C     0.74995   0.54013   0.64446   0.00000  Uiso   1.00
C959   C     0.75083   0.53977   0.36086   0.00000  Uiso   1.00
C960   C     0.74918   0.96023   0.63914   0.00000  Uiso   1.00
C961   C     0.89565   0.63176   0.45762   0.00000  Uiso   1.00
C962   C     0.60437   0.86822   0.54239   0.00000  Uiso   1.00
C963   C     0.62103   0.84323   0.46184   0.00000  Uiso   1.00
C964   C     0.93857   0.80717   0.50096   0.00000  Uiso   1.00
C965   C     0.87896   0.65679   0.53815   0.00000  Uiso   1.00
C966   C     0.61930   0.65530   0.53919   0.00000  Uiso   1.00
C967   C     0.88069   0.84469   0.46082   0.00000  Uiso   1.00
C968   C     0.89305   0.86605   0.54307   0.00000  Uiso   1.00
C969   C     0.60697   0.63397   0.45692   0.00000  Uiso   1.00
C970   C     0.64563   0.88178   0.45762   0.00000  Uiso   1.00
C971   C     0.85435   0.61824   0.54238   0.00000  Uiso   1.00
C972   C     0.87104   0.59321   0.46185   0.00000  Uiso   1.00
C973   C     0.62897   0.90678   0.53817   0.00000  Uiso   1.00
C974   C     0.86931   0.90531   0.53918   0.00000  Uiso   1.00
C975   C     0.93886   0.69250   0.49912   0.00000  Uiso   1.00
C976   C     0.63070   0.59470   0.46081   0.00000  Uiso   1.00
C977   C     0.64304   0.61603   0.54308   0.00000  Uiso   1.00
C978   C     0.85695   0.88395   0.45693   0.00000  Uiso   1.00
C979   C     0.59731   0.83853   0.50275   0.00000  Uiso   1.00
C980   C     0.90270   0.66146   0.49725   0.00000  Uiso   1.00
C981   C     0.90211   0.83797   0.50265   0.00000  Uiso   1.00
C982   C     0.59789   0.66203   0.49735   0.00000  Uiso   1.00
C983   C     0.84730   0.58853   0.50275   0.00000  Uiso   1.00
C984   C     0.65269   0.91147   0.49725   0.00000  Uiso   1.00
C985   C     0.65211   0.58797   0.50265   0.00000  Uiso   1.00
C986   C     0.56114   0.80750   0.50088   0.00000  Uiso   1.00
C987   C     0.84789   0.91202   0.49735   0.00000  Uiso   1.00
C988   C     0.50229   0.66585   0.37812   0.00000  Uiso   1.00
C989   C     0.99774   0.83415   0.62188   0.00000  Uiso   1.00
C990   C     0.50431   0.83261   0.38929   0.00000  Uiso   1.00
C991   C     0.99563   0.66739   0.61072   0.00000  Uiso   1.00
C992   C     0.75225   0.91585   0.37812   0.00000  Uiso   1.00
C993   C     0.74772   0.58415   0.62188   0.00000  Uiso   1.00
C994   C     0.75431   0.58261   0.38929   0.00000  Uiso   1.00
C995   C     0.74575   0.91739   0.61070   0.00000  Uiso   1.00
C996   C     0.91204   0.64073   0.41090   0.00000  Uiso   1.00
C997   C     0.81143   0.94283   0.49905   0.00000  Uiso   1.00
C998   C     0.58800   0.85922   0.58912   0.00000  Uiso   1.00
C999   C     0.62228   0.80659   0.42417   0.00000  Uiso   1.00
C1000  C     0.87769   0.69345   0.57580   0.00000  Uiso   1.00
C1001  C     0.61850   0.69022   0.57868   0.00000  Uiso   1.00
C1002  C     0.88147   0.80976   0.42134   0.00000  Uiso   1.00
C1003  C     0.90615   0.85460   0.59021   0.00000  Uiso   1.00
C1004  C     0.59389   0.64544   0.40978   0.00000  Uiso   1.00
C1005  C     0.66199   0.89078   0.41088   0.00000  Uiso   1.00
C1006  C     0.83797   0.60926   0.58910   0.00000  Uiso   1.00
C1007  C     0.87230   0.55656   0.42419   0.00000  Uiso   1.00
C1008  C     0.68856   0.55717   0.50095   0.00000  Uiso   1.00
C1009  C     0.62772   0.94341   0.57583   0.00000  Uiso   1.00
C1010  C     0.86853   0.94024   0.57866   0.00000  Uiso   1.00
C1011  C     0.63149   0.55978   0.42132   0.00000  Uiso   1.00
C1012  C     0.65612   0.60458   0.59022   0.00000  Uiso   1.00
C1013  C     0.84384   0.89539   0.40979   0.00000  Uiso   1.00
C1014  C     0.68886   0.94250   0.49912   0.00000  Uiso   1.00
C1015  C     0.81114   0.55750   0.50088   0.00000  Uiso   1.00
C1016  C     0.50005   0.70987   0.35554   0.00000  Uiso   1.00
Cu1017 Cu    0.50000   0.75000   0.54689   0.00000  Uiso   1.00
Cu1018 Cu    0.50000   0.75000   0.45311   0.00000  Uiso   1.00
Cu1019 Cu    0.75000   0.50000   0.54689   0.00000  Uiso   1.00
Cu1020 Cu    0.75000   0.50000   0.45311   0.00000  Uiso   1.00
H1021  H     0.99946   0.66377   0.41473   0.00000  Uiso   1.00
H1022  H     0.57051   0.88503   0.60913   0.00000  Uiso   1.00
H1023  H     0.62226   0.81431   0.38786   0.00000  Uiso   1.00
H1024  H     0.87768   0.68573   0.61212   0.00000  Uiso   1.00
H1025  H     0.61488   0.68073   0.61425   0.00000  Uiso   1.00
H1026  H     0.88506   0.81923   0.38576   0.00000  Uiso   1.00
H1027  H     0.91960   0.88025   0.61388   0.00000  Uiso   1.00
H1028  H     0.58048   0.61979   0.38608   0.00000  Uiso   1.00
H1029  H     0.67948   0.86498   0.39087   0.00000  Uiso   1.00
H1030  H     0.82046   0.63507   0.60909   0.00000  Uiso   1.00
H1031  H     0.87231   0.56427   0.38787   0.00000  Uiso   1.00
H1032  H     0.50053   0.83623   0.58526   0.00000  Uiso   1.00
H1033  H     0.62774   0.93568   0.61215   0.00000  Uiso   1.00
H1034  H     0.86494   0.93077   0.61423   0.00000  Uiso   1.00
H1035  H     0.63512   0.56926   0.38576   0.00000  Uiso   1.00
H1036  H     0.66955   0.63023   0.61391   0.00000  Uiso   1.00
H1037  H     0.83038   0.86974   0.38613   0.00000  Uiso   1.00
H1038  H     0.97716   0.84756   0.40664   0.00000  Uiso   1.00
H1039  H     0.52274   0.65244   0.59329   0.00000  Uiso   1.00
H1040  H     0.74947   0.91377   0.41474   0.00000  Uiso   1.00
H1041  H     0.75053   0.58623   0.58527   0.00000  Uiso   1.00
H1042  H     0.72717   0.59756   0.40664   0.00000  Uiso   1.00
H1043  H     0.77293   0.90243   0.59343   0.00000  Uiso   1.00
H1044  H     0.92956   0.61493   0.39092   0.00000  Uiso   1.00
N1045  N     0.50000   0.75000   0.61736   0.00000  Uiso   1.00
N1046  N     0.50000   0.75000   0.38264   0.00000  Uiso   1.00
N1047  N     0.75000   0.50000   0.61736   0.00000  Uiso   1.00
N1048  N     0.75000   0.50000   0.38264   0.00000  Uiso   1.00
O1049  O     0.54508   0.70491   0.53958   0.00000  Uiso   1.00
O1050  O     0.70491   0.54509   0.46042   0.00000  Uiso   1.00
O1051  O     0.70491   0.54509   0.53958   0.00000  Uiso   1.00
O1052  O     0.79508   0.95491   0.46042   0.00000  Uiso   1.00
O1053  O     0.70491   0.95491   0.46042   0.00000  Uiso   1.00
O1054  O     0.79508   0.54509   0.53958   0.00000  Uiso   1.00
O1055  O     0.79508   0.54509   0.46042   0.00000  Uiso   1.00
O1056  O     0.70491   0.95491   0.53958   0.00000  Uiso   1.00
O1057  O     0.50805   0.62995   0.35611   0.00000  Uiso   1.00
O1058  O     0.99204   0.87006   0.64388   0.00000  Uiso   1.00
O1059  O     0.53729   0.85326   0.39068   0.00000  Uiso   1.00
O1060  O     0.95491   0.79509   0.46042   0.00000  Uiso   1.00
O1061  O     0.96264   0.64675   0.60940   0.00000  Uiso   1.00
O1062  O     0.75793   0.87993   0.35612   0.00000  Uiso   1.00
O1063  O     0.74199   0.62006   0.64389   0.00000  Uiso   1.00
O1064  O     0.78730   0.60326   0.39067   0.00000  Uiso   1.00
O1065  O     0.71276   0.89674   0.60924   0.00000  Uiso   1.00
O1066  O     0.90360   0.67592   0.39319   0.00000  Uiso   1.00
O1067  O     0.59643   0.82402   0.60679   0.00000  Uiso   1.00
O1068  O     0.62474   0.76722   0.43381   0.00000  Uiso   1.00
O1069  O     0.87526   0.73281   0.56615   0.00000  Uiso   1.00
O1070  O     0.62273   0.73008   0.57152   0.00000  Uiso   1.00
O1071  O     0.95491   0.79509   0.53958   0.00000  Uiso   1.00
O1072  O     0.87727   0.76989   0.42852   0.00000  Uiso   1.00
O1073  O     0.89907   0.81739   0.60424   0.00000  Uiso   1.00
O1074  O     0.60095   0.68266   0.39578   0.00000  Uiso   1.00
O1075  O     0.65356   0.92599   0.39322   0.00000  Uiso   1.00
O1076  O     0.84640   0.57407   0.60680   0.00000  Uiso   1.00
O1077  O     0.87473   0.51720   0.43383   0.00000  Uiso   1.00
O1078  O     0.62527   0.98278   0.56621   0.00000  Uiso   1.00
O1079  O     0.87273   0.98011   0.57148   0.00000  Uiso   1.00
O1080  O     0.62726   0.51992   0.42849   0.00000  Uiso   1.00
O1081  O     0.64905   0.56736   0.60423   0.00000  Uiso   1.00
O1082  O     0.54508   0.70491   0.46042   0.00000  Uiso   1.00
O1083  O     0.85092   0.93259   0.39575   0.00000  Uiso   1.00
O1084  O     0.95491   0.70491   0.46042   0.00000  Uiso   1.00
O1085  O     0.54508   0.79509   0.53958   0.00000  Uiso   1.00
O1086  O     0.54508   0.79509   0.46042   0.00000  Uiso   1.00
O1087  O     0.95491   0.70491   0.53958   0.00000  Uiso   1.00
O1088  O     0.79508   0.95491   0.53958   0.00000  Uiso   1.00
C1089  C     0.06144   0.19283   0.83238   0.00000  Uiso   1.00
C1090  C     0.49996   0.29013   0.97779   0.00000  Uiso   1.00
C1091  C     0.00083   0.28977   0.69419   0.00000  Uiso   1.00
C1092  C     0.49916   0.21023   0.97248   0.00000  Uiso   1.00
C1093  C     0.25005   0.45987   0.68888   0.00000  Uiso   1.00
C1094  C     0.24995   0.04013   0.97779   0.00000  Uiso   1.00
C1095  C     0.25083   0.03977   0.69419   0.00000  Uiso   1.00
C1096  C     0.24918   0.46023   0.97247   0.00000  Uiso   1.00
C1097  C     0.39565   0.13176   0.79095   0.00000  Uiso   1.00
C1098  C     0.10437   0.36822   0.87572   0.00000  Uiso   1.00
C1099  C     0.12103   0.34323   0.79517   0.00000  Uiso   1.00
C1100  C     0.43857   0.30717   0.83429   0.00000  Uiso   1.00
C1101  C     0.37896   0.15679   0.87149   0.00000  Uiso   1.00
C1102  C     0.11930   0.15530   0.87252   0.00000  Uiso   1.00
C1103  C     0.38069   0.34469   0.79415   0.00000  Uiso   1.00
C1104  C     0.39305   0.36605   0.87641   0.00000  Uiso   1.00
C1105  C     0.10697   0.13397   0.79025   0.00000  Uiso   1.00
C1106  C     0.14563   0.38178   0.79095   0.00000  Uiso   1.00
C1107  C     0.35435   0.11824   0.87571   0.00000  Uiso   1.00
C1108  C     0.37104   0.09321   0.79518   0.00000  Uiso   1.00
C1109  C     0.12897   0.40678   0.87150   0.00000  Uiso   1.00
C1110  C     0.36931   0.40531   0.87251   0.00000  Uiso   1.00
C1111  C     0.43886   0.19250   0.83245   0.00000  Uiso   1.00
C1112  C     0.13070   0.09470   0.79415   0.00000  Uiso   1.00
C1113  C     0.14304   0.11603   0.87641   0.00000  Uiso   1.00
C1114  C     0.35695   0.38395   0.79026   0.00000  Uiso   1.00
C1115  C     0.09731   0.33853   0.83608   0.00000  Uiso   1.00
C1116  C     0.40270   0.16146   0.83058   0.00000  Uiso   1.00
C1117  C     0.40211   0.33797   0.83599   0.00000  Uiso   1.00
C1118  C     0.09789   0.16203   0.83068   0.00000  Uiso   1.00
C1119  C     0.34730   0.08853   0.83608   0.00000  Uiso   1.00
C1120  C     0.15269   0.41147   0.83059   0.00000  Uiso   1.00
C1121  C     0.15211   0.08797   0.83598   0.00000  Uiso   1.00
C1122  C     0.06114   0.30750   0.83421   0.00000  Uiso   1.00
C1123  C     0.34789   0.41202   0.83068   0.00000  Uiso   1.00
C1124  C     0.00229   0.16585   0.71145   0.00000  Uiso   1.00
C1125  C     0.49774   0.33415   0.95521   0.00000  Uiso   1.00
C1126  C     0.00431   0.33261   0.72262   0.00000  Uiso   1.00
C1127  C     0.49563   0.16739   0.94405   0.00000  Uiso   1.00
C1128  C     0.25225   0.41585   0.71146   0.00000  Uiso   1.00
C1129  C     0.24772   0.08415   0.95521   0.00000  Uiso   1.00
C1130  C     0.25431   0.08261   0.72262   0.00000  Uiso   1.00
C1131  C     0.24575   0.41739   0.94404   0.00000  Uiso   1.00
C1132  C     0.41204   0.14073   0.74423   0.00000  Uiso   1.00
C1133  C     0.31143   0.44283   0.83238   0.00000  Uiso   1.00
C1134  C     0.08800   0.35922   0.92245   0.00000  Uiso   1.00
C1135  C     0.12228   0.30659   0.75751   0.00000  Uiso   1.00
C1136  C     0.37769   0.19345   0.90914   0.00000  Uiso   1.00
C1137  C     0.11850   0.19022   0.91201   0.00000  Uiso   1.00
C1138  C     0.38147   0.30976   0.75467   0.00000  Uiso   1.00
C1139  C     0.40615   0.35460   0.92355   0.00000  Uiso   1.00
C1140  C     0.09389   0.14544   0.74311   0.00000  Uiso   1.00
C1141  C     0.16199   0.39078   0.74422   0.00000  Uiso   1.00
C1142  C     0.33797   0.10926   0.92244   0.00000  Uiso   1.00
C1143  C     0.37230   0.05656   0.75752   0.00000  Uiso   1.00
C1144  C     0.18856   0.05717   0.83429   0.00000  Uiso   1.00
C1145  C     0.12772   0.44341   0.90917   0.00000  Uiso   1.00
C1146  C     0.36853   0.44024   0.91199   0.00000  Uiso   1.00
C1147  C     0.13149   0.05978   0.75466   0.00000  Uiso   1.00
C1148  C     0.15612   0.10458   0.92355   0.00000  Uiso   1.00
C1149  C     0.34384   0.39539   0.74312   0.00000  Uiso   1.00
C1150  C     0.18886   0.44250   0.83246   0.00000  Uiso   1.00
C1151  C     0.31114   0.05750   0.83421   0.00000  Uiso   1.00
C1152  C     0.00005   0.20987   0.68888   0.00000  Uiso   1.00
Cu1153 Cu   -0.00000   0.25000   0.88022   0.00000  Uiso   1.00
Cu1154 Cu    0.00000   0.25000   0.78645   0.00000  Uiso   1.00
Cu1155 Cu    0.25000   0.00000   0.88022   0.00000  Uiso   1.00
Cu1156 Cu    0.25000   0.00000   0.78645   0.00000  Uiso   1.00
H1157  H     0.49946   0.16377   0.74806   0.00000  Uiso   1.00
H1158  H     0.07051   0.38503   0.94246   0.00000  Uiso   1.00
H1159  H     0.12226   0.31431   0.72119   0.00000  Uiso   1.00
H1160  H     0.37768   0.18573   0.94546   0.00000  Uiso   1.00
H1161  H     0.11488   0.18073   0.94758   0.00000  Uiso   1.00
H1162  H     0.38506   0.31923   0.71910   0.00000  Uiso   1.00
H1163  H     0.41960   0.38025   0.94722   0.00000  Uiso   1.00
H1164  H     0.08048   0.11979   0.71941   0.00000  Uiso   1.00
H1165  H     0.17948   0.36498   0.72420   0.00000  Uiso   1.00
H1166  H     0.32046   0.13507   0.94242   0.00000  Uiso   1.00
H1167  H     0.37231   0.06427   0.72121   0.00000  Uiso   1.00
H1168  H     0.00053   0.33623   0.91860   0.00000  Uiso   1.00
H1169  H     0.12774   0.43568   0.94548   0.00000  Uiso   1.00
H1170  H     0.36494   0.43077   0.94756   0.00000  Uiso   1.00
H1171  H     0.13512   0.06926   0.71909   0.00000  Uiso   1.00
H1172  H     0.16955   0.13023   0.94724   0.00000  Uiso   1.00
H1173  H     0.33038   0.36974   0.71946   0.00000  Uiso   1.00
H1174  H     0.47716   0.34756   0.73997   0.00000  Uiso   1.00
H1175  H     0.02274   0.15244   0.92662   0.00000  Uiso   1.00
H1176  H     0.24947   0.41377   0.74807   0.00000  Uiso   1.00
H1177  H     0.25053   0.08623   0.91860   0.00000  Uiso   1.00
H1178  H     0.22717   0.09756   0.73997   0.00000  Uiso   1.00
H1179  H     0.27293   0.40243   0.92676   0.00000  Uiso   1.00
H1180  H     0.42956   0.11493   0.72425   0.00000  Uiso   1.00
N1181  N    -0.00000   0.25000   0.95069   0.00000  Uiso   1.00
N1182  N     0.00000   0.25000   0.71598   0.00000  Uiso   1.00
N1183  N     0.25000   0.00000   0.95069   0.00000  Uiso   1.00
N1184  N     0.25000   0.00000   0.71598   0.00000  Uiso   1.00
O1185  O     0.04508   0.20491   0.87291   0.00000  Uiso   1.00
O1186  O     0.20491   0.04509   0.79375   0.00000  Uiso   1.00
O1187  O     0.20491   0.04509   0.87291   0.00000  Uiso   1.00
O1188  O     0.29508   0.45491   0.79375   0.00000  Uiso   1.00
O1189  O     0.20491   0.45491   0.79375   0.00000  Uiso   1.00
O1190  O     0.29508   0.04509   0.87291   0.00000  Uiso   1.00
O1191  O     0.29508   0.04509   0.79375   0.00000  Uiso   1.00
O1192  O     0.20491   0.45491   0.87291   0.00000  Uiso   1.00
O1193  O     0.00805   0.12995   0.68944   0.00000  Uiso   1.00
O1194  O     0.49204   0.37006   0.97722   0.00000  Uiso   1.00
O1195  O     0.03729   0.35326   0.72401   0.00000  Uiso   1.00
O1196  O     0.45491   0.29509   0.79375   0.00000  Uiso   1.00
O1197  O     0.46264   0.14675   0.94274   0.00000  Uiso   1.00
O1198  O     0.25793   0.37993   0.68945   0.00000  Uiso   1.00
O1199  O     0.24199   0.12006   0.97722   0.00000  Uiso   1.00
O1200  O     0.28730   0.10326   0.72401   0.00000  Uiso   1.00
O1201  O     0.21276   0.39674   0.94258   0.00000  Uiso   1.00
O1202  O     0.40360   0.17592   0.72653   0.00000  Uiso   1.00
O1203  O     0.09643   0.32402   0.94012   0.00000  Uiso   1.00
O1204  O     0.12474   0.26722   0.76714   0.00000  Uiso   1.00
O1205  O     0.37526   0.23281   0.89949   0.00000  Uiso   1.00
O1206  O     0.12273   0.23008   0.90485   0.00000  Uiso   1.00
O1207  O     0.45491   0.29509   0.87291   0.00000  Uiso   1.00
O1208  O     0.37727   0.26989   0.76185   0.00000  Uiso   1.00
O1209  O     0.39907   0.31739   0.93758   0.00000  Uiso   1.00
O1210  O     0.10095   0.18266   0.72911   0.00000  Uiso   1.00
O1211  O     0.15356   0.42599   0.72655   0.00000  Uiso   1.00
O1212  O     0.34640   0.07407   0.94013   0.00000  Uiso   1.00
O1213  O     0.37473   0.01720   0.76717   0.00000  Uiso   1.00
O1214  O     0.12527   0.48278   0.89954   0.00000  Uiso   1.00
O1215  O     0.37273   0.48011   0.90481   0.00000  Uiso   1.00
O1216  O     0.12726   0.01992   0.76182   0.00000  Uiso   1.00
O1217  O     0.14905   0.06736   0.93756   0.00000  Uiso   1.00
O1218  O     0.04508   0.20491   0.79375   0.00000  Uiso   1.00
O1219  O     0.35092   0.43259   0.72908   0.00000  Uiso   1.00
O1220  O     0.45491   0.20491   0.79375   0.00000  Uiso   1.00
O1221  O     0.04508   0.29509   0.87291   0.00000  Uiso   1.00
O1222  O     0.04508   0.29509   0.79375   0.00000  Uiso   1.00
O1223  O     0.45491   0.20491   0.87291   0.00000  Uiso   1.00
O1224  O     0.29508   0.45491   0.87291   0.00000  Uiso   1.00
C1225  C     0.56144   0.19283   0.83238   0.00000  Uiso   1.00
C1226  C     0.99996   0.29013   0.97779   0.00000  Uiso   1.00
C1227  C     0.50083   0.28977   0.69419   0.00000  Uiso   1.00
C1228  C     0.99916   0.21023   0.97248   0.00000  Uiso   1.00
C1229  C     0.75005   0.45987   0.68888   0.00000  Uiso   1.00
C1230  C     0.74995   0.04013   0.97779   0.00000  Uiso   1.00
C1231  C     0.75083   0.03977   0.69419   0.00000  Uiso   1.00
C1232  C     0.74918   0.46023   0.97247   0.00000  Uiso   1.00
C1233  C     0.89565   0.13176   0.79095   0.00000  Uiso   1.00
C1234  C     0.60437   0.36822   0.87572   0.00000  Uiso   1.00
C1235  C     0.62103   0.34323   0.79517   0.00000  Uiso   1.00
C1236  C     0.93857   0.30717   0.83429   0.00000  Uiso   1.00
C1237  C     0.87896   0.15679   0.87149   0.00000  Uiso   1.00
C1238  C     0.61930   0.15530   0.87252   0.00000  Uiso   1.00
C1239  C     0.88069   0.34469   0.79415   0.00000  Uiso   1.00
C1240  C     0.89305   0.36605   0.87641   0.00000  Uiso   1.00
C1241  C     0.60697   0.13397   0.79025   0.00000  Uiso   1.00
C1242  C     0.64563   0.38178   0.79095   0.00000  Uiso   1.00
C1243  C     0.85435   0.11824   0.87571   0.00000  Uiso   1.00
C1244  C     0.87104   0.09321   0.79518   0.00000  Uiso   1.00
C1245  C     0.62897   0.40678   0.87150   0.00000  Uiso   1.00
C1246  C     0.86931   0.40531   0.87251   0.00000  Uiso   1.00
C1247  C     0.93886   0.19250   0.83245   0.00000  Uiso   1.00
C1248  C     0.63070   0.09470   0.79415   0.00000  Uiso   1.00
C1249  C     0.64304   0.11603   0.87641   0.00000  Uiso   1.00
C1250  C     0.85695   0.38395   0.79026   0.00000  Uiso   1.00
C1251  C     0.59731   0.33853   0.83608   0.00000  Uiso   1.00
C1252  C     0.90270   0.16146   0.83058   0.00000  Uiso   1.00
C1253  C     0.90211   0.33797   0.83599   0.00000  Uiso   1.00
C1254  C     0.59789   0.16203   0.83068   0.00000  Uiso   1.00
C1255  C     0.84730   0.08853   0.83608   0.00000  Uiso   1.00
C1256  C     0.65269   0.41147   0.83059   0.00000  Uiso   1.00
C1257  C     0.65211   0.08797   0.83598   0.00000  Uiso   1.00
C1258  C     0.56114   0.30750   0.83421   0.00000  Uiso   1.00
C1259  C     0.84789   0.41202   0.83068   0.00000  Uiso   1.00
C1260  C     0.50229   0.16585   0.71145   0.00000  Uiso   1.00
C1261  C     0.99774   0.33415   0.95521   0.00000  Uiso   1.00
C1262  C     0.50431   0.33261   0.72262   0.00000  Uiso   1.00
C1263  C     0.99563   0.16739   0.94405   0.00000  Uiso   1.00
C1264  C     0.75225   0.41585   0.71146   0.00000  Uiso   1.00
C1265  C     0.74772   0.08415   0.95521   0.00000  Uiso   1.00
C1266  C     0.75431   0.08261   0.72262   0.00000  Uiso   1.00
C1267  C     0.74575   0.41739   0.94404   0.00000  Uiso   1.00
C1268  C     0.91204   0.14073   0.74423   0.00000  Uiso   1.00
C1269  C     0.81143   0.44283   0.83238   0.00000  Uiso   1.00
C1270  C     0.58800   0.35922   0.92245   0.00000  Uiso   1.00
C1271  C     0.62228   0.30659   0.75751   0.00000  Uiso   1.00
C1272  C     0.87769   0.19345   0.90914   0.00000  Uiso   1.00
C1273  C     0.61850   0.19022   0.91201   0.00000  Uiso   1.00
C1274  C     0.88147   0.30976   0.75467   0.00000  Uiso   1.00
C1275  C     0.90615   0.35460   0.92355   0.00000  Uiso   1.00
C1276  C     0.59389   0.14544   0.74311   0.00000  Uiso   1.00
C1277  C     0.66199   0.39078   0.74422   0.00000  Uiso   1.00
C1278  C     0.83797   0.10926   0.92244   0.00000  Uiso   1.00
C1279  C     0.87230   0.05656   0.75752   0.00000  Uiso   1.00
C1280  C     0.68856   0.05717   0.83429   0.00000  Uiso   1.00
C1281  C     0.62772   0.44341   0.90917   0.00000  Uiso   1.00
C1282  C     0.86853   0.44024   0.91199   0.00000  Uiso   1.00
C1283  C     0.63149   0.05978   0.75466   0.00000  Uiso   1.00
C1284  C     0.65612   0.10458   0.92355   0.00000  Uiso   1.00
C1285  C     0.84384   0.39539   0.74312   0.00000  Uiso   1.00
C1286  C     0.68886   0.44250   0.83246   0.00000  Uiso   1.00
C1287  C     0.81114   0.05750   0.83421   0.00000  Uiso   1.00
C1288  C     0.50005   0.20987   0.68888   0.00000  Uiso   1.00
Cu1289 Cu    0.50000   0.25000   0.88022   0.00000  Uiso   1.00
Cu1290 Cu    0.50000   0.25000   0.78645   0.00000  Uiso   1.00
Cu1291 Cu    0.75000   0.00000   0.88022   0.00000  Uiso   1.00
Cu1292 Cu    0.75000   0.00000   0.78645   0.00000  Uiso   1.00
H1293  H     0.99946   0.16377   0.74806   0.00000  Uiso   1.00
H1294  H     0.57051   0.38503   0.94246   0.00000  Uiso   1.00
H1295  H     0.62226   0.31431   0.72119   0.00000  Uiso   1.00
H1296  H     0.87768   0.18573   0.94546   0.00000  Uiso   1.00
H1297  H     0.61488   0.18073   0.94758   0.00000  Uiso   1.00
H1298  H     0.88506   0.31923   0.71910   0.00000  Uiso   1.00
H1299  H     0.91960   0.38025   0.94722   0.00000  Uiso   1.00
H1300  H     0.58048   0.11979   0.71941   0.00000  Uiso   1.00
H1301  H     0.67948   0.36498   0.72420   0.00000  Uiso   1.00
H1302  H     0.82046   0.13507   0.94242   0.00000  Uiso   1.00
H1303  H     0.87231   0.06427   0.72121   0.00000  Uiso   1.00
H1304  H     0.50053   0.33623   0.91860   0.00000  Uiso   1.00
H1305  H     0.62774   0.43568   0.94548   0.00000  Uiso   1.00
H1306  H     0.86494   0.43077   0.94756   0.00000  Uiso   1.00
H1307  H     0.63512   0.06926   0.71909   0.00000  Uiso   1.00
H1308  H     0.66955   0.13023   0.94724   0.00000  Uiso   1.00
H1309  H     0.83038   0.36974   0.71946   0.00000  Uiso   1.00
H1310  H     0.97716   0.34756   0.73997   0.00000  Uiso   1.00
H1311  H     0.52274   0.15244   0.92662   0.00000  Uiso   1.00
H1312  H     0.74947   0.41377   0.74807   0.00000  Uiso   1.00
H1313  H     0.75053   0.08623   0.91860   0.00000  Uiso   1.00
H1314  H     0.72717   0.09756   0.73997   0.00000  Uiso   1.00
H1315  H     0.77293   0.40243   0.92676   0.00000  Uiso   1.00
H1316  H     0.92956   0.11493   0.72425   0.00000  Uiso   1.00
N1317  N     0.50000   0.25000   0.95069   0.00000  Uiso   1.00
N1318  N     0.50000   0.25000   0.71598   0.00000  Uiso   1.00
N1319  N     0.75000   0.00000   0.95069   0.00000  Uiso   1.00
N1320  N     0.75000   0.00000   0.71598   0.00000  Uiso   1.00
O1321  O     0.54508   0.20491   0.87291   0.00000  Uiso   1.00
O1322  O     0.70491   0.04509   0.79375   0.00000  Uiso   1.00
O1323  O     0.70491   0.04509   0.87291   0.00000  Uiso   1.00
O1324  O     0.79508   0.45491   0.79375   0.00000  Uiso   1.00
O1325  O     0.70491   0.45491   0.79375   0.00000  Uiso   1.00
O1326  O     0.79508   0.04509   0.87291   0.00000  Uiso   1.00
O1327  O     0.79508   0.04509   0.79375   0.00000  Uiso   1.00
O1328  O     0.70491   0.45491   0.87291   0.00000  Uiso   1.00
O1329  O     0.50805   0.12995   0.68944   0.00000  Uiso   1.00
O1330  O     0.99204   0.37006   0.97722   0.00000  Uiso   1.00
O1331  O     0.53729   0.35326   0.72401   0.00000  Uiso   1.00
O1332  O     0.95491   0.29509   0.79375   0.00000  Uiso   1.00
O1333  O     0.96264   0.14675   0.94274   0.00000  Uiso   1.00
O1334  O     0.75793   0.37993   0.68945   0.00000  Uiso   1.00
O1335  O     0.74199   0.12006   0.97722   0.00000  Uiso   1.00
O1336  O     0.78730   0.10326   0.72401   0.00000  Uiso   1.00
O1337  O     0.71276   0.39674   0.94258   0.00000  Uiso   1.00
O1338  O     0.90360   0.17592   0.72653   0.00000  Uiso   1.00
O1339  O     0.59643   0.32402   0.94012   0.00000  Uiso   1.00
O1340  O     0.62474   0.26722   0.76714   0.00000  Uiso   1.00
O1341  O     0.87526   0.23281   0.89949   0.00000  Uiso   1.00
O1342  O     0.62273   0.23008   0.90485   0.00000  Uiso   1.00
O1343  O     0.95491   0.29509   0.87291   0.00000  Uiso   1.00
O1344  O     0.87727   0.26989   0.76185   0.00000  Uiso   1.00
O1345  O     0.89907   0.31739   0.93758   0.00000  Uiso   1.00
O1346  O     0.60095   0.18266   0.72911   0.00000  Uiso   1.00
O1347  O     0.65356   0.42599   0.72655   0.00000  Uiso   1.00
O1348  O     0.84640   0.07407   0.94013   0.00000  Uiso   1.00
O1349  O     0.87473   0.01720   0.76717   0.00000  Uiso   1.00
O1350  O     0.62527   0.48278   0.89954   0.00000  Uiso   1.00
O1351  O     0.87273   0.48011   0.90481   0.00000  Uiso   1.00
O1352  O     0.62726   0.01992   0.76182   0.00000  Uiso   1.00
O1353  O     0.64905   0.06736   0.93756   0.00000  Uiso   1.00
O1354  O     0.54508   0.20491   0.79375   0.00000  Uiso   1.00
O1355  O     0.85092   0.43259   0.72908   0.00000  Uiso   1.00
O1356  O     0.95491   0.20491   0.79375   0.00000  Uiso   1.00
O1357  O     0.54508   0.29509   0.87291   0.00000  Uiso   1.00
O1358  O     0.54508   0.29509   0.79375   0.00000  Uiso   1.00
O1359  O     0.95491   0.20491   0.87291   0.00000  Uiso   1.00
O1360  O     0.79508   0.45491   0.87291   0.00000  Uiso   1.00
C1361  C     0.06144   0.69283   0.83238   0.00000  Uiso   1.00
C1362  C     0.49996   0.79013   0.97779   0.00000  Uiso   1.00
C1363  C     0.00083   0.78977   0.69419   0.00000  Uiso   1.00
C1364  C     0.49916   0.71023   0.97248   0.00000  Uiso   1.00
C1365  C     0.25005   0.95987   0.68888   0.00000  Uiso   1.00
C1366  C     0.24995   0.54013   0.97779   0.00000  Uiso   1.00
C1367  C     0.25083   0.53977   0.69419   0.00000  Uiso   1.00
C1368  C     0.24918   0.96023   0.97247   0.00000  Uiso   1.00
C1369  C     0.39565   0.63176   0.79095   0.00000  Uiso   1.00
C1370  C     0.10437   0.86822   0.87572   0.00000  Uiso   1.00
C1371  C     0.12103   0.84323   0.79517   0.00000  Uiso   1.00
C1372  C     0.43857   0.80717   0.83429   0.00000  Uiso   1.00
C1373  C     0.37896   0.65679   0.87149   0.00000  Uiso   1.00
C1374  C     0.11930   0.65530   0.87252   0.00000  Uiso   1.00
C1375  C     0.38069   0.84469   0.79415   0.00000  Uiso   1.00
C1376  C     0.39305   0.86605   0.87641   0.00000  Uiso   1.00
C1377  C     0.10697   0.63397   0.79025   0.00000  Uiso   1.00
C1378  C     0.14563   0.88178   0.79095   0.00000  Uiso   1.00
C1379  C     0.35435   0.61824   0.87571   0.00000  Uiso   1.00
C1380  C     0.37104   0.59321   0.79518   0.00000  Uiso   1.00
C1381  C     0.12897   0.90678   0.87150   0.00000  Uiso   1.00
C1382  C     0.36931   0.90531   0.87251   0.00000  Uiso   1.00
C1383  C     0.43886   0.69250   0.83245   0.00000  Uiso   1.00
C1384  C     0.13070   0.59470   0.79415   0.00000  Uiso   1.00
C1385  C     0.14304   0.61603   0.87641   0.00000  Uiso   1.00
C1386  C     0.35695   0.88395   0.79026   0.00000  Uiso   1.00
C1387  C     0.09731   0.83853   0.83608   0.00000  Uiso   1.00
C1388  C     0.40270   0.66146   0.83058   0.00000  Uiso   1.00
C1389  C     0.40211   0.83797   0.83599   0.00000  Uiso   1.00
C1390  C     0.09789   0.66203   0.83068   0.00000  Uiso   1.00
C1391  C     0.34730   0.58853   0.83608   0.00000  Uiso   1.00
C1392  C     0.15269   0.91147   0.83059   0.00000  Uiso   1.00
C1393  C     0.15211   0.58797   0.83598   0.00000  Uiso   1.00
C1394  C     0.06114   0.80750   0.83421   0.00000  Uiso   1.00
C1395  C     0.34789   0.91202   0.83068   0.00000  Uiso   1.00
C1396  C     0.00229   0.66585   0.71145   0.00000  Uiso   1.00
C1397  C     0.49774   0.83415   0.95521   0.00000  Uiso   1.00
C1398  C     0.00431   0.83261   0.72262   0.00000  Uiso   1.00
C1399  C     0.49563   0.66739   0.94405   0.00000  Uiso   1.00
C1400  C     0.25225   0.91585   0.71146   0.00000  Uiso   1.00
C1401  C     0.24772   0.58415   0.95521   0.00000  Uiso   1.00
C1402  C     0.25431   0.58261   0.72262   0.00000  Uiso   1.00
C1403  C     0.24575   0.91739   0.94404   0.00000  Uiso   1.00
C1404  C     0.41204   0.64073   0.74423   0.00000  Uiso   1.00
C1405  C     0.31143   0.94283   0.83238   0.00000  Uiso   1.00
C1406  C     0.08800   0.85922   0.92245   0.00000  Uiso   1.00
C1407  C     0.12228   0.80659   0.75751   0.00000  Uiso   1.00
C1408  C     0.37769   0.69345   0.90914   0.00000  Uiso   1.00
C1409  C     0.11850   0.69022   0.91201   0.00000  Uiso   1.00
C1410  C     0.38147   0.80976   0.75467   0.00000  Uiso   1.00
C1411  C     0.40615   0.85460   0.92355   0.00000  Uiso   1.00
C1412  C     0.09389   0.64544   0.74311   0.00000  Uiso   1.00
C1413  C     0.16199   0.89078   0.74422   0.00000  Uiso   1.00
C1414  C     0.33797   0.60926   0.92244   0.00000  Uiso   1.00
C1415  C     0.37230   0.55656   0.75752   0.00000  Uiso   1.00
C1416  C     0.18856   0.55717   0.83429   0.00000  Uiso   1.00
C1417  C     0.12772   0.94341   0.90917   0.00000  Uiso   1.00
C1418  C     0.36853   0.94024   0.91199   0.00000  Uiso   1.00
C1419  C     0.13149   0.55978   0.75466   0.00000  Uiso   1.00
C1420  C     0.15612   0.60458   0.92355   0.00000  Uiso   1.00
C1421  C     0.34384   0.89539   0.74312   0.00000  Uiso   1.00
C1422  C     0.18886   0.94250   0.83246   0.00000  Uiso   1.00
C1423  C     0.31114   0.55750   0.83421   0.00000  Uiso   1.00
C1424  C     0.00005   0.70987   0.68888   0.00000  Uiso   1.00
Cu1425 Cu   -0.00000   0.75000   0.88022   0.00000  Uiso   1.00
Cu1426 Cu    0.00000   0.75000   0.78645   0.00000  Uiso   1.00
Cu1427 Cu    0.25000   0.50000   0.88022   0.00000  Uiso   1.00
Cu1428 Cu    0.25000   0.50000   0.78645   0.00000  Uiso   1.00
H1429  H     0.49946   0.66377   0.74806   0.00000  Uiso   1.00
H1430  H     0.07051   0.88503   0.94246   0.00000  Uiso   1.00
H1431  H     0.12226   0.81431   0.72119   0.00000  Uiso   1.00
H1432  H     0.37768   0.68573   0.94546   0.00000  Uiso   1.00
H1433  H     0.11488   0.68073   0.94758   0.00000  Uiso   1.00
H1434  H     0.38506   0.81923   0.71910   0.00000  Uiso   1.00
H1435  H     0.41960   0.88025   0.94722   0.00000  Uiso   1.00
H1436  H     0.08048   0.61979   0.71941   0.00000  Uiso   1.00
H1437  H     0.17948   0.86498   0.72420   0.00000  Uiso   1.00
H1438  H     0.32046   0.63507   0.94242   0.00000  Uiso   1.00
H1439  H     0.37231   0.56427   0.72121   0.00000  Uiso   1.00
H1440  H     0.00053   0.83623   0.91860   0.00000  Uiso   1.00
H1441  H     0.12774   0.93568   0.94548   0.00000  Uiso   1.00
H1442  H     0.36494   0.93077   0.94756   0.00000  Uiso   1.00
H1443  H     0.13512   0.56926   0.71909   0.00000  Uiso   1.00
H1444  H     0.16955   0.63023   0.94724   0.00000  Uiso   1.00
H1445  H     0.33038   0.86974   0.71946   0.00000  Uiso   1.00
H1446  H     0.47716   0.84756   0.73997   0.00000  Uiso   1.00
H1447  H     0.02274   0.65244   0.92662   0.00000  Uiso   1.00
H1448  H     0.24947   0.91377   0.74807   0.00000  Uiso   1.00
H1449  H     0.25053   0.58623   0.91860   0.00000  Uiso   1.00
H1450  H     0.22717   0.59756   0.73997   0.00000  Uiso   1.00
H1451  H     0.27293   0.90243   0.92676   0.00000  Uiso   1.00
H1452  H     0.42956   0.61493   0.72425   0.00000  Uiso   1.00
N1453  N    -0.00000   0.75000   0.95069   0.00000  Uiso   1.00
N1454  N     0.00000   0.75000   0.71598   0.00000  Uiso   1.00
N1455  N     0.25000   0.50000   0.95069   0.00000  Uiso   1.00
N1456  N     0.25000   0.50000   0.71598   0.00000  Uiso   1.00
O1457  O     0.04508   0.70491   0.87291   0.00000  Uiso   1.00
O1458  O     0.20491   0.54509   0.79375   0.00000  Uiso   1.00
O1459  O     0.20491   0.54509   0.87291   0.00000  Uiso   1.00
O1460  O     0.29508   0.95491   0.79375   0.00000  Uiso   1.00
O1461  O     0.20491   0.95491   0.79375   0.00000  Uiso   1.00
O1462  O     0.29508   0.54509   0.87291   0.00000  Uiso   1.00
O1463  O     0.29508   0.54509   0.79375   0.00000  Uiso   1.00
O1464  O     0.20491   0.95491   0.87291   0.00000  Uiso   1.00
O1465  O     0.00805   0.62995   0.68944   0.00000  Uiso   1.00
O1466  O     0.49204   0.87006   0.97722   0.00000  Uiso   1.00
O1467  O     0.03729   0.85326   0.72401   0.00000  Uiso   1.00
O1468  O     0.45491   0.79509   0.79375   0.00000  Uiso   1.00
O1469  O     0.46264   0.64675   0.94274   0.00000  Uiso   1.00
O1470  O     0.25793   0.87993   0.68945   0.00000  Uiso   1.00
O1471  O     0.24199   0.62006   0.97722   0.00000  Uiso   1.00
O1472  O     0.28730   0.60326   0.72401   0.00000  Uiso   1.00
O1473  O     0.21276   0.89674   0.94258   0.00000  Uiso   1.00
O1474  O     0.40360   0.67592   0.72653   0.00000  Uiso   1.00
O1475  O     0.09643   0.82402   0.94012   0.00000  Uiso   1.00
O1476  O     0.12474   0.76722   0.76714   0.00000  Uiso   1.00
O1477  O     0.37526   0.73281   0.89949   0.00000  Uiso   1.00
O1478  O     0.12273   0.73008   0.90485   0.00000  Uiso   1.00
O1479  O     0.45491   0.79509   0.87291   0.00000  Uiso   1.00
O1480  O     0.37727   0.76989   0.76185   0.00000  Uiso   1.00
O1481  O     0.39907   0.81739   0.93758   0.00000  Uiso   1.00
O1482  O     0.10095   0.68266   0.72911   0.00000  Uiso   1.00
O1483  O     0.15356   0.92599   0.72655   0.00000  Uiso   1.00
O1484  O     0.34640   0.57407   0.94013   0.00000  Uiso   1.00
O1485  O     0.37473   0.51720   0.76717   0.00000  Uiso   1.00
O1486  O     0.12527   0.98278   0.89954   0.00000  Uiso   1.00
O1487  O     0.37273   0.98011   0.90481   0.00000  Uiso   1.00
O1488  O     0.12726   0.51992   0.76182   0.00000  Uiso   1.00
O1489  O     0.14905   0.56736   0.93756   0.00000  Uiso   1.00
O1490  O     0.04508   0.70491   0.79375   0.00000  Uiso   1.00
O1491  O     0.35092   0.93259   0.72908   0.00000  Uiso   1.00
O1492  O     0.45491   0.70491   0.79375   0.00000  Uiso   1.00
O1493  O     0.04508   0.79509   0.87291   0.00000  Uiso   1.00
O1494  O     0.04508   0.79509   0.79375   0.00000  Uiso   1.00
O1495  O     0.45491   0.70491   0.87291   0.00000  Uiso   1.00
O1496  O     0.29508   0.95491   0.87291   0.00000  Uiso   1.00
C1497  C     0.56144   0.69283   0.83238   0.00000  Uiso   1.00
C1498  C     0.99996   0.79013   0.97779   0.00000  Uiso   1.00
C1499  C     0.50083   0.78977   0.69419   0.00000  Uiso   1.00
C1500  C     0.99916   0.71023   0.97248   0.00000  Uiso   1.00
C1501  C     0.75005   0.95987   0.68888   0.00000  Uiso   1.00
C1502  C     0.74995   0.54013   0.97779   0.00000  Uiso   1.00
C1503  C     0.75083   0.53977   0.69419   0.00000  Uiso   1.00
C1504  C     0.74918   0.96023   0.97247   0.00000  Uiso   1.00
C1505  C     0.89565   0.63176   0.79095   0.00000  Uiso   1.00
C1506  C     0.60437   0.86822   0.87572   0.00000  Uiso   1.00
C1507  C     0.62103   0.84323   0.79517   0.00000  Uiso   1.00
C1508  C     0.93857   0.80717   0.83429   0.00000  Uiso   1.00
C1509  C     0.87896   0.65679   0.87149   0.00000  Uiso   1.00
C1510  C     0.61930   0.65530   0.87252   0.00000  Uiso   1.00
C1511  C     0.88069   0.84469   0.79415   0.00000  Uiso   1.00
C1512  C     0.89305   0.86605   0.87641   0.00000  Uiso   1.00
C1513  C     0.60697   0.63397   0.79025   0.00000  Uiso   1.00
C1514  C     0.64563   0.88178   0.79095   0.00000  Uiso   1.00
C1515  C     0.85435   0.61824   0.87571   0.00000  Uiso   1.00
C1516  C     0.87104   0.59321   0.79518   0.00000  Uiso   1.00
C1517  C     0.62897   0.90678   0.87150   0.00000  Uiso   1.00
C1518  C     0.86931   0.90531   0.87251   0.00000  Uiso   1.00
C1519  C     0.93886   0.69250   0.83245   0.00000  Uiso   1.00
C1520  C     0.63070   0.59470   0.79415   0.00000  Uiso   1.00
C1521  C     0.64304   0.61603   0.87641   0.00000  Uiso   1.00
C1522  C     0.85695   0.88395   0.79026   0.00000  Uiso   1.00
C1523  C     0.59731   0.83853   0.83608   0.00000  Uiso   1.00
C1524  C     0.90270   0.66146   0.83058   0.00000  Uiso   1.00
C1525  C     0.90211   0.83797   0.83599   0.00000  Uiso   1.00
C1526  C     0.59789   0.66203   0.83068   0.00000  Uiso   1.00
C1527  C     0.84730   0.58853   0.83608   0.00000  Uiso   1.00
C1528  C     0.65269   0.91147   0.83059   0.00000  Uiso   1.00
C1529  C     0.65211   0.58797   0.83598   0.00000  Uiso   1.00
C1530  C     0.56114   0.80750   0.83421   0.00000  Uiso   1.00
C1531  C     0.84789   0.91202   0.83068   0.00000  Uiso   1.00
C1532  C     0.50229   0.66585   0.71145   0.00000  Uiso   1.00
C1533  C     0.99774   0.83415   0.95521   0.00000  Uiso   1.00
C1534  C     0.50431   0.83261   0.72262   0.00000  Uiso   1.00
C1535  C     0.99563   0.66739   0.94405   0.00000  Uiso   1.00
C1536  C     0.75225   0.91585   0.71146   0.00000  Uiso   1.00
C1537  C     0.74772   0.58415   0.95521   0.00000  Uiso   1.00
C1538  C     0.75431   0.58261   0.72262   0.00000  Uiso   1.00
C1539  C     0.74575   0.91739   0.94404   0.00000  Uiso   1.00
C1540  C     0.91204   0.64073   0.74423   0.00000  Uiso   1.00
C1541  C     0.81143   0.94283   0.83238   0.00000  Uiso   1.00
C1542  C     0.58800   0.85922   0.92245   0.00000  Uiso   1.00
C1543  C     0.62228   0.80659   0.75751   0.00000  Uiso   1.00
C1544  C     0.87769   0.69345   0.90914   0.00000  Uiso   1.00
C1545  C     0.61850   0.69022   0.91201   0.00000  Uiso   1.00
C1546  C     0.88147   0.80976   0.75467   0.00000  Uiso   1.00
C1547  C     0.90615   0.85460   0.92355   0.00000  Uiso   1.00
C1548  C     0.59389   0.64544   0.74311   0.00000  Uiso   1.00
C1549  C     0.66199   0.89078   0.74422   0.00000  Uiso   1.00
C1550  C     0.83797   0.60926   0.92244   0.00000  Uiso   1.00
C1551  C     0.87230   0.55656   0.75752   0.00000  Uiso   1.00
C1552  C     0.68856   0.55717   0.83429   0.00000  Uiso   1.00
C1553  C     0.62772   0.94341   0.90917   0.00000  Uiso   1.00
C1554  C     0.86853   0.94024   0.91199   0.00000  Uiso   1.00
C1555  C     0.63149   0.55978   0.75466   0.00000  Uiso   1.00
C1556  C     0.65612   0.60458   0.92355   0.00000  Uiso   1.00
C1557  C     0.84384   0.89539   0.74312   0.00000  Uiso   1.00
C1558  C     0.68886   0.94250   0.83246   0.00000  Uiso   1.00
C1559  C     0.81114   0.55750   0.83421   0.00000  Uiso   1.00
C1560  C     0.50005   0.70987   0.68888   0.00000  Uiso   1.00
Cu1561 Cu    0.50000   0.75000   0.88022   0.00000  Uiso   1.00
Cu1562 Cu    0.50000   0.75000   0.78645   0.00000  Uiso   1.00
Cu1563 Cu    0.75000   0.50000   0.88022   0.00000  Uiso   1.00
Cu1564 Cu    0.75000   0.50000   0.78645   0.00000  Uiso   1.00
H1565  H     0.99946   0.66377   0.74806   0.00000  Uiso   1.00
H1566  H     0.57051   0.88503   0.94246   0.00000  Uiso   1.00
H1567  H     0.62226   0.81431   0.72119   0.00000  Uiso   1.00
H1568  H     0.87768   0.68573   0.94546   0.00000  Uiso   1.00
H1569  H     0.61488   0.68073   0.94758   0.00000  Uiso   1.00
H1570  H     0.88506   0.81923   0.71910   0.00000  Uiso   1.00
H1571  H     0.91960   0.88025   0.94722   0.00000  Uiso   1.00
H1572  H     0.58048   0.61979   0.71941   0.00000  Uiso   1.00
H1573  H     0.67948   0.86498   0.72420   0.00000  Uiso   1.00
H1574  H     0.82046   0.63507   0.94242   0.00000  Uiso   1.00
H1575  H     0.87231   0.56427   0.72121   0.00000  Uiso   1.00
H1576  H     0.50053   0.83623   0.91860   0.00000  Uiso   1.00
H1577  H     0.62774   0.93568   0.94548   0.00000  Uiso   1.00
H1578  H     0.86494   0.93077   0.94756   0.00000  Uiso   1.00
H1579  H     0.63512   0.56926   0.71909   0.00000  Uiso   1.00
H1580  H     0.66955   0.63023   0.94724   0.00000  Uiso   1.00
H1581  H     0.83038   0.86974   0.71946   0.00000  Uiso   1.00
H1582  H     0.97716   0.84756   0.73997   0.00000  Uiso   1.00
H1583  H     0.52274   0.65244   0.92662   0.00000  Uiso   1.00
H1584  H     0.74947   0.91377   0.74807   0.00000  Uiso   1.00
H1585  H     0.75053   0.58623   0.91860   0.00000  Uiso   1.00
H1586  H     0.72717   0.59756   0.73997   0.00000  Uiso   1.00
H1587  H     0.77293   0.90243   0.92676   0.00000  Uiso   1.00
H1588  H     0.92956   0.61493   0.72425   0.00000  Uiso   1.00
N1589  N     0.50000   0.75000   0.95069   0.00000  Uiso   1.00
N1590  N     0.50000   0.75000   0.71598   0.00000  Uiso   1.00
N1591  N     0.75000   0.50000   0.95069   0.00000  Uiso   1.00
N1592  N     0.75000   0.50000   0.71598   0.00000  Uiso   1.00
O1593  O     0.54508   0.70491   0.87291   0.00000  Uiso   1.00
O1594  O     0.70491   0.54509   0.79375   0.00000  Uiso   1.00
O1595  O     0.70491   0.54509   0.87291   0.00000  Uiso   1.00
O1596  O     0.79508   0.95491   0.79375   0.00000  Uiso   1.00
O1597  O     0.70491   0.95491   0.79375   0.00000  Uiso   1.00
O1598  O     0.79508   0.54509   0.87291   0.00000  Uiso   1.00
O1599  O     0.79508   0.54509   0.79375   0.00000  Uiso   1.00
O1600  O     0.70491   0.95491   0.87291   0.00000  Uiso   1.00
O1601  O     0.50805   0.62995   0.68944   0.00000  Uiso   1.00
O1602  O     0.99204   0.87006   0.97722   0.00000  Uiso   1.00
O1603  O     0.53729   0.85326   0.72401   0.00000  Uiso   1.00
O1604  O     0.95491   0.79509   0.79375   0.00000  Uiso   1.00
O1605  O     0.96264   0.64675   0.94274   0.00000  Uiso   1.00
O1606  O     0.75793   0.87993   0.68945   0.00000  Uiso   1.00
O1607  O     0.74199   0.62006   0.97722   0.00000  Uiso   1.00
O1608  O     0.78730   0.60326   0.72401   0.00000  Uiso   1.00
O1609  O     0.71276   0.89674   0.94258   0.00000  Uiso   1.00
O1610  O     0.90360   0.67592   0.72653   0.00000  Uiso   1.00
O1611  O     0.59643   0.82402   0.94012   0.00000  Uiso   1.00
O1612  O     0.62474   0.76722   0.76714   0.00000  Uiso   1.00
O1613  O     0.87526   0.73281   0.89949   0.00000  Uiso   1.00
O1614  O     0.62273   0.73008   0.90485   0.00000  Uiso   1.00
O1615  O     0.95491   0.79509   0.87291   0.00000  Uiso   1.00
O1616  O     0.87727   0.76989   0.76185   0.00000  Uiso   1.00
O1617  O     0.89907   0.81739   0.93758   0.00000  Uiso   1.00
O1618  O     0.60095   0.68266   0.72911   0.00000  Uiso   1.00
O1619  O     0.65356   0.92599   0.72655   0.00000  Uiso   1.00
O1620  O     0.84640   0.57407   0.94013   0.00000  Uiso   1.00
O1621  O     0.87473   0.51720   0.76717   0.00000  Uiso   1.00
O1622  O     0.62527   0.98278   0.89954   0.00000  Uiso   1.00
O1623  O     0.87273   0.98011   0.90481   0.00000  Uiso   1.00
O1624  O     0.62726   0.51992   0.76182   0.00000  Uiso   1.00
O1625  O     0.64905   0.56736   0.93756   0.00000  Uiso   1.00
O1626  O     0.54508   0.70491   0.79375   0.00000  Uiso   1.00
O1627  O     0.85092   0.93259   0.72908   0.00000  Uiso   1.00
O1628  O     0.95491   0.70491   0.79375   0.00000  Uiso   1.00
O1629  O     0.54508   0.79509   0.87291   0.00000  Uiso   1.00
O1630  O     0.54508   0.79509   0.79375   0.00000  Uiso   1.00
O1631  O     0.95491   0.70491   0.87291   0.00000  Uiso   1.00
O1632  O     0.79508   0.95491   0.87291   0.00000  Uiso   1.00
loop_
_geom_bond_atom_site_label_1
_geom_bond_atom_site_label_2
_geom_bond_distance
_geom_bond_site_symmetry_2
_ccdc_geom_bond_type
C1     O130    1.303   .     A
C1     O97     1.308   .     A
C1     C30     1.482   .     S
C2     N229    1.385   .     A
C2     C37     1.497   .     S
C2     C683    1.435   .     S
C3     C38     1.475   .     S
C3     N94     1.371   .     A
C3     C1226   1.435   1_454 S
C4     C39     1.475   .     S
C4     N229    1.371   .     A
C4     C744    1.435   .     S
C5     N368    1.385   .     A
C5     C40     1.497   .     S
C5     C1096   1.435   1_554 S
C6     C41     1.497   .     S
C6     N95     1.385   .     A
C6     C551    1.435   .     S
C7     C42     1.475   .     S
C7     C1094   1.435   1_554 S
C7     N96     1.371   .     S
C8     C43     1.475   .     S
C8     C549    1.435   .     S
C8     N367    1.371   .     S
C9     C44     1.482   .     S
C9     C20     1.401   .     A
C9     C28     1.419   .     A
C10    C27     1.419   .     A
C10    C46     1.482   .     S
C10    C21     1.401   .     A
C11    C18     1.401   .     A
C11    C47     1.490   .     S
C11    C27     1.413   .     A
C12    C29     1.482   .     S
C12    O108    1.308   .     A
C12    O119    1.303   .     A
C13    C28     1.413   .     A
C13    C19     1.401   .     A
C13    C48     1.490   .     S
C14    C49     1.492   .     S
C14    C30     1.415   .     A
C14    C25     1.402   .     A
C15    C50     1.493   .     S
C15    C29     1.415   .     A
C15    C26     1.402   .     A
C16    C51     1.483   .     S
C16    C29     1.419   .     A
C16    C22     1.402   .     A
C17    C30     1.419   .     A
C17    C52     1.483   .     S
C17    C24     1.402   .     A
C18    C53     1.482   .     S
C18    C32     1.419   .     A
C19    C31     1.419   .     A
C19    C54     1.482   .     S
C20    C55     1.490   .     S
C20    C31     1.413   .     A
C21    C32     1.413   .     A
C21    C57     1.490   .     S
C22    C35     1.415   .     A
C22    C58     1.493   .     S
C23    C28     1.479   .     S
C23    O135    1.310   .     A
C23    O132    1.299   .     A
C24    C33     1.415   .     A
C24    C59     1.493   .     S
C25    C60     1.483   .     S
C25    C33     1.419   .     A
C26    C61     1.483   .     S
C26    C35     1.419   .     A
C27    C34     1.479   .     S
C31    C63     1.479   .     S
C32    C62     1.479   .     S
C33    C56     1.482   .     S
C34    O134    1.310   .     A
C34    O133    1.299   .     A
C35    C45     1.482   .     S
C36    O105    1.220   .     D
C36    C64     1.497   .     S
C36    H205    1.064   1_455 S
C37    O106    1.220   .     D
C37    H216    1.064   .     S
C38    O107    1.221   .     D
C38    H222    1.082   1_455 S
C39    O109    1.221   .     D
C39    H223    1.082   .     S
C40    O110    1.220   .     D
C40    H88     1.064   .     S
C41    H89     1.064   .     S
C41    O111    1.220   .     D
C42    O112    1.221   .     D
C42    H90     1.082   .     S
C43    H91     1.082   .     S
C43    O113    1.221   .     D
C44    H92     1.084   .     S
C44    O114    1.221   .     D
C45    O136    1.308   .     A
C45    O100    1.303   .     A
C46    O115    1.221   .     D
C46    H70     1.084   .     S
C47    O116    1.220   .     D
C47    H71     1.085   .     S
C48    H72     1.085   .     S
C48    O117    1.220   .     D
C49    O118    1.221   .     D
C49    H73     1.085   .     S
C50    O120    1.221   .     D
C50    H74     1.085   .     S
C51    O121    1.220   .     D
C51    H75     1.082   .     S
C52    O122    1.220   .     D
C52    H76     1.082   .     S
C53    O123    1.221   .     D
C53    H77     1.084   .     S
C54    O124    1.221   .     D
C54    H78     1.084   .     S
C55    O125    1.220   .     D
C55    H79     1.085   .     S
C56    O98     1.308   .     A
C56    O99     1.303   .     A
C57    O126    1.220   .     D
C57    H81     1.085   .     S
C58    O127    1.221   .     D
C58    H82     1.085   .     S
C59    H83     1.085   .     S
C59    O128    1.221   .     D
C60    O129    1.220   .     D
C60    H84     1.082   .     S
C61    H85     1.082   .     S
C61    O131    1.220   .     D
C62    O101    1.299   .     A
C62    O104    1.310   .     A
C63    O102    1.299   .     A
C63    O103    1.310   .     A
C64    N94     1.384   .     A
C64    C1228   1.435   1_454 S
Cu65   N93     2.031   .     S
Cu65   O255    1.990   1_455 S
Cu65   O271    1.973   1_455 S
Cu65   Cu66    2.703   .     S
Cu65   O97     1.971   .     S
Cu65   O133    1.988   .     S
Cu66   O134    1.973   .     S
Cu66   N94     2.031   .     S
Cu66   O130    1.990   .     S
Cu66   O244    1.971   1_455 S
Cu66   O268    1.988   1_455 S
Cu67   O99     1.990   .     S
Cu67   N95     2.031   .     S
Cu67   Cu68    2.703   .     S
Cu67   O102    1.988   .     S
Cu67   O376    1.973   1_545 S
Cu67   O408    1.971   1_545 S
Cu68   O103    1.973   .     S
Cu68   O98     1.971   .     S
Cu68   N96     2.031   .     S
Cu68   O372    1.990   1_545 S
Cu68   O373    1.988   1_545 S
H69    C172    1.064   .     S
H80    C173    1.064   1_455 S
H86    C174    1.082   .     S
H87    C175    1.082   1_455 S
N93    C138    1.385   1_455 A
N93    C140    1.371   1_455 A
N95    C280    1.371   1_545 S
N96    C277    1.385   1_545 A
O100   Cu340   1.990   .     S
O101   Cu340   1.988   .     S
O104   Cu339   1.973   .     S
O108   Cu202   1.971   .     S
O119   Cu201   1.990   .     S
O132   Cu202   1.988   .     S
O135   Cu201   1.973   .     S
O136   Cu339   1.971   .     S
C137   O266    1.303   .     A
C137   O233    1.308   .     A
C137   C166    1.482   .     S
C138   N93     1.385   1_655 A
C138   C173    1.497   .     S
C138   C547    1.435   1_655 S
C139   C174    1.475   .     S
C139   N230    1.371   .     A
C139   C1090   1.435   1_554 S
C140   C175    1.475   .     S
C140   N93     1.371   1_655 A
C140   C608    1.435   1_655 S
C141   N504    1.385   .     A
C141   C176    1.497   .     S
C141   C1232   1.435   1_554 S
C142   C177    1.497   .     S
C142   N231    1.385   .     A
C142   C687    1.435   .     S
C143   C178    1.475   .     S
C143   C1230   1.435   1_554 S
C143   N232    1.371   .     S
C144   C179    1.475   .     S
C144   C685    1.435   .     S
C144   N503    1.371   .     S
C145   C180    1.482   .     S
C145   C156    1.401   .     A
C145   C164    1.419   .     A
C146   C163    1.419   .     A
C146   C182    1.482   .     S
C146   C157    1.401   .     A
C147   C154    1.401   .     A
C147   C183    1.490   .     S
C147   C163    1.413   .     A
C148   C165    1.482   .     S
C148   O244    1.308   .     A
C148   O255    1.303   .     A
C149   C164    1.413   .     A
C149   C155    1.401   .     A
C149   C184    1.490   .     S
C150   C185    1.492   .     S
C150   C166    1.415   .     A
C150   C161    1.402   .     A
C151   C186    1.493   .     S
C151   C165    1.415   .     A
C151   C162    1.402   .     A
C152   C187    1.483   .     S
C152   C165    1.419   .     A
C152   C158    1.402   .     A
C153   C166    1.419   .     A
C153   C188    1.483   .     S
C153   C160    1.402   .     A
C154   C189    1.482   .     S
C154   C168    1.419   .     A
C155   C167    1.419   .     A
C155   C190    1.482   .     S
C156   C191    1.490   .     S
C156   C167    1.413   .     A
C157   C168    1.413   .     A
C157   C193    1.490   .     S
C158   C171    1.415   .     A
C158   C194    1.493   .     S
C159   C164    1.479   .     S
C159   O271    1.310   .     A
C159   O268    1.299   .     A
C160   C169    1.415   .     A
C160   C195    1.493   .     S
C161   C196    1.483   .     S
C161   C169    1.419   .     A
C162   C197    1.483   .     S
C162   C171    1.419   .     A
C163   C170    1.479   .     S
C167   C199    1.479   .     S
C168   C198    1.479   .     S
C169   C192    1.482   .     S
C170   O270    1.310   .     A
C170   O269    1.299   .     A
C171   C181    1.482   .     S
C172   O241    1.220   .     D
C172   C200    1.497   .     S
C173   O242    1.220   .     D
C173   H80     1.064   1_655 S
C174   O243    1.221   .     D
C175   O245    1.221   .     D
C175   H87     1.082   1_655 S
C176   O246    1.220   .     D
C176   H224    1.064   .     S
C177   H225    1.064   .     S
C177   O247    1.220   .     D
C178   O248    1.221   .     D
C178   H226    1.082   .     S
C179   H227    1.082   .     S
C179   O249    1.221   .     D
C180   H228    1.084   .     S
C180   O250    1.221   .     D
C181   O272    1.308   .     A
C181   O236    1.303   .     A
C182   O251    1.221   .     D
C182   H206    1.084   .     S
C183   O252    1.220   .     D
C183   H207    1.085   .     S
C184   H208    1.085   .     S
C184   O253    1.220   .     D
C185   O254    1.221   .     D
C185   H209    1.085   .     S
C186   O256    1.221   .     D
C186   H210    1.085   .     S
C187   O257    1.220   .     D
C187   H211    1.082   .     S
C188   O258    1.220   .     D
C188   H212    1.082   .     S
C189   O259    1.221   .     D
C189   H213    1.084   .     S
C190   O260    1.221   .     D
C190   H214    1.084   .     S
C191   O261    1.220   .     D
C191   H215    1.085   .     S
C192   O234    1.308   .     A
C192   O235    1.303   .     A
C193   O262    1.220   .     D
C193   H217    1.085   .     S
C194   O263    1.221   .     D
C194   H218    1.085   .     S
C195   H219    1.085   .     S
C195   O264    1.221   .     D
C196   O265    1.220   .     D
C196   H220    1.082   .     S
C197   H221    1.082   .     S
C197   O267    1.220   .     D
C198   O237    1.299   .     A
C198   O240    1.310   .     A
C199   O238    1.299   .     A
C199   O239    1.310   .     A
C200   N230    1.384   .     A
C200   C1092   1.435   1_554 S
Cu201  N229    2.031   .     S
Cu201  Cu202   2.703   .     S
Cu201  O233    1.971   .     S
Cu201  O269    1.988   .     S
Cu202  O270    1.973   .     S
Cu202  N230    2.031   .     S
Cu202  O266    1.990   .     S
Cu203  O235    1.990   .     S
Cu203  N231    2.031   .     S
Cu203  Cu204   2.703   .     S
Cu203  O238    1.988   .     S
Cu203  O512    1.973   1_545 S
Cu203  O544    1.971   1_545 S
Cu204  O239    1.973   .     S
Cu204  O234    1.971   .     S
Cu204  N232    2.031   .     S
Cu204  O508    1.990   1_545 S
Cu204  O509    1.988   1_545 S
H205   C36     1.064   1_655 S
H222   C38     1.082   1_655 S
N231   C416    1.371   1_545 S
N232   C413    1.385   1_545 A
O236   Cu476   1.990   .     S
O237   Cu476   1.988   .     S
O240   Cu475   1.973   .     S
O244   Cu66    1.971   1_655 S
O255   Cu65    1.990   1_655 S
O268   Cu66    1.988   1_655 S
O271   Cu65    1.973   1_655 S
O272   Cu475   1.971   .     S
C273   O402    1.303   .     A
C273   O369    1.308   .     A
C273   C302    1.482   .     S
C274   N501    1.385   .     A
C274   C309    1.497   .     S
C274   C955    1.435   .     S
C275   C310    1.475   .     S
C275   N366    1.371   .     A
C275   C1498   1.435   1_454 S
C276   C311    1.475   .     S
C276   N501    1.371   .     A
C276   C1016   1.435   .     S
C277   N96     1.385   1_565 A
C277   C312    1.497   .     S
C277   C1368   1.435   1_554 S
C278   C313    1.497   .     S
C278   N367    1.385   .     A
C278   C823    1.435   .     S
C279   C314    1.475   .     S
C279   C1366   1.435   1_554 S
C279   N368    1.371   .     S
C280   C315    1.475   .     S
C280   C821    1.435   .     S
C280   N95     1.371   1_565 S
C281   C316    1.482   .     S
C281   C292    1.401   .     A
C281   C300    1.419   .     A
C282   C299    1.419   .     A
C282   C318    1.482   .     S
C282   C293    1.401   .     A
C283   C290    1.401   .     A
C283   C319    1.490   .     S
C283   C299    1.413   .     A
C284   C301    1.482   .     S
C284   O380    1.308   .     A
C284   O391    1.303   .     A
C285   C300    1.413   .     A
C285   C291    1.401   .     A
C285   C320    1.490   .     S
C286   C321    1.492   .     S
C286   C302    1.415   .     A
C286   C297    1.402   .     A
C287   C322    1.493   .     S
C287   C301    1.415   .     A
C287   C298    1.402   .     A
C288   C323    1.483   .     S
C288   C301    1.419   .     A
C288   C294    1.402   .     A
C289   C302    1.419   .     A
C289   C324    1.483   .     S
C289   C296    1.402   .     A
C290   C325    1.482   .     S
C290   C304    1.419   .     A
C291   C303    1.419   .     A
C291   C326    1.482   .     S
C292   C327    1.490   .     S
C292   C303    1.413   .     A
C293   C304    1.413   .     A
C293   C329    1.490   .     S
C294   C307    1.415   .     A
C294   C330    1.493   .     S
C295   C300    1.479   .     S
C295   O407    1.310   .     A
C295   O404    1.299   .     A
C296   C305    1.415   .     A
C296   C331    1.493   .     S
C297   C332    1.483   .     S
C297   C305    1.419   .     A
C298   C333    1.483   .     S
C298   C307    1.419   .     A
C299   C306    1.479   .     S
C303   C335    1.479   .     S
C304   C334    1.479   .     S
C305   C328    1.482   .     S
C306   O406    1.310   .     A
C306   O405    1.299   .     A
C307   C317    1.482   .     S
C308   O377    1.220   .     D
C308   C336    1.497   .     S
C308   H477    1.064   1_455 S
C309   O378    1.220   .     D
C309   H488    1.064   .     S
C310   O379    1.221   .     D
C310   H494    1.082   1_455 S
C311   O381    1.221   .     D
C311   H495    1.082   .     S
C312   O382    1.220   .     D
C312   H360    1.064   .     S
C313   H361    1.064   .     S
C313   O383    1.220   .     D
C314   O384    1.221   .     D
C314   H362    1.082   .     S
C315   H363    1.082   .     S
C315   O385    1.221   .     D
C316   H364    1.084   .     S
C316   O386    1.221   .     D
C317   O408    1.308   .     A
C317   O372    1.303   .     A
C318   O387    1.221   .     D
C318   H342    1.084   .     S
C319   O388    1.220   .     D
C319   H343    1.085   .     S
C320   H344    1.085   .     S
C320   O389    1.220   .     D
C321   O390    1.221   .     D
C321   H345    1.085   .     S
C322   O392    1.221   .     D
C322   H346    1.085   .     S
C323   O393    1.220   .     D
C323   H347    1.082   .     S
C324   O394    1.220   .     D
C324   H348    1.082   .     S
C325   O395    1.221   .     D
C325   H349    1.084   .     S
C326   O396    1.221   .     D
C326   H350    1.084   .     S
C327   O397    1.220   .     D
C327   H351    1.085   .     S
C328   O370    1.308   .     A
C328   O371    1.303   .     A
C329   O398    1.220   .     D
C329   H353    1.085   .     S
C330   O399    1.221   .     D
C330   H354    1.085   .     S
C331   H355    1.085   .     S
C331   O400    1.221   .     D
C332   O401    1.220   .     D
C332   H356    1.082   .     S
C333   H357    1.082   .     S
C333   O403    1.220   .     D
C334   O373    1.299   .     A
C334   O376    1.310   .     A
C335   O374    1.299   .     A
C335   O375    1.310   .     A
C336   N366    1.384   .     A
C336   C1500   1.435   1_454 S
Cu337  N365    2.031   .     S
Cu337  O527    1.990   1_455 S
Cu337  O543    1.973   1_455 S
Cu337  Cu338   2.703   .     S
Cu337  O369    1.971   .     S
Cu337  O405    1.988   .     S
Cu338  O406    1.973   .     S
Cu338  N366    2.031   .     S
Cu338  O402    1.990   .     S
Cu338  O516    1.971   1_455 S
Cu338  O540    1.988   1_455 S
Cu339  O371    1.990   .     S
Cu339  N367    2.031   .     S
Cu339  Cu340   2.703   .     S
Cu339  O374    1.988   .     S
Cu340  O375    1.973   .     S
Cu340  O370    1.971   .     S
Cu340  N368    2.031   .     S
H341   C444    1.064   .     S
H352   C445    1.064   1_455 S
H358   C446    1.082   .     S
H359   C447    1.082   1_455 S
N365   C410    1.385   1_455 A
N365   C412    1.371   1_455 A
O372   Cu68    1.990   1_565 S
O373   Cu68    1.988   1_565 S
O376   Cu67    1.973   1_565 S
O380   Cu474   1.971   .     S
O391   Cu473   1.990   .     S
O404   Cu474   1.988   .     S
O407   Cu473   1.973   .     S
O408   Cu67    1.971   1_565 S
C409   O538    1.303   .     A
C409   O505    1.308   .     A
C409   C438    1.482   .     S
C410   N365    1.385   1_655 A
C410   C445    1.497   .     S
C410   C819    1.435   1_655 S
C411   C446    1.475   .     S
C411   N502    1.371   .     A
C411   C1362   1.435   1_554 S
C412   C447    1.475   .     S
C412   N365    1.371   1_655 A
C412   C880    1.435   1_655 S
C413   N232    1.385   1_565 A
C413   C448    1.497   .     S
C413   C1504   1.435   1_554 S
C414   C449    1.497   .     S
C414   N503    1.385   .     A
C414   C959    1.435   .     S
C415   C450    1.475   .     S
C415   C1502   1.435   1_554 S
C415   N504    1.371   .     S
C416   C451    1.475   .     S
C416   C957    1.435   .     S
C416   N231    1.371   1_565 S
C417   C452    1.482   .     S
C417   C428    1.401   .     A
C417   C436    1.419   .     A
C418   C435    1.419   .     A
C418   C454    1.482   .     S
C418   C429    1.401   .     A
C419   C426    1.401   .     A
C419   C455    1.490   .     S
C419   C435    1.413   .     A
C420   C437    1.482   .     S
C420   O516    1.308   .     A
C420   O527    1.303   .     A
C421   C436    1.413   .     A
C421   C427    1.401   .     A
C421   C456    1.490   .     S
C422   C457    1.492   .     S
C422   C438    1.415   .     A
C422   C433    1.402   .     A
C423   C458    1.493   .     S
C423   C437    1.415   .     A
C423   C434    1.402   .     A
C424   C459    1.483   .     S
C424   C437    1.419   .     A
C424   C430    1.402   .     A
C425   C438    1.419   .     A
C425   C460    1.483   .     S
C425   C432    1.402   .     A
C426   C461    1.482   .     S
C426   C440    1.419   .     A
C427   C439    1.419   .     A
C427   C462    1.482   .     S
C428   C463    1.490   .     S
C428   C439    1.413   .     A
C429   C440    1.413   .     A
C429   C465    1.490   .     S
C430   C443    1.415   .     A
C430   C466    1.493   .     S
C431   C436    1.479   .     S
C431   O543    1.310   .     A
C431   O540    1.299   .     A
C432   C441    1.415   .     A
C432   C467    1.493   .     S
C433   C468    1.483   .     S
C433   C441    1.419   .     A
C434   C469    1.483   .     S
C434   C443    1.419   .     A
C435   C442    1.479   .     S
C439   C471    1.479   .     S
C440   C470    1.479   .     S
C441   C464    1.482   .     S
C442   O542    1.310   .     A
C442   O541    1.299   .     A
C443   C453    1.482   .     S
C444   O513    1.220   .     D
C444   C472    1.497   .     S
C445   O514    1.220   .     D
C445   H352    1.064   1_655 S
C446   O515    1.221   .     D
C447   O517    1.221   .     D
C447   H359    1.082   1_655 S
C448   O518    1.220   .     D
C448   H496    1.064   .     S
C449   H497    1.064   .     S
C449   O519    1.220   .     D
C450   O520    1.221   .     D
C450   H498    1.082   .     S
C451   H499    1.082   .     S
C451   O521    1.221   .     D
C452   H500    1.084   .     S
C452   O522    1.221   .     D
C453   O544    1.308   .     A
C453   O508    1.303   .     A
C454   O523    1.221   .     D
C454   H478    1.084   .     S
C455   O524    1.220   .     D
C455   H479    1.085   .     S
C456   H480    1.085   .     S
C456   O525    1.220   .     D
C457   O526    1.221   .     D
C457   H481    1.085   .     S
C458   O528    1.221   .     D
C458   H482    1.085   .     S
C459   O529    1.220   .     D
C459   H483    1.082   .     S
C460   O530    1.220   .     D
C460   H484    1.082   .     S
C461   O531    1.221   .     D
C461   H485    1.084   .     S
C462   O532    1.221   .     D
C462   H486    1.084   .     S
C463   O533    1.220   .     D
C463   H487    1.085   .     S
C464   O506    1.308   .     A
C464   O507    1.303   .     A
C465   O534    1.220   .     D
C465   H489    1.085   .     S
C466   O535    1.221   .     D
C466   H490    1.085   .     S
C467   H491    1.085   .     S
C467   O536    1.221   .     D
C468   O537    1.220   .     D
C468   H492    1.082   .     S
C469   H493    1.082   .     S
C469   O539    1.220   .     D
C470   O509    1.299   .     A
C470   O512    1.310   .     A
C471   O510    1.299   .     A
C471   O511    1.310   .     A
C472   N502    1.384   .     A
C472   C1364   1.435   1_554 S
Cu473  N501    2.031   .     S
Cu473  Cu474   2.703   .     S
Cu473  O505    1.971   .     S
Cu473  O541    1.988   .     S
Cu474  O542    1.973   .     S
Cu474  N502    2.031   .     S
Cu474  O538    1.990   .     S
Cu475  O507    1.990   .     S
Cu475  N503    2.031   .     S
Cu475  Cu476   2.703   .     S
Cu475  O510    1.988   .     S
Cu476  O511    1.973   .     S
Cu476  O506    1.971   .     S
Cu476  N504    2.031   .     S
H477   C308    1.064   1_655 S
H494   C310    1.082   1_655 S
O508   Cu204   1.990   1_565 S
O509   Cu204   1.988   1_565 S
O512   Cu203   1.973   1_565 S
O516   Cu338   1.971   1_655 S
O527   Cu337   1.990   1_655 S
O540   Cu338   1.988   1_655 S
O543   Cu337   1.973   1_655 S
O544   Cu203   1.971   1_565 S
C545   O674    1.303   .     A
C545   O641    1.308   .     A
C545   C574    1.482   .     S
C546   N773    1.385   .     A
C546   C581    1.497   .     S
C546   C1227   1.435   .     S
C547   C582    1.475   .     S
C547   N638    1.371   .     A
C547   C138    1.435   1_455 S
C548   C583    1.475   .     S
C548   N773    1.371   .     A
C548   C1288   1.435   .     S
C549   N912    1.385   .     A
C549   C584    1.497   .     S
C550   C585    1.497   .     S
C550   N639    1.385   .     A
C550   C1095   1.435   .     S
C551   C586    1.475   .     S
C551   N640    1.371   .     S
C552   C587    1.475   .     S
C552   C1093   1.435   .     S
C552   N911    1.371   .     S
C553   C588    1.482   .     S
C553   C564    1.401   .     A
C553   C572    1.419   .     A
C554   C571    1.419   .     A
C554   C590    1.482   .     S
C554   C565    1.401   .     A
C555   C562    1.401   .     A
C555   C591    1.490   .     S
C555   C571    1.413   .     A
C556   C573    1.482   .     S
C556   O652    1.308   .     A
C556   O663    1.303   .     A
C557   C572    1.413   .     A
C557   C563    1.401   .     A
C557   C592    1.490   .     S
C558   C593    1.492   .     S
C558   C574    1.415   .     A
C558   C569    1.402   .     A
C559   C594    1.493   .     S
C559   C573    1.415   .     A
C559   C570    1.402   .     A
C560   C595    1.483   .     S
C560   C573    1.419   .     A
C560   C566    1.402   .     A
C561   C574    1.419   .     A
C561   C596    1.483   .     S
C561   C568    1.402   .     A
C562   C597    1.482   .     S
C562   C576    1.419   .     A
C563   C575    1.419   .     A
C563   C598    1.482   .     S
C564   C599    1.490   .     S
C564   C575    1.413   .     A
C565   C576    1.413   .     A
C565   C601    1.490   .     S
C566   C579    1.415   .     A
C566   C602    1.493   .     S
C567   C572    1.479   .     S
C567   O679    1.310   .     A
C567   O676    1.299   .     A
C568   C577    1.415   .     A
C568   C603    1.493   .     S
C569   C604    1.483   .     S
C569   C577    1.419   .     A
C570   C605    1.483   .     S
C570   C579    1.419   .     A
C571   C578    1.479   .     S
C575   C607    1.479   .     S
C576   C606    1.479   .     S
C577   C600    1.482   .     S
C578   O678    1.310   .     A
C578   O677    1.299   .     A
C579   C589    1.482   .     S
C580   O649    1.220   .     D
C580   C608    1.497   .     S
C580   H749    1.064   1_455 S
C581   O650    1.220   .     D
C581   H760    1.064   .     S
C582   O651    1.221   .     D
C582   H766    1.082   1_455 S
C583   O653    1.221   .     D
C583   H767    1.082   .     S
C584   O654    1.220   .     D
C584   H632    1.064   .     S
C585   H633    1.064   .     S
C585   O655    1.220   .     D
C586   O656    1.221   .     D
C586   H634    1.082   .     S
C587   H635    1.082   .     S
C587   O657    1.221   .     D
C588   H636    1.084   .     S
C588   O658    1.221   .     D
C589   O680    1.308   .     A
C589   O644    1.303   .     A
C590   O659    1.221   .     D
C590   H614    1.084   .     S
C591   O660    1.220   .     D
C591   H615    1.085   .     S
C592   H616    1.085   .     S
C592   O661    1.220   .     D
C593   O662    1.221   .     D
C593   H617    1.085   .     S
C594   O664    1.221   .     D
C594   H618    1.085   .     S
C595   O665    1.220   .     D
C595   H619    1.082   .     S
C596   O666    1.220   .     D
C596   H620    1.082   .     S
C597   O667    1.221   .     D
C597   H621    1.084   .     S
C598   O668    1.221   .     D
C598   H622    1.084   .     S
C599   O669    1.220   .     D
C599   H623    1.085   .     S
C600   O642    1.308   .     A
C600   O643    1.303   .     A
C601   O670    1.220   .     D
C601   H625    1.085   .     S
C602   O671    1.221   .     D
C602   H626    1.085   .     S
C603   H627    1.085   .     S
C603   O672    1.221   .     D
C604   O673    1.220   .     D
C604   H628    1.082   .     S
C605   H629    1.082   .     S
C605   O675    1.220   .     D
C606   O645    1.299   .     A
C606   O648    1.310   .     A
C607   O646    1.299   .     A
C607   O647    1.310   .     A
C608   N638    1.384   .     A
C608   C140    1.435   1_455 S
Cu609  N637    2.031   .     S
Cu609  O799    1.990   1_455 S
Cu609  O815    1.973   1_455 S
Cu609  Cu610   2.703   .     S
Cu609  O641    1.971   .     S
Cu609  O677    1.988   .     S
Cu610  O678    1.973   .     S
Cu610  N638    2.031   .     S
Cu610  O674    1.990   .     S
Cu610  O788    1.971   1_455 S
Cu610  O812    1.988   1_455 S
Cu611  O643    1.990   .     S
Cu611  N639    2.031   .     S
Cu611  Cu612   2.703   .     S
Cu611  O646    1.988   .     S
Cu611  O920    1.973   1_545 S
Cu611  O952    1.971   1_545 S
Cu612  O647    1.973   .     S
Cu612  O642    1.971   .     S
Cu612  N640    2.031   .     S
Cu612  O916    1.990   1_545 S
Cu612  O917    1.988   1_545 S
H613   C716    1.064   .     S
H624   C717    1.064   1_455 S
H630   C718    1.082   .     S
H631   C719    1.082   1_455 S
N637   C682    1.385   1_455 A
N637   C684    1.371   1_455 A
N639   C824    1.371   1_545 S
N640   C821    1.385   1_545 A
O644   Cu884   1.990   .     S
O645   Cu884   1.988   .     S
O648   Cu883   1.973   .     S
O652   Cu746   1.971   .     S
O663   Cu745   1.990   .     S
O676   Cu746   1.988   .     S
O679   Cu745   1.973   .     S
O680   Cu883   1.971   .     S
C681   O810    1.303   .     A
C681   O777    1.308   .     A
C681   C710    1.482   .     S
C682   N637    1.385   1_655 A
C682   C717    1.497   .     S
C682   C1091   1.435   1_655 S
C683   C718    1.475   .     S
C683   N774    1.371   .     A
C684   C719    1.475   .     S
C684   N637    1.371   1_655 A
C684   C1152   1.435   1_655 S
C685   N1048   1.385   .     A
C685   C720    1.497   .     S
C686   C721    1.497   .     S
C686   N775    1.385   .     A
C686   C1231   1.435   .     S
C687   C722    1.475   .     S
C687   N776    1.371   .     S
C688   C723    1.475   .     S
C688   C1229   1.435   .     S
C688   N1047   1.371   .     S
C689   C724    1.482   .     S
C689   C700    1.401   .     A
C689   C708    1.419   .     A
C690   C707    1.419   .     A
C690   C726    1.482   .     S
C690   C701    1.401   .     A
C691   C698    1.401   .     A
C691   C727    1.490   .     S
C691   C707    1.413   .     A
C692   C709    1.482   .     S
C692   O788    1.308   .     A
C692   O799    1.303   .     A
C693   C708    1.413   .     A
C693   C699    1.401   .     A
C693   C728    1.490   .     S
C694   C729    1.492   .     S
C694   C710    1.415   .     A
C694   C705    1.402   .     A
C695   C730    1.493   .     S
C695   C709    1.415   .     A
C695   C706    1.402   .     A
C696   C731    1.483   .     S
C696   C709    1.419   .     A
C696   C702    1.402   .     A
C697   C710    1.419   .     A
C697   C732    1.483   .     S
C697   C704    1.402   .     A
C698   C733    1.482   .     S
C698   C712    1.419   .     A
C699   C711    1.419   .     A
C699   C734    1.482   .     S
C700   C735    1.490   .     S
C700   C711    1.413   .     A
C701   C712    1.413   .     A
C701   C737    1.490   .     S
C702   C715    1.415   .     A
C702   C738    1.493   .     S
C703   C708    1.479   .     S
C703   O815    1.310   .     A
C703   O812    1.299   .     A
C704   C713    1.415   .     A
C704   C739    1.493   .     S
C705   C740    1.483   .     S
C705   C713    1.419   .     A
C706   C741    1.483   .     S
C706   C715    1.419   .     A
C707   C714    1.479   .     S
C711   C743    1.479   .     S
C712   C742    1.479   .     S
C713   C736    1.482   .     S
C714   O814    1.310   .     A
C714   O813    1.299   .     A
C715   C725    1.482   .     S
C716   O785    1.220   .     D
C716   C744    1.497   .     S
C717   O786    1.220   .     D
C717   H624    1.064   1_655 S
C718   O787    1.221   .     D
C719   O789    1.221   .     D
C719   H631    1.082   1_655 S
C720   O790    1.220   .     D
C720   H768    1.064   .     S
C721   H769    1.064   .     S
C721   O791    1.220   .     D
C722   O792    1.221   .     D
C722   H770    1.082   .     S
C723   H771    1.082   .     S
C723   O793    1.221   .     D
C724   H772    1.084   .     S
C724   O794    1.221   .     D
C725   O816    1.308   .     A
C725   O780    1.303   .     A
C726   O795    1.221   .     D
C726   H750    1.084   .     S
C727   O796    1.220   .     D
C727   H751    1.085   .     S
C728   H752    1.085   .     S
C728   O797    1.220   .     D
C729   O798    1.221   .     D
C729   H753    1.085   .     S
C730   O800    1.221   .     D
C730   H754    1.085   .     S
C731   O801    1.220   .     D
C731   H755    1.082   .     S
C732   O802    1.220   .     D
C732   H756    1.082   .     S
C733   O803    1.221   .     D
C733   H757    1.084   .     S
C734   O804    1.221   .     D
C734   H758    1.084   .     S
C735   O805    1.220   .     D
C735   H759    1.085   .     S
C736   O778    1.308   .     A
C736   O779    1.303   .     A
C737   O806    1.220   .     D
C737   H761    1.085   .     S
C738   O807    1.221   .     D
C738   H762    1.085   .     S
C739   H763    1.085   .     S
C739   O808    1.221   .     D
C740   O809    1.220   .     D
C740   H764    1.082   .     S
C741   H765    1.082   .     S
C741   O811    1.220   .     D
C742   O781    1.299   .     A
C742   O784    1.310   .     A
C743   O782    1.299   .     A
C743   O783    1.310   .     A
C744   N774    1.384   .     A
Cu745  N773    2.031   .     S
Cu745  Cu746   2.703   .     S
Cu745  O777    1.971   .     S
Cu745  O813    1.988   .     S
Cu746  O814    1.973   .     S
Cu746  N774    2.031   .     S
Cu746  O810    1.990   .     S
Cu747  O779    1.990   .     S
Cu747  N775    2.031   .     S
Cu747  Cu748   2.703   .     S
Cu747  O782    1.988   .     S
Cu747  O1056   1.973   1_545 S
Cu747  O1088   1.971   1_545 S
Cu748  O783    1.973   .     S
Cu748  O778    1.971   .     S
Cu748  N776    2.031   .     S
Cu748  O1052   1.990   1_545 S
Cu748  O1053   1.988   1_545 S
H749   C580    1.064   1_655 S
H766   C582    1.082   1_655 S
N775   C960    1.371   1_545 S
N776   C957    1.385   1_545 A
O780   Cu1020  1.990   .     S
O781   Cu1020  1.988   .     S
O784   Cu1019  1.973   .     S
O788   Cu610   1.971   1_655 S
O799   Cu609   1.990   1_655 S
O812   Cu610   1.988   1_655 S
O815   Cu609   1.973   1_655 S
O816   Cu1019  1.971   .     S
C817   O946    1.303   .     A
C817   O913    1.308   .     A
C817   C846    1.482   .     S
C818   N1045   1.385   .     A
C818   C853    1.497   .     S
C818   C1499   1.435   .     S
C819   C854    1.475   .     S
C819   N910    1.371   .     A
C819   C410    1.435   1_455 S
C820   C855    1.475   .     S
C820   N1045   1.371   .     A
C820   C1560   1.435   .     S
C821   N640    1.385   1_565 A
C821   C856    1.497   .     S
C822   C857    1.497   .     S
C822   N911    1.385   .     A
C822   C1367   1.435   .     S
C823   C858    1.475   .     S
C823   N912    1.371   .     S
C824   C859    1.475   .     S
C824   C1365   1.435   .     S
C824   N639    1.371   1_565 S
C825   C860    1.482   .     S
C825   C836    1.401   .     A
C825   C844    1.419   .     A
C826   C843    1.419   .     A
C826   C862    1.482   .     S
C826   C837    1.401   .     A
C827   C834    1.401   .     A
C827   C863    1.490   .     S
C827   C843    1.413   .     A
C828   C845    1.482   .     S
C828   O924    1.308   .     A
C828   O935    1.303   .     A
C829   C844    1.413   .     A
C829   C835    1.401   .     A
C829   C864    1.490   .     S
C830   C865    1.492   .     S
C830   C846    1.415   .     A
C830   C841    1.402   .     A
C831   C866    1.493   .     S
C831   C845    1.415   .     A
C831   C842    1.402   .     A
C832   C867    1.483   .     S
C832   C845    1.419   .     A
C832   C838    1.402   .     A
C833   C846    1.419   .     A
C833   C868    1.483   .     S
C833   C840    1.402   .     A
C834   C869    1.482   .     S
C834   C848    1.419   .     A
C835   C847    1.419   .     A
C835   C870    1.482   .     S
C836   C871    1.490   .     S
C836   C847    1.413   .     A
C837   C848    1.413   .     A
C837   C873    1.490   .     S
C838   C851    1.415   .     A
C838   C874    1.493   .     S
C839   C844    1.479   .     S
C839   O951    1.310   .     A
C839   O948    1.299   .     A
C840   C849    1.415   .     A
C840   C875    1.493   .     S
C841   C876    1.483   .     S
C841   C849    1.419   .     A
C842   C877    1.483   .     S
C842   C851    1.419   .     A
C843   C850    1.479   .     S
C847   C879    1.479   .     S
C848   C878    1.479   .     S
C849   C872    1.482   .     S
C850   O950    1.310   .     A
C850   O949    1.299   .     A
C851   C861    1.482   .     S
C852   O921    1.220   .     D
C852   C880    1.497   .     S
C852   H1021   1.064   1_455 S
C853   O922    1.220   .     D
C853   H1032   1.064   .     S
C854   O923    1.221   .     D
C854   H1038   1.082   1_455 S
C855   O925    1.221   .     D
C855   H1039   1.082   .     S
C856   O926    1.220   .     D
C856   H904    1.064   .     S
C857   H905    1.064   .     S
C857   O927    1.220   .     D
C858   O928    1.221   .     D
C858   H906    1.082   .     S
C859   H907    1.082   .     S
C859   O929    1.221   .     D
C860   H908    1.084   .     S
C860   O930    1.221   .     D
C861   O952    1.308   .     A
C861   O916    1.303   .     A
C862   O931    1.221   .     D
C862   H886    1.084   .     S
C863   O932    1.220   .     D
C863   H887    1.085   .     S
C864   H888    1.085   .     S
C864   O933    1.220   .     D
C865   O934    1.221   .     D
C865   H889    1.085   .     S
C866   O936    1.221   .     D
C866   H890    1.085   .     S
C867   O937    1.220   .     D
C867   H891    1.082   .     S
C868   O938    1.220   .     D
C868   H892    1.082   .     S
C869   O939    1.221   .     D
C869   H893    1.084   .     S
C870   O940    1.221   .     D
C870   H894    1.084   .     S
C871   O941    1.220   .     D
C871   H895    1.085   .     S
C872   O914    1.308   .     A
C872   O915    1.303   .     A
C873   O942    1.220   .     D
C873   H897    1.085   .     S
C874   O943    1.221   .     D
C874   H898    1.085   .     S
C875   H899    1.085   .     S
C875   O944    1.221   .     D
C876   O945    1.220   .     D
C876   H900    1.082   .     S
C877   H901    1.082   .     S
C877   O947    1.220   .     D
C878   O917    1.299   .     A
C878   O920    1.310   .     A
C879   O918    1.299   .     A
C879   O919    1.310   .     A
C880   N910    1.384   .     A
C880   C412    1.435   1_455 S
Cu881  N909    2.031   .     S
Cu881  O1071   1.990   1_455 S
Cu881  O1087   1.973   1_455 S
Cu881  Cu882   2.703   .     S
Cu881  O913    1.971   .     S
Cu881  O949    1.988   .     S
Cu882  O950    1.973   .     S
Cu882  N910    2.031   .     S
Cu882  O946    1.990   .     S
Cu882  O1060   1.971   1_455 S
Cu882  O1084   1.988   1_455 S
Cu883  O915    1.990   .     S
Cu883  N911    2.031   .     S
Cu883  Cu884   2.703   .     S
Cu883  O918    1.988   .     S
Cu884  O919    1.973   .     S
Cu884  O914    1.971   .     S
Cu884  N912    2.031   .     S
H885   C988    1.064   .     S
H896   C989    1.064   1_455 S
H902   C990    1.082   .     S
H903   C991    1.082   1_455 S
N909   C954    1.385   1_455 A
N909   C956    1.371   1_455 A
O916   Cu612   1.990   1_565 S
O917   Cu612   1.988   1_565 S
O920   Cu611   1.973   1_565 S
O924   Cu1018  1.971   .     S
O935   Cu1017  1.990   .     S
O948   Cu1018  1.988   .     S
O951   Cu1017  1.973   .     S
O952   Cu611   1.971   1_565 S
C953   O1082   1.303   .     A
C953   O1049   1.308   .     A
C953   C982    1.482   .     S
C954   N909    1.385   1_655 A
C954   C989    1.497   .     S
C954   C1363   1.435   1_655 S
C955   C990    1.475   .     S
C955   N1046   1.371   .     A
C956   C991    1.475   .     S
C956   N909    1.371   1_655 A
C956   C1424   1.435   1_655 S
C957   N776    1.385   1_565 A
C957   C992    1.497   .     S
C958   C993    1.497   .     S
C958   N1047   1.385   .     A
C958   C1503   1.435   .     S
C959   C994    1.475   .     S
C959   N1048   1.371   .     S
C960   C995    1.475   .     S
C960   C1501   1.435   .     S
C960   N775    1.371   1_565 S
C961   C996    1.482   .     S
C961   C972    1.401   .     A
C961   C980    1.419   .     A
C962   C979    1.419   .     A
C962   C998    1.482   .     S
C962   C973    1.401   .     A
C963   C970    1.401   .     A
C963   C999    1.490   .     S
C963   C979    1.413   .     A
C964   C981    1.482   .     S
C964   O1060   1.308   .     A
C964   O1071   1.303   .     A
C965   C980    1.413   .     A
C965   C971    1.401   .     A
C965   C1000   1.490   .     S
C966   C1001   1.492   .     S
C966   C982    1.415   .     A
C966   C977    1.402   .     A
C967   C1002   1.493   .     S
C967   C981    1.415   .     A
C967   C978    1.402   .     A
C968   C1003   1.483   .     S
C968   C981    1.419   .     A
C968   C974    1.402   .     A
C969   C982    1.419   .     A
C969   C1004   1.483   .     S
C969   C976    1.402   .     A
C970   C1005   1.482   .     S
C970   C984    1.419   .     A
C971   C983    1.419   .     A
C971   C1006   1.482   .     S
C972   C1007   1.490   .     S
C972   C983    1.413   .     A
C973   C984    1.413   .     A
C973   C1009   1.490   .     S
C974   C987    1.415   .     A
C974   C1010   1.493   .     S
C975   C980    1.479   .     S
C975   O1087   1.310   .     A
C975   O1084   1.299   .     A
C976   C985    1.415   .     A
C976   C1011   1.493   .     S
C977   C1012   1.483   .     S
C977   C985    1.419   .     A
C978   C1013   1.483   .     S
C978   C987    1.419   .     A
C979   C986    1.479   .     S
C983   C1015   1.479   .     S
C984   C1014   1.479   .     S
C985   C1008   1.482   .     S
C986   O1086   1.310   .     A
C986   O1085   1.299   .     A
C987   C997    1.482   .     S
C988   O1057   1.220   .     D
C988   C1016   1.497   .     S
C989   O1058   1.220   .     D
C989   H896    1.064   1_655 S
C990   O1059   1.221   .     D
C991   O1061   1.221   .     D
C991   H903    1.082   1_655 S
C992   O1062   1.220   .     D
C992   H1040   1.064   .     S
C993   H1041   1.064   .     S
C993   O1063   1.220   .     D
C994   O1064   1.221   .     D
C994   H1042   1.082   .     S
C995   H1043   1.082   .     S
C995   O1065   1.221   .     D
C996   H1044   1.084   .     S
C996   O1066   1.221   .     D
C997   O1088   1.308   .     A
C997   O1052   1.303   .     A
C998   O1067   1.221   .     D
C998   H1022   1.084   .     S
C999   O1068   1.220   .     D
C999   H1023   1.085   .     S
C1000  H1024   1.085   .     S
C1000  O1069   1.220   .     D
C1001  O1070   1.221   .     D
C1001  H1025   1.085   .     S
C1002  O1072   1.221   .     D
C1002  H1026   1.085   .     S
C1003  O1073   1.220   .     D
C1003  H1027   1.082   .     S
C1004  O1074   1.220   .     D
C1004  H1028   1.082   .     S
C1005  O1075   1.221   .     D
C1005  H1029   1.084   .     S
C1006  O1076   1.221   .     D
C1006  H1030   1.084   .     S
C1007  O1077   1.220   .     D
C1007  H1031   1.085   .     S
C1008  O1050   1.308   .     A
C1008  O1051   1.303   .     A
C1009  O1078   1.220   .     D
C1009  H1033   1.085   .     S
C1010  O1079   1.221   .     D
C1010  H1034   1.085   .     S
C1011  H1035   1.085   .     S
C1011  O1080   1.221   .     D
C1012  O1081   1.220   .     D
C1012  H1036   1.082   .     S
C1013  H1037   1.082   .     S
C1013  O1083   1.220   .     D
C1014  O1053   1.299   .     A
C1014  O1056   1.310   .     A
C1015  O1054   1.299   .     A
C1015  O1055   1.310   .     A
C1016  N1046   1.384   .     A
Cu1017 N1045   2.031   .     S
Cu1017 Cu1018  2.703   .     S
Cu1017 O1049   1.971   .     S
Cu1017 O1085   1.988   .     S
Cu1018 O1086   1.973   .     S
Cu1018 N1046   2.031   .     S
Cu1018 O1082   1.990   .     S
Cu1019 O1051   1.990   .     S
Cu1019 N1047   2.031   .     S
Cu1019 Cu1020  2.703   .     S
Cu1019 O1054   1.988   .     S
Cu1020 O1055   1.973   .     S
Cu1020 O1050   1.971   .     S
Cu1020 N1048   2.031   .     S
H1021  C852    1.064   1_655 S
H1038  C854    1.082   1_655 S
O1052  Cu748   1.990   1_565 S
O1053  Cu748   1.988   1_565 S
O1056  Cu747   1.973   1_565 S
O1060  Cu882   1.971   1_655 S
O1071  Cu881   1.990   1_655 S
O1084  Cu882   1.988   1_655 S
O1087  Cu881   1.973   1_655 S
O1088  Cu747   1.971   1_565 S
C1089  O1218   1.303   .     A
C1089  O1185   1.308   .     A
C1089  C1118   1.482   .     S
C1090  N1317   1.385   .     A
C1090  C1125   1.497   .     S
C1090  C139    1.435   1_556 S
C1091  C1126   1.475   .     S
C1091  N1182   1.371   .     A
C1091  C682    1.435   1_455 S
C1092  C1127   1.475   .     S
C1092  N1317   1.371   .     A
C1092  C200    1.435   1_556 S
C1093  N1456   1.385   .     A
C1093  C1128   1.497   .     S
C1094  C1129   1.497   .     S
C1094  N1183   1.385   .     A
C1094  C7      1.435   1_556 S
C1095  C1130   1.475   .     S
C1095  N1184   1.371   .     S
C1096  C1131   1.475   .     S
C1096  C5      1.435   1_556 S
C1096  N1455   1.371   .     S
C1097  C1132   1.482   .     S
C1097  C1108   1.401   .     A
C1097  C1116   1.419   .     A
C1098  C1115   1.419   .     A
C1098  C1134   1.482   .     S
C1098  C1109   1.401   .     A
C1099  C1106   1.401   .     A
C1099  C1135   1.490   .     S
C1099  C1115   1.413   .     A
C1100  C1117   1.482   .     S
C1100  O1196   1.308   .     A
C1100  O1207   1.303   .     A
C1101  C1116   1.413   .     A
C1101  C1107   1.401   .     A
C1101  C1136   1.490   .     S
C1102  C1137   1.492   .     S
C1102  C1118   1.415   .     A
C1102  C1113   1.402   .     A
C1103  C1138   1.493   .     S
C1103  C1117   1.415   .     A
C1103  C1114   1.402   .     A
C1104  C1139   1.483   .     S
C1104  C1117   1.419   .     A
C1104  C1110   1.402   .     A
C1105  C1118   1.419   .     A
C1105  C1140   1.483   .     S
C1105  C1112   1.402   .     A
C1106  C1141   1.482   .     S
C1106  C1120   1.419   .     A
C1107  C1119   1.419   .     A
C1107  C1142   1.482   .     S
C1108  C1143   1.490   .     S
C1108  C1119   1.413   .     A
C1109  C1120   1.413   .     A
C1109  C1145   1.490   .     S
C1110  C1123   1.415   .     A
C1110  C1146   1.493   .     S
C1111  C1116   1.479   .     S
C1111  O1223   1.310   .     A
C1111  O1220   1.299   .     A
C1112  C1121   1.415   .     A
C1112  C1147   1.493   .     S
C1113  C1148   1.483   .     S
C1113  C1121   1.419   .     A
C1114  C1149   1.483   .     S
C1114  C1123   1.419   .     A
C1115  C1122   1.479   .     S
C1119  C1151   1.479   .     S
C1120  C1150   1.479   .     S
C1121  C1144   1.482   .     S
C1122  O1222   1.310   .     A
C1122  O1221   1.299   .     A
C1123  C1133   1.482   .     S
C1124  O1193   1.220   .     D
C1124  C1152   1.497   .     S
C1124  H1293   1.064   1_455 S
C1125  O1194   1.220   .     D
C1125  H1304   1.064   .     S
C1126  O1195   1.221   .     D
C1126  H1310   1.082   1_455 S
C1127  O1197   1.221   .     D
C1127  H1311   1.082   .     S
C1128  O1198   1.220   .     D
C1128  H1176   1.064   .     S
C1129  H1177   1.064   .     S
C1129  O1199   1.220   .     D
C1130  O1200   1.221   .     D
C1130  H1178   1.082   .     S
C1131  H1179   1.082   .     S
C1131  O1201   1.221   .     D
C1132  H1180   1.084   .     S
C1132  O1202   1.221   .     D
C1133  O1224   1.308   .     A
C1133  O1188   1.303   .     A
C1134  O1203   1.221   .     D
C1134  H1158   1.084   .     S
C1135  O1204   1.220   .     D
C1135  H1159   1.085   .     S
C1136  H1160   1.085   .     S
C1136  O1205   1.220   .     D
C1137  O1206   1.221   .     D
C1137  H1161   1.085   .     S
C1138  O1208   1.221   .     D
C1138  H1162   1.085   .     S
C1139  O1209   1.220   .     D
C1139  H1163   1.082   .     S
C1140  O1210   1.220   .     D
C1140  H1164   1.082   .     S
C1141  O1211   1.221   .     D
C1141  H1165   1.084   .     S
C1142  O1212   1.221   .     D
C1142  H1166   1.084   .     S
C1143  O1213   1.220   .     D
C1143  H1167   1.085   .     S
C1144  O1186   1.308   .     A
C1144  O1187   1.303   .     A
C1145  O1214   1.220   .     D
C1145  H1169   1.085   .     S
C1146  O1215   1.221   .     D
C1146  H1170   1.085   .     S
C1147  H1171   1.085   .     S
C1147  O1216   1.221   .     D
C1148  O1217   1.220   .     D
C1148  H1172   1.082   .     S
C1149  H1173   1.082   .     S
C1149  O1219   1.220   .     D
C1150  O1189   1.299   .     A
C1150  O1192   1.310   .     A
C1151  O1190   1.299   .     A
C1151  O1191   1.310   .     A
C1152  N1182   1.384   .     A
C1152  C684    1.435   1_455 S
Cu1153 N1181   2.031   .     S
Cu1153 O1343   1.990   1_455 S
Cu1153 O1359   1.973   1_455 S
Cu1153 Cu1154  2.703   .     S
Cu1153 O1185   1.971   .     S
Cu1153 O1221   1.988   .     S
Cu1154 O1222   1.973   .     S
Cu1154 N1182   2.031   .     S
Cu1154 O1218   1.990   .     S
Cu1154 O1332   1.971   1_455 S
Cu1154 O1356   1.988   1_455 S
Cu1155 O1187   1.990   .     S
Cu1155 N1183   2.031   .     S
Cu1155 Cu1156  2.703   .     S
Cu1155 O1190   1.988   .     S
Cu1155 O1464   1.973   1_545 S
Cu1155 O1496   1.971   1_545 S
Cu1156 O1191   1.973   .     S
Cu1156 O1186   1.971   .     S
Cu1156 N1184   2.031   .     S
Cu1156 O1460   1.990   1_545 S
Cu1156 O1461   1.988   1_545 S
H1157  C1260   1.064   .     S
H1168  C1261   1.064   1_455 S
H1174  C1262   1.082   .     S
H1175  C1263   1.082   1_455 S
N1181  C1226   1.385   1_455 A
N1181  C1228   1.371   1_455 A
N1183  C1368   1.371   1_545 S
N1184  C1365   1.385   1_545 A
O1188  Cu1428  1.990   .     S
O1189  Cu1428  1.988   .     S
O1192  Cu1427  1.973   .     S
O1196  Cu1290  1.971   .     S
O1207  Cu1289  1.990   .     S
O1220  Cu1290  1.988   .     S
O1223  Cu1289  1.973   .     S
O1224  Cu1427  1.971   .     S
C1225  O1354   1.303   .     A
C1225  O1321   1.308   .     A
C1225  C1254   1.482   .     S
C1226  N1181   1.385   1_655 A
C1226  C1261   1.497   .     S
C1226  C3      1.435   1_656 S
C1227  C1262   1.475   .     S
C1227  N1318   1.371   .     A
C1228  C1263   1.475   .     S
C1228  N1181   1.371   1_655 A
C1228  C64     1.435   1_656 S
C1229  N1592   1.385   .     A
C1229  C1264   1.497   .     S
C1230  C1265   1.497   .     S
C1230  N1319   1.385   .     A
C1230  C143    1.435   1_556 S
C1231  C1266   1.475   .     S
C1231  N1320   1.371   .     S
C1232  C1267   1.475   .     S
C1232  C141    1.435   1_556 S
C1232  N1591   1.371   .     S
C1233  C1268   1.482   .     S
C1233  C1244   1.401   .     A
C1233  C1252   1.419   .     A
C1234  C1251   1.419   .     A
C1234  C1270   1.482   .     S
C1234  C1245   1.401   .     A
C1235  C1242   1.401   .     A
C1235  C1271   1.490   .     S
C1235  C1251   1.413   .     A
C1236  C1253   1.482   .     S
C1236  O1332   1.308   .     A
C1236  O1343   1.303   .     A
C1237  C1252   1.413   .     A
C1237  C1243   1.401   .     A
C1237  C1272   1.490   .     S
C1238  C1273   1.492   .     S
C1238  C1254   1.415   .     A
C1238  C1249   1.402   .     A
C1239  C1274   1.493   .     S
C1239  C1253   1.415   .     A
C1239  C1250   1.402   .     A
C1240  C1275   1.483   .     S
C1240  C1253   1.419   .     A
C1240  C1246   1.402   .     A
C1241  C1254   1.419   .     A
C1241  C1276   1.483   .     S
C1241  C1248   1.402   .     A
C1242  C1277   1.482   .     S
C1242  C1256   1.419   .     A
C1243  C1255   1.419   .     A
C1243  C1278   1.482   .     S
C1244  C1279   1.490   .     S
C1244  C1255   1.413   .     A
C1245  C1256   1.413   .     A
C1245  C1281   1.490   .     S
C1246  C1259   1.415   .     A
C1246  C1282   1.493   .     S
C1247  C1252   1.479   .     S
C1247  O1359   1.310   .     A
C1247  O1356   1.299   .     A
C1248  C1257   1.415   .     A
C1248  C1283   1.493   .     S
C1249  C1284   1.483   .     S
C1249  C1257   1.419   .     A
C1250  C1285   1.483   .     S
C1250  C1259   1.419   .     A
C1251  C1258   1.479   .     S
C1255  C1287   1.479   .     S
C1256  C1286   1.479   .     S
C1257  C1280   1.482   .     S
C1258  O1358   1.310   .     A
C1258  O1357   1.299   .     A
C1259  C1269   1.482   .     S
C1260  O1329   1.220   .     D
C1260  C1288   1.497   .     S
C1261  O1330   1.220   .     D
C1261  H1168   1.064   1_655 S
C1262  O1331   1.221   .     D
C1263  O1333   1.221   .     D
C1263  H1175   1.082   1_655 S
C1264  O1334   1.220   .     D
C1264  H1312   1.064   .     S
C1265  H1313   1.064   .     S
C1265  O1335   1.220   .     D
C1266  O1336   1.221   .     D
C1266  H1314   1.082   .     S
C1267  H1315   1.082   .     S
C1267  O1337   1.221   .     D
C1268  H1316   1.084   .     S
C1268  O1338   1.221   .     D
C1269  O1360   1.308   .     A
C1269  O1324   1.303   .     A
C1270  O1339   1.221   .     D
C1270  H1294   1.084   .     S
C1271  O1340   1.220   .     D
C1271  H1295   1.085   .     S
C1272  H1296   1.085   .     S
C1272  O1341   1.220   .     D
C1273  O1342   1.221   .     D
C1273  H1297   1.085   .     S
C1274  O1344   1.221   .     D
C1274  H1298   1.085   .     S
C1275  O1345   1.220   .     D
C1275  H1299   1.082   .     S
C1276  O1346   1.220   .     D
C1276  H1300   1.082   .     S
C1277  O1347   1.221   .     D
C1277  H1301   1.084   .     S
C1278  O1348   1.221   .     D
C1278  H1302   1.084   .     S
C1279  O1349   1.220   .     D
C1279  H1303   1.085   .     S
C1280  O1322   1.308   .     A
C1280  O1323   1.303   .     A
C1281  O1350   1.220   .     D
C1281  H1305   1.085   .     S
C1282  O1351   1.221   .     D
C1282  H1306   1.085   .     S
C1283  H1307   1.085   .     S
C1283  O1352   1.221   .     D
C1284  O1353   1.220   .     D
C1284  H1308   1.082   .     S
C1285  H1309   1.082   .     S
C1285  O1355   1.220   .     D
C1286  O1325   1.299   .     A
C1286  O1328   1.310   .     A
C1287  O1326   1.299   .     A
C1287  O1327   1.310   .     A
C1288  N1318   1.384   .     A
Cu1289 N1317   2.031   .     S
Cu1289 Cu1290  2.703   .     S
Cu1289 O1321   1.971   .     S
Cu1289 O1357   1.988   .     S
Cu1290 O1358   1.973   .     S
Cu1290 N1318   2.031   .     S
Cu1290 O1354   1.990   .     S
Cu1291 O1323   1.990   .     S
Cu1291 N1319   2.031   .     S
Cu1291 Cu1292  2.703   .     S
Cu1291 O1326   1.988   .     S
Cu1291 O1600   1.973   1_545 S
Cu1291 O1632   1.971   1_545 S
Cu1292 O1327   1.973   .     S
Cu1292 O1322   1.971   .     S
Cu1292 N1320   2.031   .     S
Cu1292 O1596   1.990   1_545 S
Cu1292 O1597   1.988   1_545 S
H1293  C1124   1.064   1_655 S
H1310  C1126   1.082   1_655 S
N1319  C1504   1.371   1_545 S
N1320  C1501   1.385   1_545 A
O1324  Cu1564  1.990   .     S
O1325  Cu1564  1.988   .     S
O1328  Cu1563  1.973   .     S
O1332  Cu1154  1.971   1_655 S
O1343  Cu1153  1.990   1_655 S
O1356  Cu1154  1.988   1_655 S
O1359  Cu1153  1.973   1_655 S
O1360  Cu1563  1.971   .     S
C1361  O1490   1.303   .     A
C1361  O1457   1.308   .     A
C1361  C1390   1.482   .     S
C1362  N1589   1.385   .     A
C1362  C1397   1.497   .     S
C1362  C411    1.435   1_556 S
C1363  C1398   1.475   .     S
C1363  N1454   1.371   .     A
C1363  C954    1.435   1_455 S
C1364  C1399   1.475   .     S
C1364  N1589   1.371   .     A
C1364  C472    1.435   1_556 S
C1365  N1184   1.385   1_565 A
C1365  C1400   1.497   .     S
C1366  C1401   1.497   .     S
C1366  N1455   1.385   .     A
C1366  C279    1.435   1_556 S
C1367  C1402   1.475   .     S
C1367  N1456   1.371   .     S
C1368  C1403   1.475   .     S
C1368  C277    1.435   1_556 S
C1368  N1183   1.371   1_565 S
C1369  C1404   1.482   .     S
C1369  C1380   1.401   .     A
C1369  C1388   1.419   .     A
C1370  C1387   1.419   .     A
C1370  C1406   1.482   .     S
C1370  C1381   1.401   .     A
C1371  C1378   1.401   .     A
C1371  C1407   1.490   .     S
C1371  C1387   1.413   .     A
C1372  C1389   1.482   .     S
C1372  O1468   1.308   .     A
C1372  O1479   1.303   .     A
C1373  C1388   1.413   .     A
C1373  C1379   1.401   .     A
C1373  C1408   1.490   .     S
C1374  C1409   1.492   .     S
C1374  C1390   1.415   .     A
C1374  C1385   1.402   .     A
C1375  C1410   1.493   .     S
C1375  C1389   1.415   .     A
C1375  C1386   1.402   .     A
C1376  C1411   1.483   .     S
C1376  C1389   1.419   .     A
C1376  C1382   1.402   .     A
C1377  C1390   1.419   .     A
C1377  C1412   1.483   .     S
C1377  C1384   1.402   .     A
C1378  C1413   1.482   .     S
C1378  C1392   1.419   .     A
C1379  C1391   1.419   .     A
C1379  C1414   1.482   .     S
C1380  C1415   1.490   .     S
C1380  C1391   1.413   .     A
C1381  C1392   1.413   .     A
C1381  C1417   1.490   .     S
C1382  C1395   1.415   .     A
C1382  C1418   1.493   .     S
C1383  C1388   1.479   .     S
C1383  O1495   1.310   .     A
C1383  O1492   1.299   .     A
C1384  C1393   1.415   .     A
C1384  C1419   1.493   .     S
C1385  C1420   1.483   .     S
C1385  C1393   1.419   .     A
C1386  C1421   1.483   .     S
C1386  C1395   1.419   .     A
C1387  C1394   1.479   .     S
C1391  C1423   1.479   .     S
C1392  C1422   1.479   .     S
C1393  C1416   1.482   .     S
C1394  O1494   1.310   .     A
C1394  O1493   1.299   .     A
C1395  C1405   1.482   .     S
C1396  O1465   1.220   .     D
C1396  C1424   1.497   .     S
C1396  H1565   1.064   1_455 S
C1397  O1466   1.220   .     D
C1397  H1576   1.064   .     S
C1398  O1467   1.221   .     D
C1398  H1582   1.082   1_455 S
C1399  O1469   1.221   .     D
C1399  H1583   1.082   .     S
C1400  O1470   1.220   .     D
C1400  H1448   1.064   .     S
C1401  H1449   1.064   .     S
C1401  O1471   1.220   .     D
C1402  O1472   1.221   .     D
C1402  H1450   1.082   .     S
C1403  H1451   1.082   .     S
C1403  O1473   1.221   .     D
C1404  H1452   1.084   .     S
C1404  O1474   1.221   .     D
C1405  O1496   1.308   .     A
C1405  O1460   1.303   .     A
C1406  O1475   1.221   .     D
C1406  H1430   1.084   .     S
C1407  O1476   1.220   .     D
C1407  H1431   1.085   .     S
C1408  H1432   1.085   .     S
C1408  O1477   1.220   .     D
C1409  O1478   1.221   .     D
C1409  H1433   1.085   .     S
C1410  O1480   1.221   .     D
C1410  H1434   1.085   .     S
C1411  O1481   1.220   .     D
C1411  H1435   1.082   .     S
C1412  O1482   1.220   .     D
C1412  H1436   1.082   .     S
C1413  O1483   1.221   .     D
C1413  H1437   1.084   .     S
C1414  O1484   1.221   .     D
C1414  H1438   1.084   .     S
C1415  O1485   1.220   .     D
C1415  H1439   1.085   .     S
C1416  O1458   1.308   .     A
C1416  O1459   1.303   .     A
C1417  O1486   1.220   .     D
C1417  H1441   1.085   .     S
C1418  O1487   1.221   .     D
C1418  H1442   1.085   .     S
C1419  H1443   1.085   .     S
C1419  O1488   1.221   .     D
C1420  O1489   1.220   .     D
C1420  H1444   1.082   .     S
C1421  H1445   1.082   .     S
C1421  O1491   1.220   .     D
C1422  O1461   1.299   .     A
C1422  O1464   1.310   .     A
C1423  O1462   1.299   .     A
C1423  O1463   1.310   .     A
C1424  N1454   1.384   .     A
C1424  C956    1.435   1_455 S
Cu1425 N1453   2.031   .     S
Cu1425 O1615   1.990   1_455 S
Cu1425 O1631   1.973   1_455 S
Cu1425 Cu1426  2.703   .     S
Cu1425 O1457   1.971   .     S
Cu1425 O1493   1.988   .     S
Cu1426 O1494   1.973   .     S
Cu1426 N1454   2.031   .     S
Cu1426 O1490   1.990   .     S
Cu1426 O1604   1.971   1_455 S
Cu1426 O1628   1.988   1_455 S
Cu1427 O1459   1.990   .     S
Cu1427 N1455   2.031   .     S
Cu1427 Cu1428  2.703   .     S
Cu1427 O1462   1.988   .     S
Cu1428 O1463   1.973   .     S
Cu1428 O1458   1.971   .     S
Cu1428 N1456   2.031   .     S
H1429  C1532   1.064   .     S
H1440  C1533   1.064   1_455 S
H1446  C1534   1.082   .     S
H1447  C1535   1.082   1_455 S
N1453  C1498   1.385   1_455 A
N1453  C1500   1.371   1_455 A
O1460  Cu1156  1.990   1_565 S
O1461  Cu1156  1.988   1_565 S
O1464  Cu1155  1.973   1_565 S
O1468  Cu1562  1.971   .     S
O1479  Cu1561  1.990   .     S
O1492  Cu1562  1.988   .     S
O1495  Cu1561  1.973   .     S
O1496  Cu1155  1.971   1_565 S
C1497  O1626   1.303   .     A
C1497  O1593   1.308   .     A
C1497  C1526   1.482   .     S
C1498  N1453   1.385   1_655 A
C1498  C1533   1.497   .     S
C1498  C275    1.435   1_656 S
C1499  C1534   1.475   .     S
C1499  N1590   1.371   .     A
C1500  C1535   1.475   .     S
C1500  N1453   1.371   1_655 A
C1500  C336    1.435   1_656 S
C1501  N1320   1.385   1_565 A
C1501  C1536   1.497   .     S
C1502  C1537   1.497   .     S
C1502  N1591   1.385   .     A
C1502  C415    1.435   1_556 S
C1503  C1538   1.475   .     S
C1503  N1592   1.371   .     S
C1504  C1539   1.475   .     S
C1504  C413    1.435   1_556 S
C1504  N1319   1.371   1_565 S
C1505  C1540   1.482   .     S
C1505  C1516   1.401   .     A
C1505  C1524   1.419   .     A
C1506  C1523   1.419   .     A
C1506  C1542   1.482   .     S
C1506  C1517   1.401   .     A
C1507  C1514   1.401   .     A
C1507  C1543   1.490   .     S
C1507  C1523   1.413   .     A
C1508  C1525   1.482   .     S
C1508  O1604   1.308   .     A
C1508  O1615   1.303   .     A
C1509  C1524   1.413   .     A
C1509  C1515   1.401   .     A
C1509  C1544   1.490   .     S
C1510  C1545   1.492   .     S
C1510  C1526   1.415   .     A
C1510  C1521   1.402   .     A
C1511  C1546   1.493   .     S
C1511  C1525   1.415   .     A
C1511  C1522   1.402   .     A
C1512  C1547   1.483   .     S
C1512  C1525   1.419   .     A
C1512  C1518   1.402   .     A
C1513  C1526   1.419   .     A
C1513  C1548   1.483   .     S
C1513  C1520   1.402   .     A
C1514  C1549   1.482   .     S
C1514  C1528   1.419   .     A
C1515  C1527   1.419   .     A
C1515  C1550   1.482   .     S
C1516  C1551   1.490   .     S
C1516  C1527   1.413   .     A
C1517  C1528   1.413   .     A
C1517  C1553   1.490   .     S
C1518  C1531   1.415   .     A
C1518  C1554   1.493   .     S
C1519  C1524   1.479   .     S
C1519  O1631   1.310   .     A
C1519  O1628   1.299   .     A
C1520  C1529   1.415   .     A
C1520  C1555   1.493   .     S
C1521  C1556   1.483   .     S
C1521  C1529   1.419   .     A
C1522  C1557   1.483   .     S
C1522  C1531   1.419   .     A
C1523  C1530   1.479   .     S
C1527  C1559   1.479   .     S
C1528  C1558   1.479   .     S
C1529  C1552   1.482   .     S
C1530  O1630   1.310   .     A
C1530  O1629   1.299   .     A
C1531  C1541   1.482   .     S
C1532  O1601   1.220   .     D
C1532  C1560   1.497   .     S
C1533  O1602   1.220   .     D
C1533  H1440   1.064   1_655 S
C1534  O1603   1.221   .     D
C1535  O1605   1.221   .     D
C1535  H1447   1.082   1_655 S
C1536  O1606   1.220   .     D
C1536  H1584   1.064   .     S
C1537  H1585   1.064   .     S
C1537  O1607   1.220   .     D
C1538  O1608   1.221   .     D
C1538  H1586   1.082   .     S
C1539  H1587   1.082   .     S
C1539  O1609   1.221   .     D
C1540  H1588   1.084   .     S
C1540  O1610   1.221   .     D
C1541  O1632   1.308   .     A
C1541  O1596   1.303   .     A
C1542  O1611   1.221   .     D
C1542  H1566   1.084   .     S
C1543  O1612   1.220   .     D
C1543  H1567   1.085   .     S
C1544  H1568   1.085   .     S
C1544  O1613   1.220   .     D
C1545  O1614   1.221   .     D
C1545  H1569   1.085   .     S
C1546  O1616   1.221   .     D
C1546  H1570   1.085   .     S
C1547  O1617   1.220   .     D
C1547  H1571   1.082   .     S
C1548  O1618   1.220   .     D
C1548  H1572   1.082   .     S
C1549  O1619   1.221   .     D
C1549  H1573   1.084   .     S
C1550  O1620   1.221   .     D
C1550  H1574   1.084   .     S
C1551  O1621   1.220   .     D
C1551  H1575   1.085   .     S
C1552  O1594   1.308   .     A
C1552  O1595   1.303   .     A
C1553  O1622   1.220   .     D
C1553  H1577   1.085   .     S
C1554  O1623   1.221   .     D
C1554  H1578   1.085   .     S
C1555  H1579   1.085   .     S
C1555  O1624   1.221   .     D
C1556  O1625   1.220   .     D
C1556  H1580   1.082   .     S
C1557  H1581   1.082   .     S
C1557  O1627   1.220   .     D
C1558  O1597   1.299   .     A
C1558  O1600   1.310   .     A
C1559  O1598   1.299   .     A
C1559  O1599   1.310   .     A
C1560  N1590   1.384   .     A
Cu1561 N1589   2.031   .     S
Cu1561 Cu1562  2.703   .     S
Cu1561 O1593   1.971   .     S
Cu1561 O1629   1.988   .     S
Cu1562 O1630   1.973   .     S
Cu1562 N1590   2.031   .     S
Cu1562 O1626   1.990   .     S
Cu1563 O1595   1.990   .     S
Cu1563 N1591   2.031   .     S
Cu1563 Cu1564  2.703   .     S
Cu1563 O1598   1.988   .     S
Cu1564 O1599   1.973   .     S
Cu1564 O1594   1.971   .     S
Cu1564 N1592   2.031   .     S
H1565  C1396   1.064   1_655 S
H1582  C1398   1.082   1_655 S
O1596  Cu1292  1.990   1_565 S
O1597  Cu1292  1.988   1_565 S
O1600  Cu1291  1.973   1_565 S
O1604  Cu1426  1.971   1_655 S
O1615  Cu1425  1.990   1_655 S
O1628  Cu1426  1.988   1_655 S
O1631  Cu1425  1.973   1_655 S
O1632  Cu1291  1.971   1_565 S
