data_str_m2_o10_o16_pcu_sym.151
_audit_creation_date              2020-01-03
_audit_creation_method            'Materials Studio'
_symmetry_space_group_name_H-M    'P1'
_symmetry_Int_Tables_number       1
_symmetry_cell_setting            triclinic
loop_
_symmetry_equiv_pos_as_xyz
  x,y,z
_cell_length_a                    22.6183
_cell_length_b                    26.0840
_cell_length_c                    27.0196
_cell_angle_alpha                 96.0794
_cell_angle_beta                  80.1291
_cell_angle_gamma                 101.9062
loop_
_atom_site_label
_atom_site_type_symbol
_atom_site_fract_x
_atom_site_fract_y
_atom_site_fract_z
_atom_site_U_iso_or_equiv
_atom_site_adp_type
_atom_site_occupancy
C1     C     0.18247   0.26611   0.24789   0.00000  Uiso   1.00
C2     C     0.14035   0.16194   0.48556   0.00000  Uiso   1.00
C3     C     0.14985   0.18021   0.43705   0.00000  Uiso   1.00
C4     C     0.18031   0.18598   0.01983   0.00000  Uiso   1.00
C5     C     0.23616   0.21826   0.00223   0.00000  Uiso   1.00
C6     C     0.24179   0.24070   0.45665   0.00000  Uiso   1.00
C7     C     0.19578   0.22466   0.42648   0.00000  Uiso   1.00
C8     C     0.16422   0.18310   0.07186   0.00000  Uiso   1.00
C9     C     0.27194   0.21008   0.08002   0.00000  Uiso   1.00
C10    C     0.11348   0.15392   0.40073   0.00000  Uiso   1.00
C11    C     0.19295   0.32020   0.23659   0.00000  Uiso   1.00
C12    C     0.13377   0.16267   0.34656   0.00000  Uiso   1.00
C13    C     0.14565   0.01155   0.24970   0.00000  Uiso   1.00
C14    C     0.15256   0.06690   0.24750   0.00000  Uiso   1.00
C15    C     0.19849   0.17359   0.15396   0.00000  Uiso   1.00
C16    C     0.28272   0.22962   0.03227   0.00000  Uiso   1.00
C17    C     0.21234   0.18705   0.10093   0.00000  Uiso   1.00
C18    C     0.06329   0.11278   0.41577   0.00000  Uiso   1.00
C19    C     0.05503   0.09515   0.46392   0.00000  Uiso   1.00
C20    C     0.09381   0.11836   0.49791   0.00000  Uiso   1.00
Cu21   Cu    0.10710   0.16105   0.24436   0.00000  Uiso   1.00
Cu22   Cu    0.22623   0.17228   0.25565   0.00000  Uiso   1.00
H23    H     0.30848   0.21717   0.10229   0.00000  Uiso   1.00
H24    H     0.10168   0.32505   0.26786   0.00000  Uiso   1.00
H25    H     0.32823   0.12152   0.21536   0.00000  Uiso   1.00
H26    H     0.28043   0.27145   0.44529   0.00000  Uiso   1.00
H27    H     0.32715   0.25250   0.01864   0.00000  Uiso   1.00
H28    H     0.08738   0.10175   0.03396   0.00000  Uiso   1.00
H29    H     0.01864   0.06245   0.47509   0.00000  Uiso   1.00
H30    H     0.19685   0.24577   0.39413   0.00000  Uiso   1.00
N31    N     0.31574   0.18074   0.26416   0.00000  Uiso   1.00
N32    N     0.01759   0.15259   0.23584   0.00000  Uiso   1.00
O33    O     0.12797   0.23807   0.24633   0.00000  Uiso   1.00
O34    O     0.22858   0.24755   0.25587   0.00000  Uiso   1.00
O35    O     0.09181   0.15960   0.31840   0.00000  Uiso   1.00
O36    O     0.19242   0.16908   0.32793   0.00000  Uiso   1.00
O37    O     0.10476   0.08578   0.24414   0.00000  Uiso   1.00
O38    O     0.20536   0.09526   0.25367   0.00000  Uiso   1.00
O39    O     0.14092   0.16425   0.17207   0.00000  Uiso   1.00
O40    O     0.24152   0.17373   0.18161   0.00000  Uiso   1.00
C41    C     0.01057   0.22955   0.28891   0.00000  Uiso   1.00
C42    C     0.30585   0.24576   0.33710   0.00000  Uiso   1.00
H43    H     0.00103   0.27721   0.35862   0.00000  Uiso   1.00
H44    H     0.26769   0.26262   0.33005   0.00000  Uiso   1.00
H45    H     0.29070   0.21139   0.36015   0.00000  Uiso   1.00
H46    H     0.02069   0.26115   0.26259   0.00000  Uiso   1.00
H47    H     0.05003   0.22487   0.30412   0.00000  Uiso   1.00
C48    C     0.09998   0.19269   0.09464   0.00000  Uiso   1.00
C49    C     0.10258   0.24686   0.12349   0.00000  Uiso   1.00
H50    H     0.05753   0.24933   0.14653   0.00000  Uiso   1.00
H51    H     0.13735   0.25508   0.14898   0.00000  Uiso   1.00
H52    H     0.11424   0.27798   0.09642   0.00000  Uiso   1.00
H53    H     0.07178   0.19325   0.06501   0.00000  Uiso   1.00
H54    H     0.07325   0.16055   0.11767   0.00000  Uiso   1.00
C55    C     0.02002   0.08440   0.38226   0.00000  Uiso   1.00
H56    H     0.01182   0.04182   0.37780   0.00000  Uiso   1.00
O57    O     0.32291   0.10784   0.36280   0.00000  Uiso   1.00
C58    C     0.25191   0.01019   0.20566   0.00000  Uiso   1.00
H59    H     0.25483   0.04396   0.18453   0.00000  Uiso   1.00
O60    O     0.29745   0.32430   0.20217   0.00000  Uiso   1.00
C61    C     0.51581   0.26611   0.24789   0.00000  Uiso   1.00
C62    C     0.47368   0.16194   0.48556   0.00000  Uiso   1.00
C63    C     0.48319   0.18021   0.43705   0.00000  Uiso   1.00
C64    C     0.51364   0.18598   0.01983   0.00000  Uiso   1.00
C65    C     0.56950   0.21826   0.00223   0.00000  Uiso   1.00
C66    C     0.57513   0.24070   0.45665   0.00000  Uiso   1.00
C67    C     0.52911   0.22466   0.42648   0.00000  Uiso   1.00
C68    C     0.49755   0.18310   0.07186   0.00000  Uiso   1.00
C69    C     0.60527   0.21008   0.08002   0.00000  Uiso   1.00
C70    C     0.44682   0.15392   0.40073   0.00000  Uiso   1.00
C71    C     0.52628   0.32020   0.23659   0.00000  Uiso   1.00
C72    C     0.46710   0.16267   0.34656   0.00000  Uiso   1.00
C73    C     0.47898   0.01155   0.24970   0.00000  Uiso   1.00
C74    C     0.48590   0.06690   0.24750   0.00000  Uiso   1.00
C75    C     0.53182   0.17359   0.15396   0.00000  Uiso   1.00
C76    C     0.61605   0.22962   0.03227   0.00000  Uiso   1.00
C77    C     0.54568   0.18705   0.10093   0.00000  Uiso   1.00
C78    C     0.39662   0.11278   0.41577   0.00000  Uiso   1.00
C79    C     0.38836   0.09515   0.46392   0.00000  Uiso   1.00
C80    C     0.42714   0.11836   0.49791   0.00000  Uiso   1.00
Cu81   Cu    0.44043   0.16105   0.24436   0.00000  Uiso   1.00
Cu82   Cu    0.55957   0.17228   0.25565   0.00000  Uiso   1.00
H83    H     0.64181   0.21717   0.10229   0.00000  Uiso   1.00
H84    H     0.43501   0.32505   0.26786   0.00000  Uiso   1.00
H85    H     0.66156   0.12152   0.21536   0.00000  Uiso   1.00
H86    H     0.61376   0.27145   0.44529   0.00000  Uiso   1.00
H87    H     0.66048   0.25250   0.01864   0.00000  Uiso   1.00
H88    H     0.42071   0.10175   0.03396   0.00000  Uiso   1.00
H89    H     0.35197   0.06245   0.47509   0.00000  Uiso   1.00
H90    H     0.53019   0.24577   0.39413   0.00000  Uiso   1.00
N91    N     0.64908   0.18074   0.26416   0.00000  Uiso   1.00
N92    N     0.35092   0.15259   0.23584   0.00000  Uiso   1.00
O93    O     0.46131   0.23807   0.24633   0.00000  Uiso   1.00
O94    O     0.56191   0.24755   0.25587   0.00000  Uiso   1.00
O95    O     0.42515   0.15960   0.31840   0.00000  Uiso   1.00
O96    O     0.52575   0.16908   0.32793   0.00000  Uiso   1.00
O97    O     0.43809   0.08578   0.24414   0.00000  Uiso   1.00
O98    O     0.53869   0.09526   0.25367   0.00000  Uiso   1.00
O99    O     0.47425   0.16425   0.17207   0.00000  Uiso   1.00
O100   O     0.57485   0.17373   0.18161   0.00000  Uiso   1.00
C101   C     0.34390   0.22955   0.28891   0.00000  Uiso   1.00
C102   C     0.63918   0.24576   0.33710   0.00000  Uiso   1.00
H103   H     0.33436   0.27721   0.35862   0.00000  Uiso   1.00
H104   H     0.60102   0.26262   0.33005   0.00000  Uiso   1.00
H105   H     0.62403   0.21139   0.36015   0.00000  Uiso   1.00
H106   H     0.35402   0.26115   0.26259   0.00000  Uiso   1.00
H107   H     0.38336   0.22487   0.30412   0.00000  Uiso   1.00
C108   C     0.43331   0.19269   0.09464   0.00000  Uiso   1.00
C109   C     0.43591   0.24686   0.12349   0.00000  Uiso   1.00
H110   H     0.39086   0.24933   0.14653   0.00000  Uiso   1.00
H111   H     0.47068   0.25508   0.14898   0.00000  Uiso   1.00
H112   H     0.44757   0.27798   0.09642   0.00000  Uiso   1.00
H113   H     0.40512   0.19325   0.06501   0.00000  Uiso   1.00
H114   H     0.40658   0.16055   0.11767   0.00000  Uiso   1.00
C115   C     0.35335   0.08440   0.38226   0.00000  Uiso   1.00
H116   H     0.34516   0.04182   0.37780   0.00000  Uiso   1.00
O117   O     0.65625   0.10784   0.36280   0.00000  Uiso   1.00
C118   C     0.58524   0.01019   0.20566   0.00000  Uiso   1.00
H119   H     0.58816   0.04396   0.18453   0.00000  Uiso   1.00
O120   O     0.63078   0.32430   0.20217   0.00000  Uiso   1.00
C121   C     0.84914   0.26611   0.24789   0.00000  Uiso   1.00
C122   C     0.80702   0.16194   0.48556   0.00000  Uiso   1.00
C123   C     0.81652   0.18021   0.43705   0.00000  Uiso   1.00
C124   C     0.84697   0.18598   0.01983   0.00000  Uiso   1.00
C125   C     0.90283   0.21826   0.00223   0.00000  Uiso   1.00
C126   C     0.90846   0.24070   0.45665   0.00000  Uiso   1.00
C127   C     0.86244   0.22466   0.42648   0.00000  Uiso   1.00
C128   C     0.83089   0.18310   0.07186   0.00000  Uiso   1.00
C129   C     0.93861   0.21008   0.08002   0.00000  Uiso   1.00
C130   C     0.78015   0.15392   0.40073   0.00000  Uiso   1.00
C131   C     0.85961   0.32020   0.23659   0.00000  Uiso   1.00
C132   C     0.80043   0.16267   0.34656   0.00000  Uiso   1.00
C133   C     0.81231   0.01155   0.24970   0.00000  Uiso   1.00
C134   C     0.81923   0.06690   0.24750   0.00000  Uiso   1.00
C135   C     0.86515   0.17359   0.15396   0.00000  Uiso   1.00
C136   C     0.94938   0.22962   0.03227   0.00000  Uiso   1.00
C137   C     0.87901   0.18705   0.10093   0.00000  Uiso   1.00
C138   C     0.72995   0.11278   0.41577   0.00000  Uiso   1.00
C139   C     0.72170   0.09515   0.46392   0.00000  Uiso   1.00
C140   C     0.76048   0.11836   0.49791   0.00000  Uiso   1.00
Cu141  Cu    0.77377   0.16105   0.24436   0.00000  Uiso   1.00
Cu142  Cu    0.89290   0.17228   0.25565   0.00000  Uiso   1.00
H143   H     0.97515   0.21717   0.10229   0.00000  Uiso   1.00
H144   H     0.76835   0.32505   0.26786   0.00000  Uiso   1.00
H145   H     0.99489   0.12152   0.21536   0.00000  Uiso   1.00
H146   H     0.94710   0.27145   0.44529   0.00000  Uiso   1.00
H147   H     0.99382   0.25250   0.01864   0.00000  Uiso   1.00
H148   H     0.75405   0.10175   0.03396   0.00000  Uiso   1.00
H149   H     0.68530   0.06245   0.47509   0.00000  Uiso   1.00
H150   H     0.86352   0.24577   0.39413   0.00000  Uiso   1.00
N151   N     0.98241   0.18074   0.26416   0.00000  Uiso   1.00
N152   N     0.68426   0.15259   0.23584   0.00000  Uiso   1.00
O153   O     0.79464   0.23807   0.24633   0.00000  Uiso   1.00
O154   O     0.89524   0.24755   0.25587   0.00000  Uiso   1.00
O155   O     0.75848   0.15960   0.31840   0.00000  Uiso   1.00
O156   O     0.85908   0.16908   0.32793   0.00000  Uiso   1.00
O157   O     0.77142   0.08578   0.24414   0.00000  Uiso   1.00
O158   O     0.87203   0.09526   0.25367   0.00000  Uiso   1.00
O159   O     0.80758   0.16425   0.17207   0.00000  Uiso   1.00
O160   O     0.90819   0.17373   0.18161   0.00000  Uiso   1.00
C161   C     0.67723   0.22955   0.28891   0.00000  Uiso   1.00
C162   C     0.97252   0.24576   0.33710   0.00000  Uiso   1.00
H163   H     0.66770   0.27721   0.35862   0.00000  Uiso   1.00
H164   H     0.93435   0.26262   0.33005   0.00000  Uiso   1.00
H165   H     0.95736   0.21139   0.36015   0.00000  Uiso   1.00
H166   H     0.68735   0.26115   0.26259   0.00000  Uiso   1.00
H167   H     0.71669   0.22487   0.30412   0.00000  Uiso   1.00
C168   C     0.76665   0.19269   0.09464   0.00000  Uiso   1.00
C169   C     0.76924   0.24686   0.12349   0.00000  Uiso   1.00
H170   H     0.72420   0.24933   0.14653   0.00000  Uiso   1.00
H171   H     0.80402   0.25508   0.14898   0.00000  Uiso   1.00
H172   H     0.78091   0.27798   0.09642   0.00000  Uiso   1.00
H173   H     0.73845   0.19325   0.06501   0.00000  Uiso   1.00
H174   H     0.73991   0.16055   0.11767   0.00000  Uiso   1.00
C175   C     0.68668   0.08440   0.38226   0.00000  Uiso   1.00
H176   H     0.67849   0.04182   0.37780   0.00000  Uiso   1.00
O177   O     0.98958   0.10784   0.36280   0.00000  Uiso   1.00
C178   C     0.91858   0.01019   0.20566   0.00000  Uiso   1.00
H179   H     0.92150   0.04396   0.18453   0.00000  Uiso   1.00
O180   O     0.96412   0.32430   0.20217   0.00000  Uiso   1.00
C181   C     0.18247   0.59944   0.24789   0.00000  Uiso   1.00
C182   C     0.14035   0.49527   0.48556   0.00000  Uiso   1.00
C183   C     0.14985   0.51354   0.43705   0.00000  Uiso   1.00
C184   C     0.18031   0.51931   0.01983   0.00000  Uiso   1.00
C185   C     0.23616   0.55159   0.00223   0.00000  Uiso   1.00
C186   C     0.24179   0.57403   0.45665   0.00000  Uiso   1.00
C187   C     0.19578   0.55799   0.42648   0.00000  Uiso   1.00
C188   C     0.16422   0.51643   0.07186   0.00000  Uiso   1.00
C189   C     0.27194   0.54341   0.08002   0.00000  Uiso   1.00
C190   C     0.11348   0.48726   0.40073   0.00000  Uiso   1.00
C191   C     0.19295   0.65353   0.23659   0.00000  Uiso   1.00
C192   C     0.13377   0.49600   0.34656   0.00000  Uiso   1.00
C193   C     0.14565   0.34488   0.24970   0.00000  Uiso   1.00
C194   C     0.15256   0.40023   0.24750   0.00000  Uiso   1.00
C195   C     0.19849   0.50693   0.15396   0.00000  Uiso   1.00
C196   C     0.28272   0.56296   0.03227   0.00000  Uiso   1.00
C197   C     0.21234   0.52038   0.10093   0.00000  Uiso   1.00
C198   C     0.06329   0.44611   0.41577   0.00000  Uiso   1.00
C199   C     0.05503   0.42848   0.46392   0.00000  Uiso   1.00
C200   C     0.09381   0.45169   0.49791   0.00000  Uiso   1.00
Cu201  Cu    0.10710   0.49439   0.24436   0.00000  Uiso   1.00
Cu202  Cu    0.22623   0.50561   0.25565   0.00000  Uiso   1.00
H203   H     0.30848   0.55050   0.10229   0.00000  Uiso   1.00
H204   H     0.10168   0.65838   0.26786   0.00000  Uiso   1.00
H205   H     0.32823   0.45485   0.21536   0.00000  Uiso   1.00
H206   H     0.28043   0.60478   0.44529   0.00000  Uiso   1.00
H207   H     0.32715   0.58583   0.01864   0.00000  Uiso   1.00
H208   H     0.08738   0.43508   0.03396   0.00000  Uiso   1.00
H209   H     0.01864   0.39578   0.47509   0.00000  Uiso   1.00
H210   H     0.19685   0.57910   0.39413   0.00000  Uiso   1.00
N211   N     0.31574   0.51407   0.26416   0.00000  Uiso   1.00
N212   N     0.01759   0.48593   0.23584   0.00000  Uiso   1.00
O213   O     0.12797   0.57141   0.24633   0.00000  Uiso   1.00
O214   O     0.22858   0.58089   0.25587   0.00000  Uiso   1.00
O215   O     0.09181   0.49293   0.31840   0.00000  Uiso   1.00
O216   O     0.19242   0.50241   0.32793   0.00000  Uiso   1.00
O217   O     0.10476   0.41911   0.24414   0.00000  Uiso   1.00
O218   O     0.20536   0.42859   0.25367   0.00000  Uiso   1.00
O219   O     0.14092   0.49759   0.17207   0.00000  Uiso   1.00
O220   O     0.24152   0.50707   0.18161   0.00000  Uiso   1.00
C221   C     0.01057   0.56289   0.28891   0.00000  Uiso   1.00
C222   C     0.30585   0.57909   0.33710   0.00000  Uiso   1.00
H223   H     0.00103   0.61054   0.35862   0.00000  Uiso   1.00
H224   H     0.26769   0.59596   0.33005   0.00000  Uiso   1.00
H225   H     0.29070   0.54473   0.36015   0.00000  Uiso   1.00
H226   H     0.02069   0.59449   0.26259   0.00000  Uiso   1.00
H227   H     0.05003   0.55820   0.30412   0.00000  Uiso   1.00
C228   C     0.09998   0.52603   0.09464   0.00000  Uiso   1.00
C229   C     0.10258   0.58019   0.12349   0.00000  Uiso   1.00
H230   H     0.05753   0.58266   0.14653   0.00000  Uiso   1.00
H231   H     0.13735   0.58841   0.14898   0.00000  Uiso   1.00
H232   H     0.11424   0.61131   0.09642   0.00000  Uiso   1.00
H233   H     0.07178   0.52658   0.06501   0.00000  Uiso   1.00
H234   H     0.07325   0.49388   0.11767   0.00000  Uiso   1.00
C235   C     0.02002   0.41774   0.38226   0.00000  Uiso   1.00
H236   H     0.01182   0.37516   0.37780   0.00000  Uiso   1.00
O237   O     0.32291   0.44117   0.36280   0.00000  Uiso   1.00
C238   C     0.25191   0.34352   0.20566   0.00000  Uiso   1.00
H239   H     0.25483   0.37730   0.18453   0.00000  Uiso   1.00
O240   O     0.29745   0.65763   0.20217   0.00000  Uiso   1.00
C241   C     0.51581   0.59944   0.24789   0.00000  Uiso   1.00
C242   C     0.47368   0.49527   0.48556   0.00000  Uiso   1.00
C243   C     0.48319   0.51354   0.43705   0.00000  Uiso   1.00
C244   C     0.51364   0.51931   0.01983   0.00000  Uiso   1.00
C245   C     0.56950   0.55159   0.00223   0.00000  Uiso   1.00
C246   C     0.57513   0.57403   0.45665   0.00000  Uiso   1.00
C247   C     0.52911   0.55799   0.42648   0.00000  Uiso   1.00
C248   C     0.49755   0.51643   0.07186   0.00000  Uiso   1.00
C249   C     0.60527   0.54341   0.08002   0.00000  Uiso   1.00
C250   C     0.44682   0.48726   0.40073   0.00000  Uiso   1.00
C251   C     0.52628   0.65353   0.23659   0.00000  Uiso   1.00
C252   C     0.46710   0.49600   0.34656   0.00000  Uiso   1.00
C253   C     0.47898   0.34488   0.24970   0.00000  Uiso   1.00
C254   C     0.48590   0.40023   0.24750   0.00000  Uiso   1.00
C255   C     0.53182   0.50693   0.15396   0.00000  Uiso   1.00
C256   C     0.61605   0.56296   0.03227   0.00000  Uiso   1.00
C257   C     0.54568   0.52038   0.10093   0.00000  Uiso   1.00
C258   C     0.39662   0.44611   0.41577   0.00000  Uiso   1.00
C259   C     0.38836   0.42848   0.46392   0.00000  Uiso   1.00
C260   C     0.42714   0.45169   0.49791   0.00000  Uiso   1.00
Cu261  Cu    0.44043   0.49439   0.24436   0.00000  Uiso   1.00
Cu262  Cu    0.55957   0.50561   0.25565   0.00000  Uiso   1.00
H263   H     0.64181   0.55050   0.10229   0.00000  Uiso   1.00
H264   H     0.43501   0.65838   0.26786   0.00000  Uiso   1.00
H265   H     0.66156   0.45485   0.21536   0.00000  Uiso   1.00
H266   H     0.61376   0.60478   0.44529   0.00000  Uiso   1.00
H267   H     0.66048   0.58583   0.01864   0.00000  Uiso   1.00
H268   H     0.42071   0.43508   0.03396   0.00000  Uiso   1.00
H269   H     0.35197   0.39578   0.47509   0.00000  Uiso   1.00
H270   H     0.53019   0.57910   0.39413   0.00000  Uiso   1.00
N271   N     0.64908   0.51407   0.26416   0.00000  Uiso   1.00
N272   N     0.35092   0.48593   0.23584   0.00000  Uiso   1.00
O273   O     0.46131   0.57141   0.24633   0.00000  Uiso   1.00
O274   O     0.56191   0.58089   0.25587   0.00000  Uiso   1.00
O275   O     0.42515   0.49293   0.31840   0.00000  Uiso   1.00
O276   O     0.52575   0.50241   0.32793   0.00000  Uiso   1.00
O277   O     0.43809   0.41911   0.24414   0.00000  Uiso   1.00
O278   O     0.53869   0.42859   0.25367   0.00000  Uiso   1.00
O279   O     0.47425   0.49759   0.17207   0.00000  Uiso   1.00
O280   O     0.57485   0.50707   0.18161   0.00000  Uiso   1.00
C281   C     0.34390   0.56289   0.28891   0.00000  Uiso   1.00
C282   C     0.63918   0.57909   0.33710   0.00000  Uiso   1.00
H283   H     0.33436   0.61054   0.35862   0.00000  Uiso   1.00
H284   H     0.60102   0.59596   0.33005   0.00000  Uiso   1.00
H285   H     0.62403   0.54473   0.36015   0.00000  Uiso   1.00
H286   H     0.35402   0.59449   0.26259   0.00000  Uiso   1.00
H287   H     0.38336   0.55820   0.30412   0.00000  Uiso   1.00
C288   C     0.43331   0.52603   0.09464   0.00000  Uiso   1.00
C289   C     0.43591   0.58019   0.12349   0.00000  Uiso   1.00
H290   H     0.39086   0.58266   0.14653   0.00000  Uiso   1.00
H291   H     0.47068   0.58841   0.14898   0.00000  Uiso   1.00
H292   H     0.44757   0.61131   0.09642   0.00000  Uiso   1.00
H293   H     0.40512   0.52658   0.06501   0.00000  Uiso   1.00
H294   H     0.40658   0.49388   0.11767   0.00000  Uiso   1.00
C295   C     0.35335   0.41774   0.38226   0.00000  Uiso   1.00
H296   H     0.34516   0.37516   0.37780   0.00000  Uiso   1.00
O297   O     0.65625   0.44117   0.36280   0.00000  Uiso   1.00
C298   C     0.58524   0.34352   0.20566   0.00000  Uiso   1.00
H299   H     0.58816   0.37730   0.18453   0.00000  Uiso   1.00
O300   O     0.63078   0.65763   0.20217   0.00000  Uiso   1.00
C301   C     0.84914   0.59944   0.24789   0.00000  Uiso   1.00
C302   C     0.80702   0.49527   0.48556   0.00000  Uiso   1.00
C303   C     0.81652   0.51354   0.43705   0.00000  Uiso   1.00
C304   C     0.84697   0.51931   0.01983   0.00000  Uiso   1.00
C305   C     0.90283   0.55159   0.00223   0.00000  Uiso   1.00
C306   C     0.90846   0.57403   0.45665   0.00000  Uiso   1.00
C307   C     0.86244   0.55799   0.42648   0.00000  Uiso   1.00
C308   C     0.83089   0.51643   0.07186   0.00000  Uiso   1.00
C309   C     0.93861   0.54341   0.08002   0.00000  Uiso   1.00
C310   C     0.78015   0.48726   0.40073   0.00000  Uiso   1.00
C311   C     0.85961   0.65353   0.23659   0.00000  Uiso   1.00
C312   C     0.80043   0.49600   0.34656   0.00000  Uiso   1.00
C313   C     0.81231   0.34488   0.24970   0.00000  Uiso   1.00
C314   C     0.81923   0.40023   0.24750   0.00000  Uiso   1.00
C315   C     0.86515   0.50693   0.15396   0.00000  Uiso   1.00
C316   C     0.94938   0.56296   0.03227   0.00000  Uiso   1.00
C317   C     0.87901   0.52038   0.10093   0.00000  Uiso   1.00
C318   C     0.72995   0.44611   0.41577   0.00000  Uiso   1.00
C319   C     0.72170   0.42848   0.46392   0.00000  Uiso   1.00
C320   C     0.76048   0.45169   0.49791   0.00000  Uiso   1.00
Cu321  Cu    0.77377   0.49439   0.24436   0.00000  Uiso   1.00
Cu322  Cu    0.89290   0.50561   0.25565   0.00000  Uiso   1.00
H323   H     0.97515   0.55050   0.10229   0.00000  Uiso   1.00
H324   H     0.76835   0.65838   0.26786   0.00000  Uiso   1.00
H325   H     0.99489   0.45485   0.21536   0.00000  Uiso   1.00
H326   H     0.94710   0.60478   0.44529   0.00000  Uiso   1.00
H327   H     0.99382   0.58583   0.01864   0.00000  Uiso   1.00
H328   H     0.75405   0.43508   0.03396   0.00000  Uiso   1.00
H329   H     0.68530   0.39578   0.47509   0.00000  Uiso   1.00
H330   H     0.86352   0.57910   0.39413   0.00000  Uiso   1.00
N331   N     0.98241   0.51407   0.26416   0.00000  Uiso   1.00
N332   N     0.68426   0.48593   0.23584   0.00000  Uiso   1.00
O333   O     0.79464   0.57141   0.24633   0.00000  Uiso   1.00
O334   O     0.89524   0.58089   0.25587   0.00000  Uiso   1.00
O335   O     0.75848   0.49293   0.31840   0.00000  Uiso   1.00
O336   O     0.85908   0.50241   0.32793   0.00000  Uiso   1.00
O337   O     0.77142   0.41911   0.24414   0.00000  Uiso   1.00
O338   O     0.87203   0.42859   0.25367   0.00000  Uiso   1.00
O339   O     0.80758   0.49759   0.17207   0.00000  Uiso   1.00
O340   O     0.90819   0.50707   0.18161   0.00000  Uiso   1.00
C341   C     0.67723   0.56289   0.28891   0.00000  Uiso   1.00
C342   C     0.97252   0.57909   0.33710   0.00000  Uiso   1.00
H343   H     0.66770   0.61054   0.35862   0.00000  Uiso   1.00
H344   H     0.93435   0.59596   0.33005   0.00000  Uiso   1.00
H345   H     0.95736   0.54473   0.36015   0.00000  Uiso   1.00
H346   H     0.68735   0.59449   0.26259   0.00000  Uiso   1.00
H347   H     0.71669   0.55820   0.30412   0.00000  Uiso   1.00
C348   C     0.76665   0.52603   0.09464   0.00000  Uiso   1.00
C349   C     0.76924   0.58019   0.12349   0.00000  Uiso   1.00
H350   H     0.72420   0.58266   0.14653   0.00000  Uiso   1.00
H351   H     0.80402   0.58841   0.14898   0.00000  Uiso   1.00
H352   H     0.78091   0.61131   0.09642   0.00000  Uiso   1.00
H353   H     0.73845   0.52658   0.06501   0.00000  Uiso   1.00
H354   H     0.73991   0.49388   0.11767   0.00000  Uiso   1.00
C355   C     0.68668   0.41774   0.38226   0.00000  Uiso   1.00
H356   H     0.67849   0.37516   0.37780   0.00000  Uiso   1.00
O357   O     0.98958   0.44117   0.36280   0.00000  Uiso   1.00
C358   C     0.91858   0.34352   0.20566   0.00000  Uiso   1.00
H359   H     0.92150   0.37730   0.18453   0.00000  Uiso   1.00
O360   O     0.96412   0.65763   0.20217   0.00000  Uiso   1.00
C361   C     0.18247   0.93278   0.24789   0.00000  Uiso   1.00
C362   C     0.14035   0.82860   0.48556   0.00000  Uiso   1.00
C363   C     0.14985   0.84688   0.43705   0.00000  Uiso   1.00
C364   C     0.18031   0.85265   0.01983   0.00000  Uiso   1.00
C365   C     0.23616   0.88493   0.00223   0.00000  Uiso   1.00
C366   C     0.24179   0.90737   0.45665   0.00000  Uiso   1.00
C367   C     0.19578   0.89133   0.42648   0.00000  Uiso   1.00
C368   C     0.16422   0.84977   0.07186   0.00000  Uiso   1.00
C369   C     0.27194   0.87675   0.08002   0.00000  Uiso   1.00
C370   C     0.11348   0.82059   0.40073   0.00000  Uiso   1.00
C371   C     0.19295   0.98686   0.23659   0.00000  Uiso   1.00
C372   C     0.13377   0.82934   0.34656   0.00000  Uiso   1.00
C373   C     0.14565   0.67821   0.24970   0.00000  Uiso   1.00
C374   C     0.15256   0.73357   0.24750   0.00000  Uiso   1.00
C375   C     0.19849   0.84026   0.15396   0.00000  Uiso   1.00
C376   C     0.28272   0.89629   0.03227   0.00000  Uiso   1.00
C377   C     0.21234   0.85372   0.10093   0.00000  Uiso   1.00
C378   C     0.06329   0.77945   0.41577   0.00000  Uiso   1.00
C379   C     0.05503   0.76181   0.46392   0.00000  Uiso   1.00
C380   C     0.09381   0.78503   0.49791   0.00000  Uiso   1.00
Cu381  Cu    0.10710   0.82772   0.24436   0.00000  Uiso   1.00
Cu382  Cu    0.22623   0.83895   0.25565   0.00000  Uiso   1.00
H383   H     0.30848   0.88384   0.10229   0.00000  Uiso   1.00
H384   H     0.10168   0.99171   0.26786   0.00000  Uiso   1.00
H385   H     0.32823   0.78819   0.21536   0.00000  Uiso   1.00
H386   H     0.28043   0.93811   0.44529   0.00000  Uiso   1.00
H387   H     0.32715   0.91917   0.01864   0.00000  Uiso   1.00
H388   H     0.08738   0.76842   0.03396   0.00000  Uiso   1.00
H389   H     0.01864   0.72912   0.47509   0.00000  Uiso   1.00
H390   H     0.19685   0.91243   0.39413   0.00000  Uiso   1.00
N391   N     0.31574   0.84741   0.26416   0.00000  Uiso   1.00
N392   N     0.01759   0.81926   0.23584   0.00000  Uiso   1.00
O393   O     0.12797   0.90474   0.24633   0.00000  Uiso   1.00
O394   O     0.22858   0.91422   0.25587   0.00000  Uiso   1.00
O395   O     0.09181   0.82627   0.31840   0.00000  Uiso   1.00
O396   O     0.19242   0.83575   0.32793   0.00000  Uiso   1.00
O397   O     0.10476   0.75245   0.24414   0.00000  Uiso   1.00
O398   O     0.20536   0.76193   0.25367   0.00000  Uiso   1.00
O399   O     0.14092   0.83092   0.17207   0.00000  Uiso   1.00
O400   O     0.24152   0.84040   0.18161   0.00000  Uiso   1.00
C401   C     0.01057   0.89622   0.28891   0.00000  Uiso   1.00
C402   C     0.30585   0.91243   0.33710   0.00000  Uiso   1.00
H403   H     0.00103   0.94387   0.35862   0.00000  Uiso   1.00
H404   H     0.26769   0.92929   0.33005   0.00000  Uiso   1.00
H405   H     0.29070   0.87806   0.36015   0.00000  Uiso   1.00
H406   H     0.02069   0.92782   0.26259   0.00000  Uiso   1.00
H407   H     0.05003   0.89153   0.30412   0.00000  Uiso   1.00
C408   C     0.09998   0.85936   0.09464   0.00000  Uiso   1.00
C409   C     0.10258   0.91353   0.12349   0.00000  Uiso   1.00
H410   H     0.05753   0.91600   0.14653   0.00000  Uiso   1.00
H411   H     0.13735   0.92175   0.14898   0.00000  Uiso   1.00
H412   H     0.11424   0.94464   0.09642   0.00000  Uiso   1.00
H413   H     0.07178   0.85991   0.06501   0.00000  Uiso   1.00
H414   H     0.07325   0.82722   0.11767   0.00000  Uiso   1.00
C415   C     0.02002   0.75107   0.38226   0.00000  Uiso   1.00
H416   H     0.01182   0.70849   0.37780   0.00000  Uiso   1.00
O417   O     0.32291   0.77450   0.36280   0.00000  Uiso   1.00
C418   C     0.25191   0.67686   0.20566   0.00000  Uiso   1.00
H419   H     0.25483   0.71063   0.18453   0.00000  Uiso   1.00
O420   O     0.29745   0.99096   0.20217   0.00000  Uiso   1.00
C421   C     0.51581   0.93278   0.24789   0.00000  Uiso   1.00
C422   C     0.47368   0.82860   0.48556   0.00000  Uiso   1.00
C423   C     0.48319   0.84688   0.43705   0.00000  Uiso   1.00
C424   C     0.51364   0.85265   0.01983   0.00000  Uiso   1.00
C425   C     0.56950   0.88493   0.00223   0.00000  Uiso   1.00
C426   C     0.57513   0.90737   0.45665   0.00000  Uiso   1.00
C427   C     0.52911   0.89133   0.42648   0.00000  Uiso   1.00
C428   C     0.49755   0.84977   0.07186   0.00000  Uiso   1.00
C429   C     0.60527   0.87675   0.08002   0.00000  Uiso   1.00
C430   C     0.44682   0.82059   0.40073   0.00000  Uiso   1.00
C431   C     0.52628   0.98686   0.23659   0.00000  Uiso   1.00
C432   C     0.46710   0.82934   0.34656   0.00000  Uiso   1.00
C433   C     0.47898   0.67821   0.24970   0.00000  Uiso   1.00
C434   C     0.48590   0.73357   0.24750   0.00000  Uiso   1.00
C435   C     0.53182   0.84026   0.15396   0.00000  Uiso   1.00
C436   C     0.61605   0.89629   0.03227   0.00000  Uiso   1.00
C437   C     0.54568   0.85372   0.10093   0.00000  Uiso   1.00
C438   C     0.39662   0.77945   0.41577   0.00000  Uiso   1.00
C439   C     0.38836   0.76181   0.46392   0.00000  Uiso   1.00
C440   C     0.42714   0.78503   0.49791   0.00000  Uiso   1.00
Cu441  Cu    0.44043   0.82772   0.24436   0.00000  Uiso   1.00
Cu442  Cu    0.55957   0.83895   0.25565   0.00000  Uiso   1.00
H443   H     0.64181   0.88384   0.10229   0.00000  Uiso   1.00
H444   H     0.43501   0.99171   0.26786   0.00000  Uiso   1.00
H445   H     0.66156   0.78819   0.21536   0.00000  Uiso   1.00
H446   H     0.61376   0.93811   0.44529   0.00000  Uiso   1.00
H447   H     0.66048   0.91917   0.01864   0.00000  Uiso   1.00
H448   H     0.42071   0.76842   0.03396   0.00000  Uiso   1.00
H449   H     0.35197   0.72912   0.47509   0.00000  Uiso   1.00
H450   H     0.53019   0.91243   0.39413   0.00000  Uiso   1.00
N451   N     0.64908   0.84741   0.26416   0.00000  Uiso   1.00
N452   N     0.35092   0.81926   0.23584   0.00000  Uiso   1.00
O453   O     0.46131   0.90474   0.24633   0.00000  Uiso   1.00
O454   O     0.56191   0.91422   0.25587   0.00000  Uiso   1.00
O455   O     0.42515   0.82627   0.31840   0.00000  Uiso   1.00
O456   O     0.52575   0.83575   0.32793   0.00000  Uiso   1.00
O457   O     0.43809   0.75245   0.24414   0.00000  Uiso   1.00
O458   O     0.53869   0.76193   0.25367   0.00000  Uiso   1.00
O459   O     0.47425   0.83092   0.17207   0.00000  Uiso   1.00
O460   O     0.57485   0.84040   0.18161   0.00000  Uiso   1.00
C461   C     0.34390   0.89622   0.28891   0.00000  Uiso   1.00
C462   C     0.63918   0.91243   0.33710   0.00000  Uiso   1.00
H463   H     0.33436   0.94387   0.35862   0.00000  Uiso   1.00
H464   H     0.60102   0.92929   0.33005   0.00000  Uiso   1.00
H465   H     0.62403   0.87806   0.36015   0.00000  Uiso   1.00
H466   H     0.35402   0.92782   0.26259   0.00000  Uiso   1.00
H467   H     0.38336   0.89153   0.30412   0.00000  Uiso   1.00
C468   C     0.43331   0.85936   0.09464   0.00000  Uiso   1.00
C469   C     0.43591   0.91353   0.12349   0.00000  Uiso   1.00
H470   H     0.39086   0.91600   0.14653   0.00000  Uiso   1.00
H471   H     0.47068   0.92175   0.14898   0.00000  Uiso   1.00
H472   H     0.44757   0.94464   0.09642   0.00000  Uiso   1.00
H473   H     0.40512   0.85991   0.06501   0.00000  Uiso   1.00
H474   H     0.40658   0.82722   0.11767   0.00000  Uiso   1.00
C475   C     0.35335   0.75107   0.38226   0.00000  Uiso   1.00
H476   H     0.34516   0.70849   0.37780   0.00000  Uiso   1.00
O477   O     0.65625   0.77450   0.36280   0.00000  Uiso   1.00
C478   C     0.58524   0.67686   0.20566   0.00000  Uiso   1.00
H479   H     0.58816   0.71063   0.18453   0.00000  Uiso   1.00
O480   O     0.63078   0.99096   0.20217   0.00000  Uiso   1.00
C481   C     0.84914   0.93278   0.24789   0.00000  Uiso   1.00
C482   C     0.80702   0.82860   0.48556   0.00000  Uiso   1.00
C483   C     0.81652   0.84688   0.43705   0.00000  Uiso   1.00
C484   C     0.84697   0.85265   0.01983   0.00000  Uiso   1.00
C485   C     0.90283   0.88493   0.00223   0.00000  Uiso   1.00
C486   C     0.90846   0.90737   0.45665   0.00000  Uiso   1.00
C487   C     0.86244   0.89133   0.42648   0.00000  Uiso   1.00
C488   C     0.83089   0.84977   0.07186   0.00000  Uiso   1.00
C489   C     0.93861   0.87675   0.08002   0.00000  Uiso   1.00
C490   C     0.78015   0.82059   0.40073   0.00000  Uiso   1.00
C491   C     0.85961   0.98686   0.23659   0.00000  Uiso   1.00
C492   C     0.80043   0.82934   0.34656   0.00000  Uiso   1.00
C493   C     0.81231   0.67821   0.24970   0.00000  Uiso   1.00
C494   C     0.81923   0.73357   0.24750   0.00000  Uiso   1.00
C495   C     0.86515   0.84026   0.15396   0.00000  Uiso   1.00
C496   C     0.94938   0.89629   0.03227   0.00000  Uiso   1.00
C497   C     0.87901   0.85372   0.10093   0.00000  Uiso   1.00
C498   C     0.72995   0.77945   0.41577   0.00000  Uiso   1.00
C499   C     0.72170   0.76181   0.46392   0.00000  Uiso   1.00
C500   C     0.76048   0.78503   0.49791   0.00000  Uiso   1.00
Cu501  Cu    0.77377   0.82772   0.24436   0.00000  Uiso   1.00
Cu502  Cu    0.89290   0.83895   0.25565   0.00000  Uiso   1.00
H503   H     0.97515   0.88384   0.10229   0.00000  Uiso   1.00
H504   H     0.76835   0.99171   0.26786   0.00000  Uiso   1.00
H505   H     0.99489   0.78819   0.21536   0.00000  Uiso   1.00
H506   H     0.94710   0.93811   0.44529   0.00000  Uiso   1.00
H507   H     0.99382   0.91917   0.01864   0.00000  Uiso   1.00
H508   H     0.75405   0.76842   0.03396   0.00000  Uiso   1.00
H509   H     0.68530   0.72912   0.47509   0.00000  Uiso   1.00
H510   H     0.86352   0.91243   0.39413   0.00000  Uiso   1.00
N511   N     0.98241   0.84741   0.26416   0.00000  Uiso   1.00
N512   N     0.68426   0.81926   0.23584   0.00000  Uiso   1.00
O513   O     0.79464   0.90474   0.24633   0.00000  Uiso   1.00
O514   O     0.89524   0.91422   0.25587   0.00000  Uiso   1.00
O515   O     0.75848   0.82627   0.31840   0.00000  Uiso   1.00
O516   O     0.85908   0.83575   0.32793   0.00000  Uiso   1.00
O517   O     0.77142   0.75245   0.24414   0.00000  Uiso   1.00
O518   O     0.87203   0.76193   0.25367   0.00000  Uiso   1.00
O519   O     0.80758   0.83092   0.17207   0.00000  Uiso   1.00
O520   O     0.90819   0.84040   0.18161   0.00000  Uiso   1.00
C521   C     0.67723   0.89622   0.28891   0.00000  Uiso   1.00
C522   C     0.97252   0.91243   0.33710   0.00000  Uiso   1.00
H523   H     0.66770   0.94387   0.35862   0.00000  Uiso   1.00
H524   H     0.93435   0.92929   0.33005   0.00000  Uiso   1.00
H525   H     0.95736   0.87806   0.36015   0.00000  Uiso   1.00
H526   H     0.68735   0.92782   0.26259   0.00000  Uiso   1.00
H527   H     0.71669   0.89153   0.30412   0.00000  Uiso   1.00
C528   C     0.76665   0.85936   0.09464   0.00000  Uiso   1.00
C529   C     0.76924   0.91353   0.12349   0.00000  Uiso   1.00
H530   H     0.72420   0.91600   0.14653   0.00000  Uiso   1.00
H531   H     0.80402   0.92175   0.14898   0.00000  Uiso   1.00
H532   H     0.78091   0.94464   0.09642   0.00000  Uiso   1.00
H533   H     0.73845   0.85991   0.06501   0.00000  Uiso   1.00
H534   H     0.73991   0.82722   0.11767   0.00000  Uiso   1.00
C535   C     0.68668   0.75107   0.38226   0.00000  Uiso   1.00
H536   H     0.67849   0.70849   0.37780   0.00000  Uiso   1.00
O537   O     0.98958   0.77450   0.36280   0.00000  Uiso   1.00
C538   C     0.91858   0.67686   0.20566   0.00000  Uiso   1.00
H539   H     0.92150   0.71063   0.18453   0.00000  Uiso   1.00
O540   O     0.96412   0.99096   0.20217   0.00000  Uiso   1.00
C541   C     0.18247   0.26611   0.74789   0.00000  Uiso   1.00
C542   C     0.14035   0.16194   0.98556   0.00000  Uiso   1.00
C543   C     0.14985   0.18021   0.93705   0.00000  Uiso   1.00
C544   C     0.18031   0.18598   0.51983   0.00000  Uiso   1.00
C545   C     0.23616   0.21826   0.50223   0.00000  Uiso   1.00
C546   C     0.24179   0.24070   0.95665   0.00000  Uiso   1.00
C547   C     0.19578   0.22466   0.92648   0.00000  Uiso   1.00
C548   C     0.16422   0.18310   0.57186   0.00000  Uiso   1.00
C549   C     0.27194   0.21008   0.58002   0.00000  Uiso   1.00
C550   C     0.11348   0.15392   0.90073   0.00000  Uiso   1.00
C551   C     0.19295   0.32020   0.73659   0.00000  Uiso   1.00
C552   C     0.13377   0.16267   0.84656   0.00000  Uiso   1.00
C553   C     0.14565   0.01155   0.74970   0.00000  Uiso   1.00
C554   C     0.15256   0.06690   0.74750   0.00000  Uiso   1.00
C555   C     0.19849   0.17359   0.65396   0.00000  Uiso   1.00
C556   C     0.28272   0.22962   0.53227   0.00000  Uiso   1.00
C557   C     0.21234   0.18705   0.60093   0.00000  Uiso   1.00
C558   C     0.06329   0.11278   0.91577   0.00000  Uiso   1.00
C559   C     0.05503   0.09515   0.96392   0.00000  Uiso   1.00
C560   C     0.09381   0.11836   0.99791   0.00000  Uiso   1.00
Cu561  Cu    0.10710   0.16105   0.74436   0.00000  Uiso   1.00
Cu562  Cu    0.22623   0.17228   0.75565   0.00000  Uiso   1.00
H563   H     0.30848   0.21717   0.60229   0.00000  Uiso   1.00
H564   H     0.10168   0.32505   0.76786   0.00000  Uiso   1.00
H565   H     0.32823   0.12152   0.71536   0.00000  Uiso   1.00
H566   H     0.28043   0.27145   0.94529   0.00000  Uiso   1.00
H567   H     0.32715   0.25250   0.51864   0.00000  Uiso   1.00
H568   H     0.08738   0.10175   0.53396   0.00000  Uiso   1.00
H569   H     0.01864   0.06245   0.97509   0.00000  Uiso   1.00
H570   H     0.19685   0.24577   0.89413   0.00000  Uiso   1.00
N571   N     0.31574   0.18074   0.76416   0.00000  Uiso   1.00
N572   N     0.01759   0.15259   0.73584   0.00000  Uiso   1.00
O573   O     0.12797   0.23807   0.74633   0.00000  Uiso   1.00
O574   O     0.22858   0.24755   0.75587   0.00000  Uiso   1.00
O575   O     0.09181   0.15960   0.81840   0.00000  Uiso   1.00
O576   O     0.19242   0.16908   0.82793   0.00000  Uiso   1.00
O577   O     0.10476   0.08578   0.74414   0.00000  Uiso   1.00
O578   O     0.20536   0.09526   0.75367   0.00000  Uiso   1.00
O579   O     0.14092   0.16425   0.67207   0.00000  Uiso   1.00
O580   O     0.24152   0.17373   0.68161   0.00000  Uiso   1.00
C581   C     0.01057   0.22955   0.78891   0.00000  Uiso   1.00
C582   C     0.30585   0.24576   0.83710   0.00000  Uiso   1.00
H583   H     0.00103   0.27721   0.85862   0.00000  Uiso   1.00
H584   H     0.26769   0.26262   0.83005   0.00000  Uiso   1.00
H585   H     0.29070   0.21139   0.86015   0.00000  Uiso   1.00
H586   H     0.02069   0.26115   0.76259   0.00000  Uiso   1.00
H587   H     0.05003   0.22487   0.80412   0.00000  Uiso   1.00
C588   C     0.09998   0.19269   0.59464   0.00000  Uiso   1.00
C589   C     0.10258   0.24686   0.62349   0.00000  Uiso   1.00
H590   H     0.05753   0.24933   0.64653   0.00000  Uiso   1.00
H591   H     0.13735   0.25508   0.64898   0.00000  Uiso   1.00
H592   H     0.11424   0.27798   0.59642   0.00000  Uiso   1.00
H593   H     0.07178   0.19325   0.56501   0.00000  Uiso   1.00
H594   H     0.07325   0.16055   0.61767   0.00000  Uiso   1.00
C595   C     0.02002   0.08440   0.88226   0.00000  Uiso   1.00
H596   H     0.01182   0.04182   0.87780   0.00000  Uiso   1.00
O597   O     0.32291   0.10784   0.86280   0.00000  Uiso   1.00
C598   C     0.25191   0.01019   0.70566   0.00000  Uiso   1.00
H599   H     0.25483   0.04396   0.68453   0.00000  Uiso   1.00
O600   O     0.29745   0.32430   0.70217   0.00000  Uiso   1.00
C601   C     0.51581   0.26611   0.74789   0.00000  Uiso   1.00
C602   C     0.47368   0.16194   0.98556   0.00000  Uiso   1.00
C603   C     0.48319   0.18021   0.93705   0.00000  Uiso   1.00
C604   C     0.51364   0.18598   0.51983   0.00000  Uiso   1.00
C605   C     0.56950   0.21826   0.50223   0.00000  Uiso   1.00
C606   C     0.57513   0.24070   0.95665   0.00000  Uiso   1.00
C607   C     0.52911   0.22466   0.92648   0.00000  Uiso   1.00
C608   C     0.49755   0.18310   0.57186   0.00000  Uiso   1.00
C609   C     0.60527   0.21008   0.58002   0.00000  Uiso   1.00
C610   C     0.44682   0.15392   0.90073   0.00000  Uiso   1.00
C611   C     0.52628   0.32020   0.73659   0.00000  Uiso   1.00
C612   C     0.46710   0.16267   0.84656   0.00000  Uiso   1.00
C613   C     0.47898   0.01155   0.74970   0.00000  Uiso   1.00
C614   C     0.48590   0.06690   0.74750   0.00000  Uiso   1.00
C615   C     0.53182   0.17359   0.65396   0.00000  Uiso   1.00
C616   C     0.61605   0.22962   0.53227   0.00000  Uiso   1.00
C617   C     0.54568   0.18705   0.60093   0.00000  Uiso   1.00
C618   C     0.39662   0.11278   0.91577   0.00000  Uiso   1.00
C619   C     0.38836   0.09515   0.96392   0.00000  Uiso   1.00
C620   C     0.42714   0.11836   0.99791   0.00000  Uiso   1.00
Cu621  Cu    0.44043   0.16105   0.74436   0.00000  Uiso   1.00
Cu622  Cu    0.55957   0.17228   0.75565   0.00000  Uiso   1.00
H623   H     0.64181   0.21717   0.60229   0.00000  Uiso   1.00
H624   H     0.43501   0.32505   0.76786   0.00000  Uiso   1.00
H625   H     0.66156   0.12152   0.71536   0.00000  Uiso   1.00
H626   H     0.61376   0.27145   0.94529   0.00000  Uiso   1.00
H627   H     0.66048   0.25250   0.51864   0.00000  Uiso   1.00
H628   H     0.42071   0.10175   0.53396   0.00000  Uiso   1.00
H629   H     0.35197   0.06245   0.97509   0.00000  Uiso   1.00
H630   H     0.53019   0.24577   0.89413   0.00000  Uiso   1.00
N631   N     0.64908   0.18074   0.76416   0.00000  Uiso   1.00
N632   N     0.35092   0.15259   0.73584   0.00000  Uiso   1.00
O633   O     0.46131   0.23807   0.74633   0.00000  Uiso   1.00
O634   O     0.56191   0.24755   0.75587   0.00000  Uiso   1.00
O635   O     0.42515   0.15960   0.81840   0.00000  Uiso   1.00
O636   O     0.52575   0.16908   0.82793   0.00000  Uiso   1.00
O637   O     0.43809   0.08578   0.74414   0.00000  Uiso   1.00
O638   O     0.53869   0.09526   0.75367   0.00000  Uiso   1.00
O639   O     0.47425   0.16425   0.67207   0.00000  Uiso   1.00
O640   O     0.57485   0.17373   0.68161   0.00000  Uiso   1.00
C641   C     0.34390   0.22955   0.78891   0.00000  Uiso   1.00
C642   C     0.63918   0.24576   0.83710   0.00000  Uiso   1.00
H643   H     0.33436   0.27721   0.85862   0.00000  Uiso   1.00
H644   H     0.60102   0.26262   0.83005   0.00000  Uiso   1.00
H645   H     0.62403   0.21139   0.86015   0.00000  Uiso   1.00
H646   H     0.35402   0.26115   0.76259   0.00000  Uiso   1.00
H647   H     0.38336   0.22487   0.80412   0.00000  Uiso   1.00
C648   C     0.43331   0.19269   0.59464   0.00000  Uiso   1.00
C649   C     0.43591   0.24686   0.62349   0.00000  Uiso   1.00
H650   H     0.39086   0.24933   0.64653   0.00000  Uiso   1.00
H651   H     0.47068   0.25508   0.64898   0.00000  Uiso   1.00
H652   H     0.44757   0.27798   0.59642   0.00000  Uiso   1.00
H653   H     0.40512   0.19325   0.56501   0.00000  Uiso   1.00
H654   H     0.40658   0.16055   0.61767   0.00000  Uiso   1.00
C655   C     0.35335   0.08440   0.88226   0.00000  Uiso   1.00
H656   H     0.34516   0.04182   0.87780   0.00000  Uiso   1.00
O657   O     0.65625   0.10784   0.86280   0.00000  Uiso   1.00
C658   C     0.58524   0.01019   0.70566   0.00000  Uiso   1.00
H659   H     0.58816   0.04396   0.68453   0.00000  Uiso   1.00
O660   O     0.63078   0.32430   0.70217   0.00000  Uiso   1.00
C661   C     0.84914   0.26611   0.74789   0.00000  Uiso   1.00
C662   C     0.80702   0.16194   0.98556   0.00000  Uiso   1.00
C663   C     0.81652   0.18021   0.93705   0.00000  Uiso   1.00
C664   C     0.84697   0.18598   0.51983   0.00000  Uiso   1.00
C665   C     0.90283   0.21826   0.50223   0.00000  Uiso   1.00
C666   C     0.90846   0.24070   0.95665   0.00000  Uiso   1.00
C667   C     0.86244   0.22466   0.92648   0.00000  Uiso   1.00
C668   C     0.83089   0.18310   0.57186   0.00000  Uiso   1.00
C669   C     0.93861   0.21008   0.58002   0.00000  Uiso   1.00
C670   C     0.78015   0.15392   0.90073   0.00000  Uiso   1.00
C671   C     0.85961   0.32020   0.73659   0.00000  Uiso   1.00
C672   C     0.80043   0.16267   0.84656   0.00000  Uiso   1.00
C673   C     0.81231   0.01155   0.74970   0.00000  Uiso   1.00
C674   C     0.81923   0.06690   0.74750   0.00000  Uiso   1.00
C675   C     0.86515   0.17359   0.65396   0.00000  Uiso   1.00
C676   C     0.94938   0.22962   0.53227   0.00000  Uiso   1.00
C677   C     0.87901   0.18705   0.60093   0.00000  Uiso   1.00
C678   C     0.72995   0.11278   0.91577   0.00000  Uiso   1.00
C679   C     0.72170   0.09515   0.96392   0.00000  Uiso   1.00
C680   C     0.76048   0.11836   0.99791   0.00000  Uiso   1.00
Cu681  Cu    0.77377   0.16105   0.74436   0.00000  Uiso   1.00
Cu682  Cu    0.89290   0.17228   0.75565   0.00000  Uiso   1.00
H683   H     0.97515   0.21717   0.60229   0.00000  Uiso   1.00
H684   H     0.76835   0.32505   0.76786   0.00000  Uiso   1.00
H685   H     0.99489   0.12152   0.71536   0.00000  Uiso   1.00
H686   H     0.94710   0.27145   0.94529   0.00000  Uiso   1.00
H687   H     0.99382   0.25250   0.51864   0.00000  Uiso   1.00
H688   H     0.75405   0.10175   0.53396   0.00000  Uiso   1.00
H689   H     0.68530   0.06245   0.97509   0.00000  Uiso   1.00
H690   H     0.86352   0.24577   0.89413   0.00000  Uiso   1.00
N691   N     0.98241   0.18074   0.76416   0.00000  Uiso   1.00
N692   N     0.68426   0.15259   0.73584   0.00000  Uiso   1.00
O693   O     0.79464   0.23807   0.74633   0.00000  Uiso   1.00
O694   O     0.89524   0.24755   0.75587   0.00000  Uiso   1.00
O695   O     0.75848   0.15960   0.81840   0.00000  Uiso   1.00
O696   O     0.85908   0.16908   0.82793   0.00000  Uiso   1.00
O697   O     0.77142   0.08578   0.74414   0.00000  Uiso   1.00
O698   O     0.87203   0.09526   0.75367   0.00000  Uiso   1.00
O699   O     0.80758   0.16425   0.67207   0.00000  Uiso   1.00
O700   O     0.90819   0.17373   0.68161   0.00000  Uiso   1.00
C701   C     0.67723   0.22955   0.78891   0.00000  Uiso   1.00
C702   C     0.97252   0.24576   0.83710   0.00000  Uiso   1.00
H703   H     0.66770   0.27721   0.85862   0.00000  Uiso   1.00
H704   H     0.93435   0.26262   0.83005   0.00000  Uiso   1.00
H705   H     0.95736   0.21139   0.86015   0.00000  Uiso   1.00
H706   H     0.68735   0.26115   0.76259   0.00000  Uiso   1.00
H707   H     0.71669   0.22487   0.80412   0.00000  Uiso   1.00
C708   C     0.76665   0.19269   0.59464   0.00000  Uiso   1.00
C709   C     0.76924   0.24686   0.62349   0.00000  Uiso   1.00
H710   H     0.72420   0.24933   0.64653   0.00000  Uiso   1.00
H711   H     0.80402   0.25508   0.64898   0.00000  Uiso   1.00
H712   H     0.78091   0.27798   0.59642   0.00000  Uiso   1.00
H713   H     0.73845   0.19325   0.56501   0.00000  Uiso   1.00
H714   H     0.73991   0.16055   0.61767   0.00000  Uiso   1.00
C715   C     0.68668   0.08440   0.88226   0.00000  Uiso   1.00
H716   H     0.67849   0.04182   0.87780   0.00000  Uiso   1.00
O717   O     0.98958   0.10784   0.86280   0.00000  Uiso   1.00
C718   C     0.91858   0.01019   0.70566   0.00000  Uiso   1.00
H719   H     0.92150   0.04396   0.68453   0.00000  Uiso   1.00
O720   O     0.96412   0.32430   0.70217   0.00000  Uiso   1.00
C721   C     0.18247   0.59944   0.74789   0.00000  Uiso   1.00
C722   C     0.14035   0.49527   0.98556   0.00000  Uiso   1.00
C723   C     0.14985   0.51354   0.93705   0.00000  Uiso   1.00
C724   C     0.18031   0.51931   0.51983   0.00000  Uiso   1.00
C725   C     0.23616   0.55159   0.50223   0.00000  Uiso   1.00
C726   C     0.24179   0.57403   0.95665   0.00000  Uiso   1.00
C727   C     0.19578   0.55799   0.92648   0.00000  Uiso   1.00
C728   C     0.16422   0.51643   0.57186   0.00000  Uiso   1.00
C729   C     0.27194   0.54341   0.58002   0.00000  Uiso   1.00
C730   C     0.11348   0.48726   0.90073   0.00000  Uiso   1.00
C731   C     0.19295   0.65353   0.73659   0.00000  Uiso   1.00
C732   C     0.13377   0.49600   0.84656   0.00000  Uiso   1.00
C733   C     0.14565   0.34488   0.74970   0.00000  Uiso   1.00
C734   C     0.15256   0.40023   0.74750   0.00000  Uiso   1.00
C735   C     0.19849   0.50693   0.65396   0.00000  Uiso   1.00
C736   C     0.28272   0.56296   0.53227   0.00000  Uiso   1.00
C737   C     0.21234   0.52038   0.60093   0.00000  Uiso   1.00
C738   C     0.06329   0.44611   0.91577   0.00000  Uiso   1.00
C739   C     0.05503   0.42848   0.96392   0.00000  Uiso   1.00
C740   C     0.09381   0.45169   0.99791   0.00000  Uiso   1.00
Cu741  Cu    0.10710   0.49439   0.74436   0.00000  Uiso   1.00
Cu742  Cu    0.22623   0.50561   0.75565   0.00000  Uiso   1.00
H743   H     0.30848   0.55050   0.60229   0.00000  Uiso   1.00
H744   H     0.10168   0.65838   0.76786   0.00000  Uiso   1.00
H745   H     0.32823   0.45485   0.71536   0.00000  Uiso   1.00
H746   H     0.28043   0.60478   0.94529   0.00000  Uiso   1.00
H747   H     0.32715   0.58583   0.51864   0.00000  Uiso   1.00
H748   H     0.08738   0.43508   0.53396   0.00000  Uiso   1.00
H749   H     0.01864   0.39578   0.97509   0.00000  Uiso   1.00
H750   H     0.19685   0.57910   0.89413   0.00000  Uiso   1.00
N751   N     0.31574   0.51407   0.76416   0.00000  Uiso   1.00
N752   N     0.01759   0.48593   0.73584   0.00000  Uiso   1.00
O753   O     0.12797   0.57141   0.74633   0.00000  Uiso   1.00
O754   O     0.22858   0.58089   0.75587   0.00000  Uiso   1.00
O755   O     0.09181   0.49293   0.81840   0.00000  Uiso   1.00
O756   O     0.19242   0.50241   0.82793   0.00000  Uiso   1.00
O757   O     0.10476   0.41911   0.74414   0.00000  Uiso   1.00
O758   O     0.20536   0.42859   0.75367   0.00000  Uiso   1.00
O759   O     0.14092   0.49759   0.67207   0.00000  Uiso   1.00
O760   O     0.24152   0.50707   0.68161   0.00000  Uiso   1.00
C761   C     0.01057   0.56289   0.78891   0.00000  Uiso   1.00
C762   C     0.30585   0.57909   0.83710   0.00000  Uiso   1.00
H763   H     0.00103   0.61054   0.85862   0.00000  Uiso   1.00
H764   H     0.26769   0.59596   0.83005   0.00000  Uiso   1.00
H765   H     0.29070   0.54473   0.86015   0.00000  Uiso   1.00
H766   H     0.02069   0.59449   0.76259   0.00000  Uiso   1.00
H767   H     0.05003   0.55820   0.80412   0.00000  Uiso   1.00
C768   C     0.09998   0.52603   0.59464   0.00000  Uiso   1.00
C769   C     0.10258   0.58019   0.62349   0.00000  Uiso   1.00
H770   H     0.05753   0.58266   0.64653   0.00000  Uiso   1.00
H771   H     0.13735   0.58841   0.64898   0.00000  Uiso   1.00
H772   H     0.11424   0.61131   0.59642   0.00000  Uiso   1.00
H773   H     0.07178   0.52658   0.56501   0.00000  Uiso   1.00
H774   H     0.07325   0.49388   0.61767   0.00000  Uiso   1.00
C775   C     0.02002   0.41774   0.88226   0.00000  Uiso   1.00
H776   H     0.01182   0.37516   0.87780   0.00000  Uiso   1.00
O777   O     0.32291   0.44117   0.86280   0.00000  Uiso   1.00
C778   C     0.25191   0.34352   0.70566   0.00000  Uiso   1.00
H779   H     0.25483   0.37730   0.68453   0.00000  Uiso   1.00
O780   O     0.29745   0.65763   0.70217   0.00000  Uiso   1.00
C781   C     0.51581   0.59944   0.74789   0.00000  Uiso   1.00
C782   C     0.47368   0.49527   0.98556   0.00000  Uiso   1.00
C783   C     0.48319   0.51354   0.93705   0.00000  Uiso   1.00
C784   C     0.51364   0.51931   0.51983   0.00000  Uiso   1.00
C785   C     0.56950   0.55159   0.50223   0.00000  Uiso   1.00
C786   C     0.57513   0.57403   0.95665   0.00000  Uiso   1.00
C787   C     0.52911   0.55799   0.92648   0.00000  Uiso   1.00
C788   C     0.49755   0.51643   0.57186   0.00000  Uiso   1.00
C789   C     0.60527   0.54341   0.58002   0.00000  Uiso   1.00
C790   C     0.44682   0.48726   0.90073   0.00000  Uiso   1.00
C791   C     0.52628   0.65353   0.73659   0.00000  Uiso   1.00
C792   C     0.46710   0.49600   0.84656   0.00000  Uiso   1.00
C793   C     0.47898   0.34488   0.74970   0.00000  Uiso   1.00
C794   C     0.48590   0.40023   0.74750   0.00000  Uiso   1.00
C795   C     0.53182   0.50693   0.65396   0.00000  Uiso   1.00
C796   C     0.61605   0.56296   0.53227   0.00000  Uiso   1.00
C797   C     0.54568   0.52038   0.60093   0.00000  Uiso   1.00
C798   C     0.39662   0.44611   0.91577   0.00000  Uiso   1.00
C799   C     0.38836   0.42848   0.96392   0.00000  Uiso   1.00
C800   C     0.42714   0.45169   0.99791   0.00000  Uiso   1.00
Cu801  Cu    0.44043   0.49439   0.74436   0.00000  Uiso   1.00
Cu802  Cu    0.55957   0.50561   0.75565   0.00000  Uiso   1.00
H803   H     0.64181   0.55050   0.60229   0.00000  Uiso   1.00
H804   H     0.43501   0.65838   0.76786   0.00000  Uiso   1.00
H805   H     0.66156   0.45485   0.71536   0.00000  Uiso   1.00
H806   H     0.61376   0.60478   0.94529   0.00000  Uiso   1.00
H807   H     0.66048   0.58583   0.51864   0.00000  Uiso   1.00
H808   H     0.42071   0.43508   0.53396   0.00000  Uiso   1.00
H809   H     0.35197   0.39578   0.97509   0.00000  Uiso   1.00
H810   H     0.53019   0.57910   0.89413   0.00000  Uiso   1.00
N811   N     0.64908   0.51407   0.76416   0.00000  Uiso   1.00
N812   N     0.35092   0.48593   0.73584   0.00000  Uiso   1.00
O813   O     0.46131   0.57141   0.74633   0.00000  Uiso   1.00
O814   O     0.56191   0.58089   0.75587   0.00000  Uiso   1.00
O815   O     0.42515   0.49293   0.81840   0.00000  Uiso   1.00
O816   O     0.52575   0.50241   0.82793   0.00000  Uiso   1.00
O817   O     0.43809   0.41911   0.74414   0.00000  Uiso   1.00
O818   O     0.53869   0.42859   0.75367   0.00000  Uiso   1.00
O819   O     0.47425   0.49759   0.67207   0.00000  Uiso   1.00
O820   O     0.57485   0.50707   0.68161   0.00000  Uiso   1.00
C821   C     0.34390   0.56289   0.78891   0.00000  Uiso   1.00
C822   C     0.63918   0.57909   0.83710   0.00000  Uiso   1.00
H823   H     0.33436   0.61054   0.85862   0.00000  Uiso   1.00
H824   H     0.60102   0.59596   0.83005   0.00000  Uiso   1.00
H825   H     0.62403   0.54473   0.86015   0.00000  Uiso   1.00
H826   H     0.35402   0.59449   0.76259   0.00000  Uiso   1.00
H827   H     0.38336   0.55820   0.80412   0.00000  Uiso   1.00
C828   C     0.43331   0.52603   0.59464   0.00000  Uiso   1.00
C829   C     0.43591   0.58019   0.62349   0.00000  Uiso   1.00
H830   H     0.39086   0.58266   0.64653   0.00000  Uiso   1.00
H831   H     0.47068   0.58841   0.64898   0.00000  Uiso   1.00
H832   H     0.44757   0.61131   0.59642   0.00000  Uiso   1.00
H833   H     0.40512   0.52658   0.56501   0.00000  Uiso   1.00
H834   H     0.40658   0.49388   0.61767   0.00000  Uiso   1.00
C835   C     0.35335   0.41774   0.88226   0.00000  Uiso   1.00
H836   H     0.34516   0.37516   0.87780   0.00000  Uiso   1.00
O837   O     0.65625   0.44117   0.86280   0.00000  Uiso   1.00
C838   C     0.58524   0.34352   0.70566   0.00000  Uiso   1.00
H839   H     0.58816   0.37730   0.68453   0.00000  Uiso   1.00
O840   O     0.63078   0.65763   0.70217   0.00000  Uiso   1.00
C841   C     0.84914   0.59944   0.74789   0.00000  Uiso   1.00
C842   C     0.80702   0.49527   0.98556   0.00000  Uiso   1.00
C843   C     0.81652   0.51354   0.93705   0.00000  Uiso   1.00
C844   C     0.84697   0.51931   0.51983   0.00000  Uiso   1.00
C845   C     0.90283   0.55159   0.50223   0.00000  Uiso   1.00
C846   C     0.90846   0.57403   0.95665   0.00000  Uiso   1.00
C847   C     0.86244   0.55799   0.92648   0.00000  Uiso   1.00
C848   C     0.83089   0.51643   0.57186   0.00000  Uiso   1.00
C849   C     0.93861   0.54341   0.58002   0.00000  Uiso   1.00
C850   C     0.78015   0.48726   0.90073   0.00000  Uiso   1.00
C851   C     0.85961   0.65353   0.73659   0.00000  Uiso   1.00
C852   C     0.80043   0.49600   0.84656   0.00000  Uiso   1.00
C853   C     0.81231   0.34488   0.74970   0.00000  Uiso   1.00
C854   C     0.81923   0.40023   0.74750   0.00000  Uiso   1.00
C855   C     0.86515   0.50693   0.65396   0.00000  Uiso   1.00
C856   C     0.94938   0.56296   0.53227   0.00000  Uiso   1.00
C857   C     0.87901   0.52038   0.60093   0.00000  Uiso   1.00
C858   C     0.72995   0.44611   0.91577   0.00000  Uiso   1.00
C859   C     0.72170   0.42848   0.96392   0.00000  Uiso   1.00
C860   C     0.76048   0.45169   0.99791   0.00000  Uiso   1.00
Cu861  Cu    0.77377   0.49439   0.74436   0.00000  Uiso   1.00
Cu862  Cu    0.89290   0.50561   0.75565   0.00000  Uiso   1.00
H863   H     0.97515   0.55050   0.60229   0.00000  Uiso   1.00
H864   H     0.76835   0.65838   0.76786   0.00000  Uiso   1.00
H865   H     0.99489   0.45485   0.71536   0.00000  Uiso   1.00
H866   H     0.94710   0.60478   0.94529   0.00000  Uiso   1.00
H867   H     0.99382   0.58583   0.51864   0.00000  Uiso   1.00
H868   H     0.75405   0.43508   0.53396   0.00000  Uiso   1.00
H869   H     0.68530   0.39578   0.97509   0.00000  Uiso   1.00
H870   H     0.86352   0.57910   0.89413   0.00000  Uiso   1.00
N871   N     0.98241   0.51407   0.76416   0.00000  Uiso   1.00
N872   N     0.68426   0.48593   0.73584   0.00000  Uiso   1.00
O873   O     0.79464   0.57141   0.74633   0.00000  Uiso   1.00
O874   O     0.89524   0.58089   0.75587   0.00000  Uiso   1.00
O875   O     0.75848   0.49293   0.81840   0.00000  Uiso   1.00
O876   O     0.85908   0.50241   0.82793   0.00000  Uiso   1.00
O877   O     0.77142   0.41911   0.74414   0.00000  Uiso   1.00
O878   O     0.87203   0.42859   0.75367   0.00000  Uiso   1.00
O879   O     0.80758   0.49759   0.67207   0.00000  Uiso   1.00
O880   O     0.90819   0.50707   0.68161   0.00000  Uiso   1.00
C881   C     0.67723   0.56289   0.78891   0.00000  Uiso   1.00
C882   C     0.97252   0.57909   0.83710   0.00000  Uiso   1.00
H883   H     0.66770   0.61054   0.85862   0.00000  Uiso   1.00
H884   H     0.93435   0.59596   0.83005   0.00000  Uiso   1.00
H885   H     0.95736   0.54473   0.86015   0.00000  Uiso   1.00
H886   H     0.68735   0.59449   0.76259   0.00000  Uiso   1.00
H887   H     0.71669   0.55820   0.80412   0.00000  Uiso   1.00
C888   C     0.76665   0.52603   0.59464   0.00000  Uiso   1.00
C889   C     0.76924   0.58019   0.62349   0.00000  Uiso   1.00
H890   H     0.72420   0.58266   0.64653   0.00000  Uiso   1.00
H891   H     0.80402   0.58841   0.64898   0.00000  Uiso   1.00
H892   H     0.78091   0.61131   0.59642   0.00000  Uiso   1.00
H893   H     0.73845   0.52658   0.56501   0.00000  Uiso   1.00
H894   H     0.73991   0.49388   0.61767   0.00000  Uiso   1.00
C895   C     0.68668   0.41774   0.88226   0.00000  Uiso   1.00
H896   H     0.67849   0.37516   0.87780   0.00000  Uiso   1.00
O897   O     0.98958   0.44117   0.86280   0.00000  Uiso   1.00
C898   C     0.91858   0.34352   0.70566   0.00000  Uiso   1.00
H899   H     0.92150   0.37730   0.68453   0.00000  Uiso   1.00
O900   O     0.96412   0.65763   0.70217   0.00000  Uiso   1.00
C901   C     0.18247   0.93278   0.74789   0.00000  Uiso   1.00
C902   C     0.14035   0.82860   0.98556   0.00000  Uiso   1.00
C903   C     0.14985   0.84688   0.93705   0.00000  Uiso   1.00
C904   C     0.18031   0.85265   0.51983   0.00000  Uiso   1.00
C905   C     0.23616   0.88493   0.50223   0.00000  Uiso   1.00
C906   C     0.24179   0.90737   0.95665   0.00000  Uiso   1.00
C907   C     0.19578   0.89133   0.92648   0.00000  Uiso   1.00
C908   C     0.16422   0.84977   0.57186   0.00000  Uiso   1.00
C909   C     0.27194   0.87675   0.58002   0.00000  Uiso   1.00
C910   C     0.11348   0.82059   0.90073   0.00000  Uiso   1.00
C911   C     0.19295   0.98686   0.73659   0.00000  Uiso   1.00
C912   C     0.13377   0.82934   0.84656   0.00000  Uiso   1.00
C913   C     0.14565   0.67821   0.74970   0.00000  Uiso   1.00
C914   C     0.15256   0.73357   0.74750   0.00000  Uiso   1.00
C915   C     0.19849   0.84026   0.65396   0.00000  Uiso   1.00
C916   C     0.28272   0.89629   0.53227   0.00000  Uiso   1.00
C917   C     0.21234   0.85372   0.60093   0.00000  Uiso   1.00
C918   C     0.06329   0.77945   0.91577   0.00000  Uiso   1.00
C919   C     0.05503   0.76181   0.96392   0.00000  Uiso   1.00
C920   C     0.09381   0.78503   0.99791   0.00000  Uiso   1.00
Cu921  Cu    0.10710   0.82772   0.74436   0.00000  Uiso   1.00
Cu922  Cu    0.22623   0.83895   0.75565   0.00000  Uiso   1.00
H923   H     0.30848   0.88384   0.60229   0.00000  Uiso   1.00
H924   H     0.10168   0.99171   0.76786   0.00000  Uiso   1.00
H925   H     0.32823   0.78819   0.71536   0.00000  Uiso   1.00
H926   H     0.28043   0.93811   0.94529   0.00000  Uiso   1.00
H927   H     0.32715   0.91917   0.51864   0.00000  Uiso   1.00
H928   H     0.08738   0.76842   0.53396   0.00000  Uiso   1.00
H929   H     0.01864   0.72912   0.97509   0.00000  Uiso   1.00
H930   H     0.19685   0.91243   0.89413   0.00000  Uiso   1.00
N931   N     0.31574   0.84741   0.76416   0.00000  Uiso   1.00
N932   N     0.01759   0.81926   0.73584   0.00000  Uiso   1.00
O933   O     0.12797   0.90474   0.74633   0.00000  Uiso   1.00
O934   O     0.22858   0.91422   0.75587   0.00000  Uiso   1.00
O935   O     0.09181   0.82627   0.81840   0.00000  Uiso   1.00
O936   O     0.19242   0.83575   0.82793   0.00000  Uiso   1.00
O937   O     0.10476   0.75245   0.74414   0.00000  Uiso   1.00
O938   O     0.20536   0.76193   0.75367   0.00000  Uiso   1.00
O939   O     0.14092   0.83092   0.67207   0.00000  Uiso   1.00
O940   O     0.24152   0.84040   0.68161   0.00000  Uiso   1.00
C941   C     0.01057   0.89622   0.78891   0.00000  Uiso   1.00
C942   C     0.30585   0.91243   0.83710   0.00000  Uiso   1.00
H943   H     0.00103   0.94387   0.85862   0.00000  Uiso   1.00
H944   H     0.26769   0.92929   0.83005   0.00000  Uiso   1.00
H945   H     0.29070   0.87806   0.86015   0.00000  Uiso   1.00
H946   H     0.02069   0.92782   0.76259   0.00000  Uiso   1.00
H947   H     0.05003   0.89153   0.80412   0.00000  Uiso   1.00
C948   C     0.09998   0.85936   0.59464   0.00000  Uiso   1.00
C949   C     0.10258   0.91353   0.62349   0.00000  Uiso   1.00
H950   H     0.05753   0.91600   0.64653   0.00000  Uiso   1.00
H951   H     0.13735   0.92175   0.64898   0.00000  Uiso   1.00
H952   H     0.11424   0.94464   0.59642   0.00000  Uiso   1.00
H953   H     0.07178   0.85991   0.56501   0.00000  Uiso   1.00
H954   H     0.07325   0.82722   0.61767   0.00000  Uiso   1.00
C955   C     0.02002   0.75107   0.88226   0.00000  Uiso   1.00
H956   H     0.01182   0.70849   0.87780   0.00000  Uiso   1.00
O957   O     0.32291   0.77450   0.86280   0.00000  Uiso   1.00
C958   C     0.25191   0.67686   0.70566   0.00000  Uiso   1.00
H959   H     0.25483   0.71063   0.68453   0.00000  Uiso   1.00
O960   O     0.29745   0.99096   0.70217   0.00000  Uiso   1.00
C961   C     0.51581   0.93278   0.74789   0.00000  Uiso   1.00
C962   C     0.47368   0.82860   0.98556   0.00000  Uiso   1.00
C963   C     0.48319   0.84688   0.93705   0.00000  Uiso   1.00
C964   C     0.51364   0.85265   0.51983   0.00000  Uiso   1.00
C965   C     0.56950   0.88493   0.50223   0.00000  Uiso   1.00
C966   C     0.57513   0.90737   0.95665   0.00000  Uiso   1.00
C967   C     0.52911   0.89133   0.92648   0.00000  Uiso   1.00
C968   C     0.49755   0.84977   0.57186   0.00000  Uiso   1.00
C969   C     0.60527   0.87675   0.58002   0.00000  Uiso   1.00
C970   C     0.44682   0.82059   0.90073   0.00000  Uiso   1.00
C971   C     0.52628   0.98686   0.73659   0.00000  Uiso   1.00
C972   C     0.46710   0.82934   0.84656   0.00000  Uiso   1.00
C973   C     0.47898   0.67821   0.74970   0.00000  Uiso   1.00
C974   C     0.48590   0.73357   0.74750   0.00000  Uiso   1.00
C975   C     0.53182   0.84026   0.65396   0.00000  Uiso   1.00
C976   C     0.61605   0.89629   0.53227   0.00000  Uiso   1.00
C977   C     0.54568   0.85372   0.60093   0.00000  Uiso   1.00
C978   C     0.39662   0.77945   0.91577   0.00000  Uiso   1.00
C979   C     0.38836   0.76181   0.96392   0.00000  Uiso   1.00
C980   C     0.42714   0.78503   0.99791   0.00000  Uiso   1.00
Cu981  Cu    0.44043   0.82772   0.74436   0.00000  Uiso   1.00
Cu982  Cu    0.55957   0.83895   0.75565   0.00000  Uiso   1.00
H983   H     0.64181   0.88384   0.60229   0.00000  Uiso   1.00
H984   H     0.43501   0.99171   0.76786   0.00000  Uiso   1.00
H985   H     0.66156   0.78819   0.71536   0.00000  Uiso   1.00
H986   H     0.61376   0.93811   0.94529   0.00000  Uiso   1.00
H987   H     0.66048   0.91917   0.51864   0.00000  Uiso   1.00
H988   H     0.42071   0.76842   0.53396   0.00000  Uiso   1.00
H989   H     0.35197   0.72912   0.97509   0.00000  Uiso   1.00
H990   H     0.53019   0.91243   0.89413   0.00000  Uiso   1.00
N991   N     0.64908   0.84741   0.76416   0.00000  Uiso   1.00
N992   N     0.35092   0.81926   0.73584   0.00000  Uiso   1.00
O993   O     0.46131   0.90474   0.74633   0.00000  Uiso   1.00
O994   O     0.56191   0.91422   0.75587   0.00000  Uiso   1.00
O995   O     0.42515   0.82627   0.81840   0.00000  Uiso   1.00
O996   O     0.52575   0.83575   0.82793   0.00000  Uiso   1.00
O997   O     0.43809   0.75245   0.74414   0.00000  Uiso   1.00
O998   O     0.53869   0.76193   0.75367   0.00000  Uiso   1.00
O999   O     0.47425   0.83092   0.67207   0.00000  Uiso   1.00
O1000  O     0.57485   0.84040   0.68161   0.00000  Uiso   1.00
C1001  C     0.34390   0.89622   0.78891   0.00000  Uiso   1.00
C1002  C     0.63918   0.91243   0.83710   0.00000  Uiso   1.00
H1003  H     0.33436   0.94387   0.85862   0.00000  Uiso   1.00
H1004  H     0.60102   0.92929   0.83005   0.00000  Uiso   1.00
H1005  H     0.62403   0.87806   0.86015   0.00000  Uiso   1.00
H1006  H     0.35402   0.92782   0.76259   0.00000  Uiso   1.00
H1007  H     0.38336   0.89153   0.80412   0.00000  Uiso   1.00
C1008  C     0.43331   0.85936   0.59464   0.00000  Uiso   1.00
C1009  C     0.43591   0.91353   0.62349   0.00000  Uiso   1.00
H1010  H     0.39086   0.91600   0.64653   0.00000  Uiso   1.00
H1011  H     0.47068   0.92175   0.64898   0.00000  Uiso   1.00
H1012  H     0.44757   0.94464   0.59642   0.00000  Uiso   1.00
H1013  H     0.40512   0.85991   0.56501   0.00000  Uiso   1.00
H1014  H     0.40658   0.82722   0.61767   0.00000  Uiso   1.00
C1015  C     0.35335   0.75107   0.88226   0.00000  Uiso   1.00
H1016  H     0.34516   0.70849   0.87780   0.00000  Uiso   1.00
O1017  O     0.65625   0.77450   0.86280   0.00000  Uiso   1.00
C1018  C     0.58524   0.67686   0.70566   0.00000  Uiso   1.00
H1019  H     0.58816   0.71063   0.68453   0.00000  Uiso   1.00
O1020  O     0.63078   0.99096   0.70217   0.00000  Uiso   1.00
C1021  C     0.84914   0.93278   0.74789   0.00000  Uiso   1.00
C1022  C     0.80702   0.82860   0.98556   0.00000  Uiso   1.00
C1023  C     0.81652   0.84688   0.93705   0.00000  Uiso   1.00
C1024  C     0.84697   0.85265   0.51983   0.00000  Uiso   1.00
C1025  C     0.90283   0.88493   0.50223   0.00000  Uiso   1.00
C1026  C     0.90846   0.90737   0.95665   0.00000  Uiso   1.00
C1027  C     0.86244   0.89133   0.92648   0.00000  Uiso   1.00
C1028  C     0.83089   0.84977   0.57186   0.00000  Uiso   1.00
C1029  C     0.93861   0.87675   0.58002   0.00000  Uiso   1.00
C1030  C     0.78015   0.82059   0.90073   0.00000  Uiso   1.00
C1031  C     0.85961   0.98686   0.73659   0.00000  Uiso   1.00
C1032  C     0.80043   0.82934   0.84656   0.00000  Uiso   1.00
C1033  C     0.81231   0.67821   0.74970   0.00000  Uiso   1.00
C1034  C     0.81923   0.73357   0.74750   0.00000  Uiso   1.00
C1035  C     0.86515   0.84026   0.65396   0.00000  Uiso   1.00
C1036  C     0.94938   0.89629   0.53227   0.00000  Uiso   1.00
C1037  C     0.87901   0.85372   0.60093   0.00000  Uiso   1.00
C1038  C     0.72995   0.77945   0.91577   0.00000  Uiso   1.00
C1039  C     0.72170   0.76181   0.96392   0.00000  Uiso   1.00
C1040  C     0.76048   0.78503   0.99791   0.00000  Uiso   1.00
Cu1041 Cu    0.77377   0.82772   0.74436   0.00000  Uiso   1.00
Cu1042 Cu    0.89290   0.83895   0.75565   0.00000  Uiso   1.00
H1043  H     0.97515   0.88384   0.60229   0.00000  Uiso   1.00
H1044  H     0.76835   0.99171   0.76786   0.00000  Uiso   1.00
H1045  H     0.99489   0.78819   0.71536   0.00000  Uiso   1.00
H1046  H     0.94710   0.93811   0.94529   0.00000  Uiso   1.00
H1047  H     0.99382   0.91917   0.51864   0.00000  Uiso   1.00
H1048  H     0.75405   0.76842   0.53396   0.00000  Uiso   1.00
H1049  H     0.68530   0.72912   0.97509   0.00000  Uiso   1.00
H1050  H     0.86352   0.91243   0.89413   0.00000  Uiso   1.00
N1051  N     0.98241   0.84741   0.76416   0.00000  Uiso   1.00
N1052  N     0.68426   0.81926   0.73584   0.00000  Uiso   1.00
O1053  O     0.79464   0.90474   0.74633   0.00000  Uiso   1.00
O1054  O     0.89524   0.91422   0.75587   0.00000  Uiso   1.00
O1055  O     0.75848   0.82627   0.81840   0.00000  Uiso   1.00
O1056  O     0.85908   0.83575   0.82793   0.00000  Uiso   1.00
O1057  O     0.77142   0.75245   0.74414   0.00000  Uiso   1.00
O1058  O     0.87203   0.76193   0.75367   0.00000  Uiso   1.00
O1059  O     0.80758   0.83092   0.67207   0.00000  Uiso   1.00
O1060  O     0.90819   0.84040   0.68161   0.00000  Uiso   1.00
C1061  C     0.67723   0.89622   0.78891   0.00000  Uiso   1.00
C1062  C     0.97252   0.91243   0.83710   0.00000  Uiso   1.00
H1063  H     0.66770   0.94387   0.85862   0.00000  Uiso   1.00
H1064  H     0.93435   0.92929   0.83005   0.00000  Uiso   1.00
H1065  H     0.95736   0.87806   0.86015   0.00000  Uiso   1.00
H1066  H     0.68735   0.92782   0.76259   0.00000  Uiso   1.00
H1067  H     0.71669   0.89153   0.80412   0.00000  Uiso   1.00
C1068  C     0.76665   0.85936   0.59464   0.00000  Uiso   1.00
C1069  C     0.76924   0.91353   0.62349   0.00000  Uiso   1.00
H1070  H     0.72420   0.91600   0.64653   0.00000  Uiso   1.00
H1071  H     0.80402   0.92175   0.64898   0.00000  Uiso   1.00
H1072  H     0.78091   0.94464   0.59642   0.00000  Uiso   1.00
H1073  H     0.73845   0.85991   0.56501   0.00000  Uiso   1.00
H1074  H     0.73991   0.82722   0.61767   0.00000  Uiso   1.00
C1075  C     0.68668   0.75107   0.88226   0.00000  Uiso   1.00
H1076  H     0.67849   0.70849   0.87780   0.00000  Uiso   1.00
O1077  O     0.98958   0.77450   0.86280   0.00000  Uiso   1.00
C1078  C     0.91858   0.67686   0.70566   0.00000  Uiso   1.00
H1079  H     0.92150   0.71063   0.68453   0.00000  Uiso   1.00
O1080  O     0.96412   0.99096   0.70217   0.00000  Uiso   1.00
loop_
_geom_bond_atom_site_label_1
_geom_bond_atom_site_label_2
_geom_bond_distance
_geom_bond_site_symmetry_2
_ccdc_geom_bond_type
C1     O33     1.302   .     A
C1     O34     1.294   .     A
C1     C11     1.438   .     S
C2     C3      1.409   .     A
C2     C20     1.406   .     A
C2     C544    1.413   .     S
C3     C10     1.418   .     A
C3     C7      1.406   .     A
C4     C8      1.397   .     A
C4     C5      1.404   .     A
C4     C542    1.413   1_554 S
C5     C16     1.403   .     A
C5     C546    1.394   1_554 S
C6     C7      1.401   .     A
C6     H26     1.083   .     S
C6     C545    1.394   .     S
C7     H30     1.076   .     S
C8     C48     1.537   .     S
C8     C17     1.429   .     A
C9     C17     1.405   .     A
C9     C16     1.401   .     A
C9     H23     1.078   .     S
C10    C18     1.427   .     A
C10    C12     1.484   .     S
C11    C193    1.338   .     S
C11    C238    1.496   .     S
C12    O36     1.319   .     A
C12    O35     1.300   .     A
C13    C14     1.426   .     S
C13    C371    1.338   1_545 S
C13    H384    1.082   1_545 S
C14    O37     1.297   .     A
C14    O38     1.296   .     A
C15    O39     1.292   .     A
C15    O40     1.324   .     A
C15    C17     1.477   .     S
C16    H27     1.083   .     S
C18    C55     1.479   .     S
C18    C19     1.395   .     A
C19    H29     1.084   .     S
C19    C20     1.385   .     A
C20    H568    1.083   .     S
Cu21   O35     1.974   .     S
Cu21   O39     1.976   .     S
Cu21   Cu22    2.716   .     S
Cu21   N32     2.041   .     S
Cu21   O33     1.964   .     S
Cu21   O37     1.953   .     S
Cu22   O40     1.974   .     S
Cu22   O34     1.953   .     S
Cu22   N31     2.041   .     S
Cu22   O36     1.976   .     S
Cu22   O38     1.964   .     S
H24    C193    1.082   .     S
H25    N92     1.028   .     S
H28    C560    1.083   1_554 S
N31    N92     1.293   .     S
N31    C101    1.451   .     S
N32    N151    1.293   1_455 S
N32    H145    1.028   1_455 S
C41    H47     1.078   .     S
C41    H46     1.108   .     S
C41    N151    1.451   1_455 S
C41    C162    1.505   1_455 S
C42    H44     1.098   .     S
C42    H45     1.108   .     S
C42    C101    1.505   .     S
C42    H103    1.112   .     S
H43    C162    1.112   1_455 S
C48    H53     1.109   .     S
C48    H54     1.108   .     S
C48    C49     1.535   .     S
C49    H52     1.111   .     S
C49    H50     1.110   .     S
C49    H51     1.106   .     S
C55    H56     1.085   .     S
C55    O177    1.221   1_455 S
O57    C115    1.221   .     S
C58    H59     1.084   .     S
C58    C371    1.496   1_545 S
C58    O420    1.221   1_545 S
O60    C238    1.221   .     S
C61    O93     1.302   .     A
C61    O94     1.294   .     A
C61    C71     1.438   .     S
C62    C63     1.409   .     A
C62    C80     1.406   .     A
C62    C604    1.413   .     S
C63    C70     1.418   .     A
C63    C67     1.406   .     A
C64    C68     1.397   .     A
C64    C65     1.404   .     A
C64    C602    1.413   1_554 S
C65    C76     1.403   .     A
C65    C606    1.394   1_554 S
C66    C67     1.401   .     A
C66    H86     1.083   .     S
C66    C605    1.394   .     S
C67    H90     1.076   .     S
C68    C108    1.537   .     S
C68    C77     1.429   .     A
C69    C77     1.405   .     A
C69    C76     1.401   .     A
C69    H83     1.078   .     S
C70    C78     1.427   .     A
C70    C72     1.484   .     S
C71    C253    1.338   .     S
C71    C298    1.496   .     S
C72    O96     1.319   .     A
C72    O95     1.300   .     A
C73    C74     1.426   .     S
C73    C431    1.338   1_545 S
C73    H444    1.082   1_545 S
C74    O97     1.297   .     A
C74    O98     1.296   .     A
C75    O99     1.292   .     A
C75    O100    1.324   .     A
C75    C77     1.477   .     S
C76    H87     1.083   .     S
C78    C115    1.479   .     S
C78    C79     1.395   .     A
C79    H89     1.084   .     S
C79    C80     1.385   .     A
C80    H628    1.083   .     S
Cu81   O95     1.974   .     S
Cu81   O99     1.976   .     S
Cu81   Cu82    2.716   .     S
Cu81   N92     2.041   .     S
Cu81   O93     1.964   .     S
Cu81   O97     1.953   .     S
Cu82   O100    1.974   .     S
Cu82   O94     1.953   .     S
Cu82   N91     2.041   .     S
Cu82   O96     1.976   .     S
Cu82   O98     1.964   .     S
H84    C253    1.082   .     S
H85    N152    1.028   .     S
H88    C620    1.083   1_554 S
N91    N152    1.293   .     S
N91    C161    1.451   .     S
C101   H107    1.078   .     S
C101   H106    1.108   .     S
C102   H104    1.098   .     S
C102   H105    1.108   .     S
C102   C161    1.505   .     S
C102   H163    1.112   .     S
C108   H113    1.109   .     S
C108   H114    1.108   .     S
C108   C109    1.535   .     S
C109   H112    1.111   .     S
C109   H110    1.110   .     S
C109   H111    1.106   .     S
C115   H116    1.085   .     S
O117   C175    1.221   .     S
C118   H119    1.084   .     S
C118   C431    1.496   1_545 S
C118   O480    1.221   1_545 S
O120   C298    1.221   .     S
C121   O153    1.302   .     A
C121   O154    1.294   .     A
C121   C131    1.438   .     S
C122   C123    1.409   .     A
C122   C140    1.406   .     A
C122   C664    1.413   .     S
C123   C130    1.418   .     A
C123   C127    1.406   .     A
C124   C128    1.397   .     A
C124   C125    1.404   .     A
C124   C662    1.413   1_554 S
C125   C136    1.403   .     A
C125   C666    1.394   1_554 S
C126   C127    1.401   .     A
C126   H146    1.083   .     S
C126   C665    1.394   .     S
C127   H150    1.076   .     S
C128   C168    1.537   .     S
C128   C137    1.429   .     A
C129   C137    1.405   .     A
C129   C136    1.401   .     A
C129   H143    1.078   .     S
C130   C138    1.427   .     A
C130   C132    1.484   .     S
C131   C313    1.338   .     S
C131   C358    1.496   .     S
C132   O156    1.319   .     A
C132   O155    1.300   .     A
C133   C134    1.426   .     S
C133   C491    1.338   1_545 S
C133   H504    1.082   1_545 S
C134   O157    1.297   .     A
C134   O158    1.296   .     A
C135   O159    1.292   .     A
C135   O160    1.324   .     A
C135   C137    1.477   .     S
C136   H147    1.083   .     S
C138   C175    1.479   .     S
C138   C139    1.395   .     A
C139   H149    1.084   .     S
C139   C140    1.385   .     A
C140   H688    1.083   .     S
Cu141  O155    1.974   .     S
Cu141  O159    1.976   .     S
Cu141  Cu142   2.716   .     S
Cu141  N152    2.041   .     S
Cu141  O153    1.964   .     S
Cu141  O157    1.953   .     S
Cu142  O160    1.974   .     S
Cu142  O154    1.953   .     S
Cu142  N151    2.041   .     S
Cu142  O156    1.976   .     S
Cu142  O158    1.964   .     S
H144   C313    1.082   .     S
H145   N32     1.028   1_655 S
H148   C680    1.083   1_554 S
N151   N32     1.293   1_655 S
N151   C41     1.451   1_655 S
C161   H167    1.078   .     S
C161   H166    1.108   .     S
C162   H164    1.098   .     S
C162   H165    1.108   .     S
C162   C41     1.505   1_655 S
C162   H43     1.112   1_655 S
C168   H173    1.109   .     S
C168   H174    1.108   .     S
C168   C169    1.535   .     S
C169   H172    1.111   .     S
C169   H170    1.110   .     S
C169   H171    1.106   .     S
C175   H176    1.085   .     S
O177   C55     1.221   1_655 S
C178   H179    1.084   .     S
C178   C491    1.496   1_545 S
C178   O540    1.221   1_545 S
O180   C358    1.221   .     S
C181   O213    1.302   .     A
C181   O214    1.294   .     A
C181   C191    1.438   .     S
C182   C183    1.409   .     A
C182   C200    1.406   .     A
C182   C724    1.413   .     S
C183   C190    1.418   .     A
C183   C187    1.406   .     A
C184   C188    1.397   .     A
C184   C185    1.404   .     A
C184   C722    1.413   1_554 S
C185   C196    1.403   .     A
C185   C726    1.394   1_554 S
C186   C187    1.401   .     A
C186   H206    1.083   .     S
C186   C725    1.394   .     S
C187   H210    1.076   .     S
C188   C228    1.537   .     S
C188   C197    1.429   .     A
C189   C197    1.405   .     A
C189   C196    1.401   .     A
C189   H203    1.078   .     S
C190   C198    1.427   .     A
C190   C192    1.484   .     S
C191   C373    1.338   .     S
C191   C418    1.496   .     S
C192   O216    1.319   .     A
C192   O215    1.300   .     A
C193   C194    1.426   .     S
C194   O217    1.297   .     A
C194   O218    1.296   .     A
C195   O219    1.292   .     A
C195   O220    1.324   .     A
C195   C197    1.477   .     S
C196   H207    1.083   .     S
C198   C235    1.479   .     S
C198   C199    1.395   .     A
C199   H209    1.084   .     S
C199   C200    1.385   .     A
C200   H748    1.083   .     S
Cu201  O215    1.974   .     S
Cu201  O219    1.976   .     S
Cu201  Cu202   2.716   .     S
Cu201  N212    2.041   .     S
Cu201  O213    1.964   .     S
Cu201  O217    1.953   .     S
Cu202  O220    1.974   .     S
Cu202  O214    1.953   .     S
Cu202  N211    2.041   .     S
Cu202  O216    1.976   .     S
Cu202  O218    1.964   .     S
H204   C373    1.082   .     S
H205   N272    1.028   .     S
H208   C740    1.083   1_554 S
N211   N272    1.293   .     S
N211   C281    1.451   .     S
N212   N331    1.293   1_455 S
N212   H325    1.028   1_455 S
C221   H227    1.078   .     S
C221   H226    1.108   .     S
C221   N331    1.451   1_455 S
C221   C342    1.505   1_455 S
C222   H224    1.098   .     S
C222   H225    1.108   .     S
C222   C281    1.505   .     S
C222   H283    1.112   .     S
H223   C342    1.112   1_455 S
C228   H233    1.109   .     S
C228   H234    1.108   .     S
C228   C229    1.535   .     S
C229   H232    1.111   .     S
C229   H230    1.110   .     S
C229   H231    1.106   .     S
C235   H236    1.085   .     S
C235   O357    1.221   1_455 S
O237   C295    1.221   .     S
C238   H239    1.084   .     S
O240   C418    1.221   .     S
C241   O273    1.302   .     A
C241   O274    1.294   .     A
C241   C251    1.438   .     S
C242   C243    1.409   .     A
C242   C260    1.406   .     A
C242   C784    1.413   .     S
C243   C250    1.418   .     A
C243   C247    1.406   .     A
C244   C248    1.397   .     A
C244   C245    1.404   .     A
C244   C782    1.413   1_554 S
C245   C256    1.403   .     A
C245   C786    1.394   1_554 S
C246   C247    1.401   .     A
C246   H266    1.083   .     S
C246   C785    1.394   .     S
C247   H270    1.076   .     S
C248   C288    1.537   .     S
C248   C257    1.429   .     A
C249   C257    1.405   .     A
C249   C256    1.401   .     A
C249   H263    1.078   .     S
C250   C258    1.427   .     A
C250   C252    1.484   .     S
C251   C433    1.338   .     S
C251   C478    1.496   .     S
C252   O276    1.319   .     A
C252   O275    1.300   .     A
C253   C254    1.426   .     S
C254   O277    1.297   .     A
C254   O278    1.296   .     A
C255   O279    1.292   .     A
C255   O280    1.324   .     A
C255   C257    1.477   .     S
C256   H267    1.083   .     S
C258   C295    1.479   .     S
C258   C259    1.395   .     A
C259   H269    1.084   .     S
C259   C260    1.385   .     A
C260   H808    1.083   .     S
Cu261  O275    1.974   .     S
Cu261  O279    1.976   .     S
Cu261  Cu262   2.716   .     S
Cu261  N272    2.041   .     S
Cu261  O273    1.964   .     S
Cu261  O277    1.953   .     S
Cu262  O280    1.974   .     S
Cu262  O274    1.953   .     S
Cu262  N271    2.041   .     S
Cu262  O276    1.976   .     S
Cu262  O278    1.964   .     S
H264   C433    1.082   .     S
H265   N332    1.028   .     S
H268   C800    1.083   1_554 S
N271   N332    1.293   .     S
N271   C341    1.451   .     S
C281   H287    1.078   .     S
C281   H286    1.108   .     S
C282   H284    1.098   .     S
C282   H285    1.108   .     S
C282   C341    1.505   .     S
C282   H343    1.112   .     S
C288   H293    1.109   .     S
C288   H294    1.108   .     S
C288   C289    1.535   .     S
C289   H292    1.111   .     S
C289   H290    1.110   .     S
C289   H291    1.106   .     S
C295   H296    1.085   .     S
O297   C355    1.221   .     S
C298   H299    1.084   .     S
O300   C478    1.221   .     S
C301   O333    1.302   .     A
C301   O334    1.294   .     A
C301   C311    1.438   .     S
C302   C303    1.409   .     A
C302   C320    1.406   .     A
C302   C844    1.413   .     S
C303   C310    1.418   .     A
C303   C307    1.406   .     A
C304   C308    1.397   .     A
C304   C305    1.404   .     A
C304   C842    1.413   1_554 S
C305   C316    1.403   .     A
C305   C846    1.394   1_554 S
C306   C307    1.401   .     A
C306   H326    1.083   .     S
C306   C845    1.394   .     S
C307   H330    1.076   .     S
C308   C348    1.537   .     S
C308   C317    1.429   .     A
C309   C317    1.405   .     A
C309   C316    1.401   .     A
C309   H323    1.078   .     S
C310   C318    1.427   .     A
C310   C312    1.484   .     S
C311   C493    1.338   .     S
C311   C538    1.496   .     S
C312   O336    1.319   .     A
C312   O335    1.300   .     A
C313   C314    1.426   .     S
C314   O337    1.297   .     A
C314   O338    1.296   .     A
C315   O339    1.292   .     A
C315   O340    1.324   .     A
C315   C317    1.477   .     S
C316   H327    1.083   .     S
C318   C355    1.479   .     S
C318   C319    1.395   .     A
C319   H329    1.084   .     S
C319   C320    1.385   .     A
C320   H868    1.083   .     S
Cu321  O335    1.974   .     S
Cu321  O339    1.976   .     S
Cu321  Cu322   2.716   .     S
Cu321  N332    2.041   .     S
Cu321  O333    1.964   .     S
Cu321  O337    1.953   .     S
Cu322  O340    1.974   .     S
Cu322  O334    1.953   .     S
Cu322  N331    2.041   .     S
Cu322  O336    1.976   .     S
Cu322  O338    1.964   .     S
H324   C493    1.082   .     S
H325   N212    1.028   1_655 S
H328   C860    1.083   1_554 S
N331   N212    1.293   1_655 S
N331   C221    1.451   1_655 S
C341   H347    1.078   .     S
C341   H346    1.108   .     S
C342   H344    1.098   .     S
C342   H345    1.108   .     S
C342   C221    1.505   1_655 S
C342   H223    1.112   1_655 S
C348   H353    1.109   .     S
C348   H354    1.108   .     S
C348   C349    1.535   .     S
C349   H352    1.111   .     S
C349   H350    1.110   .     S
C349   H351    1.106   .     S
C355   H356    1.085   .     S
O357   C235    1.221   1_655 S
C358   H359    1.084   .     S
O360   C538    1.221   .     S
C361   O393    1.302   .     A
C361   O394    1.294   .     A
C361   C371    1.438   .     S
C362   C363    1.409   .     A
C362   C380    1.406   .     A
C362   C904    1.413   .     S
C363   C370    1.418   .     A
C363   C367    1.406   .     A
C364   C368    1.397   .     A
C364   C365    1.404   .     A
C364   C902    1.413   1_554 S
C365   C376    1.403   .     A
C365   C906    1.394   1_554 S
C366   C367    1.401   .     A
C366   H386    1.083   .     S
C366   C905    1.394   .     S
C367   H390    1.076   .     S
C368   C408    1.537   .     S
C368   C377    1.429   .     A
C369   C377    1.405   .     A
C369   C376    1.401   .     A
C369   H383    1.078   .     S
C370   C378    1.427   .     A
C370   C372    1.484   .     S
C371   C13     1.338   1_565 S
C371   C58     1.496   1_565 S
C372   O396    1.319   .     A
C372   O395    1.300   .     A
C373   C374    1.426   .     S
C374   O397    1.297   .     A
C374   O398    1.296   .     A
C375   O399    1.292   .     A
C375   O400    1.324   .     A
C375   C377    1.477   .     S
C376   H387    1.083   .     S
C378   C415    1.479   .     S
C378   C379    1.395   .     A
C379   H389    1.084   .     S
C379   C380    1.385   .     A
C380   H928    1.083   .     S
Cu381  O395    1.974   .     S
Cu381  O399    1.976   .     S
Cu381  Cu382   2.716   .     S
Cu381  N392    2.041   .     S
Cu381  O393    1.964   .     S
Cu381  O397    1.953   .     S
Cu382  O400    1.974   .     S
Cu382  O394    1.953   .     S
Cu382  N391    2.041   .     S
Cu382  O396    1.976   .     S
Cu382  O398    1.964   .     S
H384   C13     1.082   1_565 S
H385   N452    1.028   .     S
H388   C920    1.083   1_554 S
N391   N452    1.293   .     S
N391   C461    1.451   .     S
N392   N511    1.293   1_455 S
N392   H505    1.028   1_455 S
C401   H407    1.078   .     S
C401   H406    1.108   .     S
C401   N511    1.451   1_455 S
C401   C522    1.505   1_455 S
C402   H404    1.098   .     S
C402   H405    1.108   .     S
C402   C461    1.505   .     S
C402   H463    1.112   .     S
H403   C522    1.112   1_455 S
C408   H413    1.109   .     S
C408   H414    1.108   .     S
C408   C409    1.535   .     S
C409   H412    1.111   .     S
C409   H410    1.110   .     S
C409   H411    1.106   .     S
C415   H416    1.085   .     S
C415   O537    1.221   1_455 S
O417   C475    1.221   .     S
C418   H419    1.084   .     S
O420   C58     1.221   1_565 S
C421   O453    1.302   .     A
C421   O454    1.294   .     A
C421   C431    1.438   .     S
C422   C423    1.409   .     A
C422   C440    1.406   .     A
C422   C964    1.413   .     S
C423   C430    1.418   .     A
C423   C427    1.406   .     A
C424   C428    1.397   .     A
C424   C425    1.404   .     A
C424   C962    1.413   1_554 S
C425   C436    1.403   .     A
C425   C966    1.394   1_554 S
C426   C427    1.401   .     A
C426   H446    1.083   .     S
C426   C965    1.394   .     S
C427   H450    1.076   .     S
C428   C468    1.537   .     S
C428   C437    1.429   .     A
C429   C437    1.405   .     A
C429   C436    1.401   .     A
C429   H443    1.078   .     S
C430   C438    1.427   .     A
C430   C432    1.484   .     S
C431   C73     1.338   1_565 S
C431   C118    1.496   1_565 S
C432   O456    1.319   .     A
C432   O455    1.300   .     A
C433   C434    1.426   .     S
C434   O457    1.297   .     A
C434   O458    1.296   .     A
C435   O459    1.292   .     A
C435   O460    1.324   .     A
C435   C437    1.477   .     S
C436   H447    1.083   .     S
C438   C475    1.479   .     S
C438   C439    1.395   .     A
C439   H449    1.084   .     S
C439   C440    1.385   .     A
C440   H988    1.083   .     S
Cu441  O455    1.974   .     S
Cu441  O459    1.976   .     S
Cu441  Cu442   2.716   .     S
Cu441  N452    2.041   .     S
Cu441  O453    1.964   .     S
Cu441  O457    1.953   .     S
Cu442  O460    1.974   .     S
Cu442  O454    1.953   .     S
Cu442  N451    2.041   .     S
Cu442  O456    1.976   .     S
Cu442  O458    1.964   .     S
H444   C73     1.082   1_565 S
H445   N512    1.028   .     S
H448   C980    1.083   1_554 S
N451   N512    1.293   .     S
N451   C521    1.451   .     S
C461   H467    1.078   .     S
C461   H466    1.108   .     S
C462   H464    1.098   .     S
C462   H465    1.108   .     S
C462   C521    1.505   .     S
C462   H523    1.112   .     S
C468   H473    1.109   .     S
C468   H474    1.108   .     S
C468   C469    1.535   .     S
C469   H472    1.111   .     S
C469   H470    1.110   .     S
C469   H471    1.106   .     S
C475   H476    1.085   .     S
O477   C535    1.221   .     S
C478   H479    1.084   .     S
O480   C118    1.221   1_565 S
C481   O513    1.302   .     A
C481   O514    1.294   .     A
C481   C491    1.438   .     S
C482   C483    1.409   .     A
C482   C500    1.406   .     A
C482   C1024   1.413   .     S
C483   C490    1.418   .     A
C483   C487    1.406   .     A
C484   C488    1.397   .     A
C484   C485    1.404   .     A
C484   C1022   1.413   1_554 S
C485   C496    1.403   .     A
C485   C1026   1.394   1_554 S
C486   C487    1.401   .     A
C486   H506    1.083   .     S
C486   C1025   1.394   .     S
C487   H510    1.076   .     S
C488   C528    1.537   .     S
C488   C497    1.429   .     A
C489   C497    1.405   .     A
C489   C496    1.401   .     A
C489   H503    1.078   .     S
C490   C498    1.427   .     A
C490   C492    1.484   .     S
C491   C133    1.338   1_565 S
C491   C178    1.496   1_565 S
C492   O516    1.319   .     A
C492   O515    1.300   .     A
C493   C494    1.426   .     S
C494   O517    1.297   .     A
C494   O518    1.296   .     A
C495   O519    1.292   .     A
C495   O520    1.324   .     A
C495   C497    1.477   .     S
C496   H507    1.083   .     S
C498   C535    1.479   .     S
C498   C499    1.395   .     A
C499   H509    1.084   .     S
C499   C500    1.385   .     A
C500   H1048   1.083   .     S
Cu501  O515    1.974   .     S
Cu501  O519    1.976   .     S
Cu501  Cu502   2.716   .     S
Cu501  N512    2.041   .     S
Cu501  O513    1.964   .     S
Cu501  O517    1.953   .     S
Cu502  O520    1.974   .     S
Cu502  O514    1.953   .     S
Cu502  N511    2.041   .     S
Cu502  O516    1.976   .     S
Cu502  O518    1.964   .     S
H504   C133    1.082   1_565 S
H505   N392    1.028   1_655 S
H508   C1040   1.083   1_554 S
N511   N392    1.293   1_655 S
N511   C401    1.451   1_655 S
C521   H527    1.078   .     S
C521   H526    1.108   .     S
C522   H524    1.098   .     S
C522   H525    1.108   .     S
C522   C401    1.505   1_655 S
C522   H403    1.112   1_655 S
C528   H533    1.109   .     S
C528   H534    1.108   .     S
C528   C529    1.535   .     S
C529   H532    1.111   .     S
C529   H530    1.110   .     S
C529   H531    1.106   .     S
C535   H536    1.085   .     S
O537   C415    1.221   1_655 S
C538   H539    1.084   .     S
O540   C178    1.221   1_565 S
C541   O573    1.302   .     A
C541   O574    1.294   .     A
C541   C551    1.438   .     S
C542   C543    1.409   .     A
C542   C560    1.406   .     A
C542   C4      1.413   1_556 S
C543   C550    1.418   .     A
C543   C547    1.406   .     A
C544   C548    1.397   .     A
C544   C545    1.404   .     A
C545   C556    1.403   .     A
C546   C547    1.401   .     A
C546   H566    1.083   .     S
C546   C5      1.394   1_556 S
C547   H570    1.076   .     S
C548   C588    1.537   .     S
C548   C557    1.429   .     A
C549   C557    1.405   .     A
C549   C556    1.401   .     A
C549   H563    1.078   .     S
C550   C558    1.427   .     A
C550   C552    1.484   .     S
C551   C733    1.338   .     S
C551   C778    1.496   .     S
C552   O576    1.319   .     A
C552   O575    1.300   .     A
C553   C554    1.426   .     S
C553   C911    1.338   1_545 S
C553   H924    1.082   1_545 S
C554   O577    1.297   .     A
C554   O578    1.296   .     A
C555   O579    1.292   .     A
C555   O580    1.324   .     A
C555   C557    1.477   .     S
C556   H567    1.083   .     S
C558   C595    1.479   .     S
C558   C559    1.395   .     A
C559   H569    1.084   .     S
C559   C560    1.385   .     A
C560   H28     1.083   1_556 S
Cu561  O575    1.974   .     S
Cu561  O579    1.976   .     S
Cu561  Cu562   2.716   .     S
Cu561  N572    2.041   .     S
Cu561  O573    1.964   .     S
Cu561  O577    1.953   .     S
Cu562  O580    1.974   .     S
Cu562  O574    1.953   .     S
Cu562  N571    2.041   .     S
Cu562  O576    1.976   .     S
Cu562  O578    1.964   .     S
H564   C733    1.082   .     S
H565   N632    1.028   .     S
N571   N632    1.293   .     S
N571   C641    1.451   .     S
N572   N691    1.293   1_455 S
N572   H685    1.028   1_455 S
C581   H587    1.078   .     S
C581   H586    1.108   .     S
C581   N691    1.451   1_455 S
C581   C702    1.505   1_455 S
C582   H584    1.098   .     S
C582   H585    1.108   .     S
C582   C641    1.505   .     S
C582   H643    1.112   .     S
H583   C702    1.112   1_455 S
C588   H593    1.109   .     S
C588   H594    1.108   .     S
C588   C589    1.535   .     S
C589   H592    1.111   .     S
C589   H590    1.110   .     S
C589   H591    1.106   .     S
C595   H596    1.085   .     S
C595   O717    1.221   1_455 S
O597   C655    1.221   .     S
C598   H599    1.084   .     S
C598   C911    1.496   1_545 S
C598   O960    1.221   1_545 S
O600   C778    1.221   .     S
C601   O633    1.302   .     A
C601   O634    1.294   .     A
C601   C611    1.438   .     S
C602   C603    1.409   .     A
C602   C620    1.406   .     A
C602   C64     1.413   1_556 S
C603   C610    1.418   .     A
C603   C607    1.406   .     A
C604   C608    1.397   .     A
C604   C605    1.404   .     A
C605   C616    1.403   .     A
C606   C607    1.401   .     A
C606   H626    1.083   .     S
C606   C65     1.394   1_556 S
C607   H630    1.076   .     S
C608   C648    1.537   .     S
C608   C617    1.429   .     A
C609   C617    1.405   .     A
C609   C616    1.401   .     A
C609   H623    1.078   .     S
C610   C618    1.427   .     A
C610   C612    1.484   .     S
C611   C793    1.338   .     S
C611   C838    1.496   .     S
C612   O636    1.319   .     A
C612   O635    1.300   .     A
C613   C614    1.426   .     S
C613   C971    1.338   1_545 S
C613   H984    1.082   1_545 S
C614   O637    1.297   .     A
C614   O638    1.296   .     A
C615   O639    1.292   .     A
C615   O640    1.324   .     A
C615   C617    1.477   .     S
C616   H627    1.083   .     S
C618   C655    1.479   .     S
C618   C619    1.395   .     A
C619   H629    1.084   .     S
C619   C620    1.385   .     A
C620   H88     1.083   1_556 S
Cu621  O635    1.974   .     S
Cu621  O639    1.976   .     S
Cu621  Cu622   2.716   .     S
Cu621  N632    2.041   .     S
Cu621  O633    1.964   .     S
Cu621  O637    1.953   .     S
Cu622  O640    1.974   .     S
Cu622  O634    1.953   .     S
Cu622  N631    2.041   .     S
Cu622  O636    1.976   .     S
Cu622  O638    1.964   .     S
H624   C793    1.082   .     S
H625   N692    1.028   .     S
N631   N692    1.293   .     S
N631   C701    1.451   .     S
C641   H647    1.078   .     S
C641   H646    1.108   .     S
C642   H644    1.098   .     S
C642   H645    1.108   .     S
C642   C701    1.505   .     S
C642   H703    1.112   .     S
C648   H653    1.109   .     S
C648   H654    1.108   .     S
C648   C649    1.535   .     S
C649   H652    1.111   .     S
C649   H650    1.110   .     S
C649   H651    1.106   .     S
C655   H656    1.085   .     S
O657   C715    1.221   .     S
C658   H659    1.084   .     S
C658   C971    1.496   1_545 S
C658   O1020   1.221   1_545 S
O660   C838    1.221   .     S
C661   O693    1.302   .     A
C661   O694    1.294   .     A
C661   C671    1.438   .     S
C662   C663    1.409   .     A
C662   C680    1.406   .     A
C662   C124    1.413   1_556 S
C663   C670    1.418   .     A
C663   C667    1.406   .     A
C664   C668    1.397   .     A
C664   C665    1.404   .     A
C665   C676    1.403   .     A
C666   C667    1.401   .     A
C666   H686    1.083   .     S
C666   C125    1.394   1_556 S
C667   H690    1.076   .     S
C668   C708    1.537   .     S
C668   C677    1.429   .     A
C669   C677    1.405   .     A
C669   C676    1.401   .     A
C669   H683    1.078   .     S
C670   C678    1.427   .     A
C670   C672    1.484   .     S
C671   C853    1.338   .     S
C671   C898    1.496   .     S
C672   O696    1.319   .     A
C672   O695    1.300   .     A
C673   C674    1.426   .     S
C673   C1031   1.338   1_545 S
C673   H1044   1.082   1_545 S
C674   O697    1.297   .     A
C674   O698    1.296   .     A
C675   O699    1.292   .     A
C675   O700    1.324   .     A
C675   C677    1.477   .     S
C676   H687    1.083   .     S
C678   C715    1.479   .     S
C678   C679    1.395   .     A
C679   H689    1.084   .     S
C679   C680    1.385   .     A
C680   H148    1.083   1_556 S
Cu681  O695    1.974   .     S
Cu681  O699    1.976   .     S
Cu681  Cu682   2.716   .     S
Cu681  N692    2.041   .     S
Cu681  O693    1.964   .     S
Cu681  O697    1.953   .     S
Cu682  O700    1.974   .     S
Cu682  O694    1.953   .     S
Cu682  N691    2.041   .     S
Cu682  O696    1.976   .     S
Cu682  O698    1.964   .     S
H684   C853    1.082   .     S
H685   N572    1.028   1_655 S
N691   N572    1.293   1_655 S
N691   C581    1.451   1_655 S
C701   H707    1.078   .     S
C701   H706    1.108   .     S
C702   H704    1.098   .     S
C702   H705    1.108   .     S
C702   C581    1.505   1_655 S
C702   H583    1.112   1_655 S
C708   H713    1.109   .     S
C708   H714    1.108   .     S
C708   C709    1.535   .     S
C709   H712    1.111   .     S
C709   H710    1.110   .     S
C709   H711    1.106   .     S
C715   H716    1.085   .     S
O717   C595    1.221   1_655 S
C718   H719    1.084   .     S
C718   C1031   1.496   1_545 S
C718   O1080   1.221   1_545 S
O720   C898    1.221   .     S
C721   O753    1.302   .     A
C721   O754    1.294   .     A
C721   C731    1.438   .     S
C722   C723    1.409   .     A
C722   C740    1.406   .     A
C722   C184    1.413   1_556 S
C723   C730    1.418   .     A
C723   C727    1.406   .     A
C724   C728    1.397   .     A
C724   C725    1.404   .     A
C725   C736    1.403   .     A
C726   C727    1.401   .     A
C726   H746    1.083   .     S
C726   C185    1.394   1_556 S
C727   H750    1.076   .     S
C728   C768    1.537   .     S
C728   C737    1.429   .     A
C729   C737    1.405   .     A
C729   C736    1.401   .     A
C729   H743    1.078   .     S
C730   C738    1.427   .     A
C730   C732    1.484   .     S
C731   C913    1.338   .     S
C731   C958    1.496   .     S
C732   O756    1.319   .     A
C732   O755    1.300   .     A
C733   C734    1.426   .     S
C734   O757    1.297   .     A
C734   O758    1.296   .     A
C735   O759    1.292   .     A
C735   O760    1.324   .     A
C735   C737    1.477   .     S
C736   H747    1.083   .     S
C738   C775    1.479   .     S
C738   C739    1.395   .     A
C739   H749    1.084   .     S
C739   C740    1.385   .     A
C740   H208    1.083   1_556 S
Cu741  O755    1.974   .     S
Cu741  O759    1.976   .     S
Cu741  Cu742   2.716   .     S
Cu741  N752    2.041   .     S
Cu741  O753    1.964   .     S
Cu741  O757    1.953   .     S
Cu742  O760    1.974   .     S
Cu742  O754    1.953   .     S
Cu742  N751    2.041   .     S
Cu742  O756    1.976   .     S
Cu742  O758    1.964   .     S
H744   C913    1.082   .     S
H745   N812    1.028   .     S
N751   N812    1.293   .     S
N751   C821    1.451   .     S
N752   N871    1.293   1_455 S
N752   H865    1.028   1_455 S
C761   H767    1.078   .     S
C761   H766    1.108   .     S
C761   N871    1.451   1_455 S
C761   C882    1.505   1_455 S
C762   H764    1.098   .     S
C762   H765    1.108   .     S
C762   C821    1.505   .     S
C762   H823    1.112   .     S
H763   C882    1.112   1_455 S
C768   H773    1.109   .     S
C768   H774    1.108   .     S
C768   C769    1.535   .     S
C769   H772    1.111   .     S
C769   H770    1.110   .     S
C769   H771    1.106   .     S
C775   H776    1.085   .     S
C775   O897    1.221   1_455 S
O777   C835    1.221   .     S
C778   H779    1.084   .     S
O780   C958    1.221   .     S
C781   O813    1.302   .     A
C781   O814    1.294   .     A
C781   C791    1.438   .     S
C782   C783    1.409   .     A
C782   C800    1.406   .     A
C782   C244    1.413   1_556 S
C783   C790    1.418   .     A
C783   C787    1.406   .     A
C784   C788    1.397   .     A
C784   C785    1.404   .     A
C785   C796    1.403   .     A
C786   C787    1.401   .     A
C786   H806    1.083   .     S
C786   C245    1.394   1_556 S
C787   H810    1.076   .     S
C788   C828    1.537   .     S
C788   C797    1.429   .     A
C789   C797    1.405   .     A
C789   C796    1.401   .     A
C789   H803    1.078   .     S
C790   C798    1.427   .     A
C790   C792    1.484   .     S
C791   C973    1.338   .     S
C791   C1018   1.496   .     S
C792   O816    1.319   .     A
C792   O815    1.300   .     A
C793   C794    1.426   .     S
C794   O817    1.297   .     A
C794   O818    1.296   .     A
C795   O819    1.292   .     A
C795   O820    1.324   .     A
C795   C797    1.477   .     S
C796   H807    1.083   .     S
C798   C835    1.479   .     S
C798   C799    1.395   .     A
C799   H809    1.084   .     S
C799   C800    1.385   .     A
C800   H268    1.083   1_556 S
Cu801  O815    1.974   .     S
Cu801  O819    1.976   .     S
Cu801  Cu802   2.716   .     S
Cu801  N812    2.041   .     S
Cu801  O813    1.964   .     S
Cu801  O817    1.953   .     S
Cu802  O820    1.974   .     S
Cu802  O814    1.953   .     S
Cu802  N811    2.041   .     S
Cu802  O816    1.976   .     S
Cu802  O818    1.964   .     S
H804   C973    1.082   .     S
H805   N872    1.028   .     S
N811   N872    1.293   .     S
N811   C881    1.451   .     S
C821   H827    1.078   .     S
C821   H826    1.108   .     S
C822   H824    1.098   .     S
C822   H825    1.108   .     S
C822   C881    1.505   .     S
C822   H883    1.112   .     S
C828   H833    1.109   .     S
C828   H834    1.108   .     S
C828   C829    1.535   .     S
C829   H832    1.111   .     S
C829   H830    1.110   .     S
C829   H831    1.106   .     S
C835   H836    1.085   .     S
O837   C895    1.221   .     S
C838   H839    1.084   .     S
O840   C1018   1.221   .     S
C841   O873    1.302   .     A
C841   O874    1.294   .     A
C841   C851    1.438   .     S
C842   C843    1.409   .     A
C842   C860    1.406   .     A
C842   C304    1.413   1_556 S
C843   C850    1.418   .     A
C843   C847    1.406   .     A
C844   C848    1.397   .     A
C844   C845    1.404   .     A
C845   C856    1.403   .     A
C846   C847    1.401   .     A
C846   H866    1.083   .     S
C846   C305    1.394   1_556 S
C847   H870    1.076   .     S
C848   C888    1.537   .     S
C848   C857    1.429   .     A
C849   C857    1.405   .     A
C849   C856    1.401   .     A
C849   H863    1.078   .     S
C850   C858    1.427   .     A
C850   C852    1.484   .     S
C851   C1033   1.338   .     S
C851   C1078   1.496   .     S
C852   O876    1.319   .     A
C852   O875    1.300   .     A
C853   C854    1.426   .     S
C854   O877    1.297   .     A
C854   O878    1.296   .     A
C855   O879    1.292   .     A
C855   O880    1.324   .     A
C855   C857    1.477   .     S
C856   H867    1.083   .     S
C858   C895    1.479   .     S
C858   C859    1.395   .     A
C859   H869    1.084   .     S
C859   C860    1.385   .     A
C860   H328    1.083   1_556 S
Cu861  O875    1.974   .     S
Cu861  O879    1.976   .     S
Cu861  Cu862   2.716   .     S
Cu861  N872    2.041   .     S
Cu861  O873    1.964   .     S
Cu861  O877    1.953   .     S
Cu862  O880    1.974   .     S
Cu862  O874    1.953   .     S
Cu862  N871    2.041   .     S
Cu862  O876    1.976   .     S
Cu862  O878    1.964   .     S
H864   C1033   1.082   .     S
H865   N752    1.028   1_655 S
N871   N752    1.293   1_655 S
N871   C761    1.451   1_655 S
C881   H887    1.078   .     S
C881   H886    1.108   .     S
C882   H884    1.098   .     S
C882   H885    1.108   .     S
C882   C761    1.505   1_655 S
C882   H763    1.112   1_655 S
C888   H893    1.109   .     S
C888   H894    1.108   .     S
C888   C889    1.535   .     S
C889   H892    1.111   .     S
C889   H890    1.110   .     S
C889   H891    1.106   .     S
C895   H896    1.085   .     S
O897   C775    1.221   1_655 S
C898   H899    1.084   .     S
O900   C1078   1.221   .     S
C901   O933    1.302   .     A
C901   O934    1.294   .     A
C901   C911    1.438   .     S
C902   C903    1.409   .     A
C902   C920    1.406   .     A
C902   C364    1.413   1_556 S
C903   C910    1.418   .     A
C903   C907    1.406   .     A
C904   C908    1.397   .     A
C904   C905    1.404   .     A
C905   C916    1.403   .     A
C906   C907    1.401   .     A
C906   H926    1.083   .     S
C906   C365    1.394   1_556 S
C907   H930    1.076   .     S
C908   C948    1.537   .     S
C908   C917    1.429   .     A
C909   C917    1.405   .     A
C909   C916    1.401   .     A
C909   H923    1.078   .     S
C910   C918    1.427   .     A
C910   C912    1.484   .     S
C911   C553    1.338   1_565 S
C911   C598    1.496   1_565 S
C912   O936    1.319   .     A
C912   O935    1.300   .     A
C913   C914    1.426   .     S
C914   O937    1.297   .     A
C914   O938    1.296   .     A
C915   O939    1.292   .     A
C915   O940    1.324   .     A
C915   C917    1.477   .     S
C916   H927    1.083   .     S
C918   C955    1.479   .     S
C918   C919    1.395   .     A
C919   H929    1.084   .     S
C919   C920    1.385   .     A
C920   H388    1.083   1_556 S
Cu921  O935    1.974   .     S
Cu921  O939    1.976   .     S
Cu921  Cu922   2.716   .     S
Cu921  N932    2.041   .     S
Cu921  O933    1.964   .     S
Cu921  O937    1.953   .     S
Cu922  O940    1.974   .     S
Cu922  O934    1.953   .     S
Cu922  N931    2.041   .     S
Cu922  O936    1.976   .     S
Cu922  O938    1.964   .     S
H924   C553    1.082   1_565 S
H925   N992    1.028   .     S
N931   N992    1.293   .     S
N931   C1001   1.451   .     S
N932   N1051   1.293   1_455 S
N932   H1045   1.028   1_455 S
C941   H947    1.078   .     S
C941   H946    1.108   .     S
C941   N1051   1.451   1_455 S
C941   C1062   1.505   1_455 S
C942   H944    1.098   .     S
C942   H945    1.108   .     S
C942   C1001   1.505   .     S
C942   H1003   1.112   .     S
H943   C1062   1.112   1_455 S
C948   H953    1.109   .     S
C948   H954    1.108   .     S
C948   C949    1.535   .     S
C949   H952    1.111   .     S
C949   H950    1.110   .     S
C949   H951    1.106   .     S
C955   H956    1.085   .     S
C955   O1077   1.221   1_455 S
O957   C1015   1.221   .     S
C958   H959    1.084   .     S
O960   C598    1.221   1_565 S
C961   O993    1.302   .     A
C961   O994    1.294   .     A
C961   C971    1.438   .     S
C962   C963    1.409   .     A
C962   C980    1.406   .     A
C962   C424    1.413   1_556 S
C963   C970    1.418   .     A
C963   C967    1.406   .     A
C964   C968    1.397   .     A
C964   C965    1.404   .     A
C965   C976    1.403   .     A
C966   C967    1.401   .     A
C966   H986    1.083   .     S
C966   C425    1.394   1_556 S
C967   H990    1.076   .     S
C968   C1008   1.537   .     S
C968   C977    1.429   .     A
C969   C977    1.405   .     A
C969   C976    1.401   .     A
C969   H983    1.078   .     S
C970   C978    1.427   .     A
C970   C972    1.484   .     S
C971   C613    1.338   1_565 S
C971   C658    1.496   1_565 S
C972   O996    1.319   .     A
C972   O995    1.300   .     A
C973   C974    1.426   .     S
C974   O997    1.297   .     A
C974   O998    1.296   .     A
C975   O999    1.292   .     A
C975   O1000   1.324   .     A
C975   C977    1.477   .     S
C976   H987    1.083   .     S
C978   C1015   1.479   .     S
C978   C979    1.395   .     A
C979   H989    1.084   .     S
C979   C980    1.385   .     A
C980   H448    1.083   1_556 S
Cu981  O995    1.974   .     S
Cu981  O999    1.976   .     S
Cu981  Cu982   2.716   .     S
Cu981  N992    2.041   .     S
Cu981  O993    1.964   .     S
Cu981  O997    1.953   .     S
Cu982  O1000   1.974   .     S
Cu982  O994    1.953   .     S
Cu982  N991    2.041   .     S
Cu982  O996    1.976   .     S
Cu982  O998    1.964   .     S
H984   C613    1.082   1_565 S
H985   N1052   1.028   .     S
N991   N1052   1.293   .     S
N991   C1061   1.451   .     S
C1001  H1007   1.078   .     S
C1001  H1006   1.108   .     S
C1002  H1004   1.098   .     S
C1002  H1005   1.108   .     S
C1002  C1061   1.505   .     S
C1002  H1063   1.112   .     S
C1008  H1013   1.109   .     S
C1008  H1014   1.108   .     S
C1008  C1009   1.535   .     S
C1009  H1012   1.111   .     S
C1009  H1010   1.110   .     S
C1009  H1011   1.106   .     S
C1015  H1016   1.085   .     S
O1017  C1075   1.221   .     S
C1018  H1019   1.084   .     S
O1020  C658    1.221   1_565 S
C1021  O1053   1.302   .     A
C1021  O1054   1.294   .     A
C1021  C1031   1.438   .     S
C1022  C1023   1.409   .     A
C1022  C1040   1.406   .     A
C1022  C484    1.413   1_556 S
C1023  C1030   1.418   .     A
C1023  C1027   1.406   .     A
C1024  C1028   1.397   .     A
C1024  C1025   1.404   .     A
C1025  C1036   1.403   .     A
C1026  C1027   1.401   .     A
C1026  H1046   1.083   .     S
C1026  C485    1.394   1_556 S
C1027  H1050   1.076   .     S
C1028  C1068   1.537   .     S
C1028  C1037   1.429   .     A
C1029  C1037   1.405   .     A
C1029  C1036   1.401   .     A
C1029  H1043   1.078   .     S
C1030  C1038   1.427   .     A
C1030  C1032   1.484   .     S
C1031  C673    1.338   1_565 S
C1031  C718    1.496   1_565 S
C1032  O1056   1.319   .     A
C1032  O1055   1.300   .     A
C1033  C1034   1.426   .     S
C1034  O1057   1.297   .     A
C1034  O1058   1.296   .     A
C1035  O1059   1.292   .     A
C1035  O1060   1.324   .     A
C1035  C1037   1.477   .     S
C1036  H1047   1.083   .     S
C1038  C1075   1.479   .     S
C1038  C1039   1.395   .     A
C1039  H1049   1.084   .     S
C1039  C1040   1.385   .     A
C1040  H508    1.083   1_556 S
Cu1041 O1055   1.974   .     S
Cu1041 O1059   1.976   .     S
Cu1041 Cu1042  2.716   .     S
Cu1041 N1052   2.041   .     S
Cu1041 O1053   1.964   .     S
Cu1041 O1057   1.953   .     S
Cu1042 O1060   1.974   .     S
Cu1042 O1054   1.953   .     S
Cu1042 N1051   2.041   .     S
Cu1042 O1056   1.976   .     S
Cu1042 O1058   1.964   .     S
H1044  C673    1.082   1_565 S
H1045  N932    1.028   1_655 S
N1051  N932    1.293   1_655 S
N1051  C941    1.451   1_655 S
C1061  H1067   1.078   .     S
C1061  H1066   1.108   .     S
C1062  H1064   1.098   .     S
C1062  H1065   1.108   .     S
C1062  C941    1.505   1_655 S
C1062  H943    1.112   1_655 S
C1068  H1073   1.109   .     S
C1068  H1074   1.108   .     S
C1068  C1069   1.535   .     S
C1069  H1072   1.111   .     S
C1069  H1070   1.110   .     S
C1069  H1071   1.106   .     S
C1075  H1076   1.085   .     S
O1077  C955    1.221   1_655 S
C1078  H1079   1.084   .     S
O1080  C718    1.221   1_565 S
