data_str_m2_o1_o17_pcu_sym.125
_audit_creation_date              2020-01-03
_audit_creation_method            'Materials Studio'
_symmetry_space_group_name_H-M    'P1'
_symmetry_Int_Tables_number       1
_symmetry_cell_setting            triclinic
loop_
_symmetry_equiv_pos_as_xyz
  x,y,z
_cell_length_a                    32.4822
_cell_length_b                    28.5945
_cell_length_c                    30.1160
_cell_angle_alpha                 90.0007
_cell_angle_beta                  90.5481
_cell_angle_gamma                 89.9638
loop_
_atom_site_label
_atom_site_type_symbol
_atom_site_fract_x
_atom_site_fract_y
_atom_site_fract_z
_atom_site_U_iso_or_equiv
_atom_site_adp_type
_atom_site_occupancy
C1     C     0.08740   0.16669   0.25002   0.00000  Uiso   1.00
C2     C     0.24594   0.16669   0.25031   0.00000  Uiso   1.00
C3     C     0.10249   0.20881   0.02456   0.00000  Uiso   1.00
C4     C     0.23202   0.12547   0.47526   0.00000  Uiso   1.00
C5     C     0.02154   0.12865   0.26840   0.00000  Uiso   1.00
C6     C     0.31184   0.20526   0.23323   0.00000  Uiso   1.00
C7     C     0.31227   0.12867   0.26854   0.00000  Uiso   1.00
C8     C     0.02108   0.20516   0.23295   0.00000  Uiso   1.00
C9     C     0.29055   0.16687   0.25077   0.00000  Uiso   1.00
C10    C     0.04280   0.16681   0.25042   0.00000  Uiso   1.00
C11    C     0.14179   0.02480   0.22145   0.00000  Uiso   1.00
C12    C     0.19146   0.30853   0.27864   0.00000  Uiso   1.00
C13    C     0.19141   0.02474   0.27868   0.00000  Uiso   1.00
C14    C     0.14184   0.30859   0.22140   0.00000  Uiso   1.00
C15    C     0.16813   0.16664   0.16458   0.00000  Uiso   1.00
C16    C     0.16595   0.16669   0.33542   0.00000  Uiso   1.00
C17    C     0.19736   0.14591   0.40619   0.00000  Uiso   1.00
C18    C     0.13674   0.18733   0.09373   0.00000  Uiso   1.00
C19    C     0.16450   0.16675   0.38357   0.00000  Uiso   1.00
C20    C     0.16970   0.16658   0.11640   0.00000  Uiso   1.00
C21    C     0.13146   0.18770   0.40647   0.00000  Uiso   1.00
C22    C     0.20316   0.14652   0.09338   0.00000  Uiso   1.00
C23    C     0.13276   0.18818   0.45356   0.00000  Uiso   1.00
C24    C     0.20185   0.14634   0.04626   0.00000  Uiso   1.00
C25    C     0.16651   0.16714   0.47643   0.00000  Uiso   1.00
C26    C     0.16798   0.16712   0.02343   0.00000  Uiso   1.00
C27    C     0.19876   0.14596   0.45247   0.00000  Uiso   1.00
C28    C     0.13559   0.18795   0.04741   0.00000  Uiso   1.00
C29    C     0.10124   0.20898   0.47852   0.00000  Uiso   1.00
C30    C     0.23349   0.12578   0.02125   0.00000  Uiso   1.00
Cu31   Cu    0.16667   0.21355   0.25000   0.00000  Uiso   1.00
Cu32   Cu    0.16667   0.11978   0.25000   0.00000  Uiso   1.00
H33    H     0.07508   0.22593   0.46311   0.00000  Uiso   1.00
H34    H     0.26006   0.10955   0.03655   0.00000  Uiso   1.00
N35    N     0.16667   0.28402   0.25000   0.00000  Uiso   1.00
N36    N     0.16667   0.04931   0.25000   0.00000  Uiso   1.00
O37    O     0.10655   0.20625   0.24999   0.00000  Uiso   1.00
O38    O     0.22679   0.12709   0.25000   0.00000  Uiso   1.00
O39    O     0.22679   0.20625   0.25000   0.00000  Uiso   1.00
O40    O     0.10655   0.12709   0.24999   0.00000  Uiso   1.00
O41    O     0.16666   0.20627   0.18513   0.00000  Uiso   1.00
O42    O     0.16668   0.12707   0.31487   0.00000  Uiso   1.00
O43    O     0.16668   0.20627   0.31487   0.00000  Uiso   1.00
O44    O     0.16666   0.12707   0.18513   0.00000  Uiso   1.00
F45    F     0.22845   0.12646   0.38244   0.00000  Uiso   1.00
F46    F     0.10533   0.20612   0.11745   0.00000  Uiso   1.00
C47    C     0.09472   0.20742   0.38048   0.00000  Uiso   1.00
C48    C     0.09806   0.26069   0.37498   0.00000  Uiso   1.00
C49    C     0.06300   0.27974   0.34611   0.00000  Uiso   1.00
H50    H     0.06406   0.26409   0.31238   0.00000  Uiso   1.00
H51    H     0.03282   0.27171   0.36137   0.00000  Uiso   1.00
H52    H     0.06607   0.31827   0.34296   0.00000  Uiso   1.00
H53    H     0.09721   0.27814   0.40789   0.00000  Uiso   1.00
H54    H     0.12777   0.26982   0.35923   0.00000  Uiso   1.00
H55    H     0.09211   0.19104   0.34717   0.00000  Uiso   1.00
H56    H     0.06534   0.19777   0.39660   0.00000  Uiso   1.00
C57    C     0.24051   0.12710   0.11871   0.00000  Uiso   1.00
C58    C     0.27703   0.16115   0.11702   0.00000  Uiso   1.00
C59    C     0.31665   0.13794   0.13353   0.00000  Uiso   1.00
H60    H     0.31246   0.12339   0.16735   0.00000  Uiso   1.00
H61    H     0.32559   0.10923   0.11072   0.00000  Uiso   1.00
H62    H     0.00855   0.16412   0.13464   0.00000  Uiso   1.00
H63    H     0.28203   0.17398   0.08270   0.00000  Uiso   1.00
H64    H     0.27023   0.19197   0.13823   0.00000  Uiso   1.00
H65    H     0.23413   0.12032   0.15411   0.00000  Uiso   1.00
H66    H     0.24884   0.09214   0.10550   0.00000  Uiso   1.00
F67    F     0.07095   0.22939   0.04652   0.00000  Uiso   1.00
F68    F     0.26359   0.10493   0.45333   0.00000  Uiso   1.00
F69    F     0.04188   0.09177   0.28676   0.00000  Uiso   1.00
F70    F     0.29157   0.24226   0.21501   0.00000  Uiso   1.00
F71    F     0.29242   0.09178   0.28695   0.00000  Uiso   1.00
F72    F     0.04087   0.24201   0.21441   0.00000  Uiso   1.00
F73    F     0.11666   0.04804   0.19282   0.00000  Uiso   1.00
F74    F     0.21651   0.28529   0.30734   0.00000  Uiso   1.00
F75    F     0.21617   0.04789   0.30768   0.00000  Uiso   1.00
F76    F     0.11702   0.28543   0.19247   0.00000  Uiso   1.00
C77    C     0.42073   0.16669   0.25002   0.00000  Uiso   1.00
C78    C     0.57927   0.16669   0.25031   0.00000  Uiso   1.00
C79    C     0.43583   0.20881   0.02456   0.00000  Uiso   1.00
C80    C     0.56535   0.12547   0.47526   0.00000  Uiso   1.00
C81    C     0.35487   0.12865   0.26840   0.00000  Uiso   1.00
C82    C     0.64517   0.20526   0.23323   0.00000  Uiso   1.00
C83    C     0.64560   0.12867   0.26854   0.00000  Uiso   1.00
C84    C     0.35441   0.20516   0.23295   0.00000  Uiso   1.00
C85    C     0.62388   0.16687   0.25077   0.00000  Uiso   1.00
C86    C     0.37613   0.16681   0.25042   0.00000  Uiso   1.00
C87    C     0.47512   0.02480   0.22145   0.00000  Uiso   1.00
C88    C     0.52480   0.30853   0.27864   0.00000  Uiso   1.00
C89    C     0.52475   0.02474   0.27868   0.00000  Uiso   1.00
C90    C     0.47517   0.30859   0.22140   0.00000  Uiso   1.00
C91    C     0.50147   0.16664   0.16458   0.00000  Uiso   1.00
C92    C     0.49928   0.16669   0.33542   0.00000  Uiso   1.00
C93    C     0.53069   0.14591   0.40619   0.00000  Uiso   1.00
C94    C     0.47008   0.18733   0.09373   0.00000  Uiso   1.00
C95    C     0.49783   0.16675   0.38357   0.00000  Uiso   1.00
C96    C     0.50303   0.16658   0.11640   0.00000  Uiso   1.00
C97    C     0.46480   0.18770   0.40647   0.00000  Uiso   1.00
C98    C     0.53650   0.14652   0.09338   0.00000  Uiso   1.00
C99    C     0.46610   0.18818   0.45356   0.00000  Uiso   1.00
C100   C     0.53518   0.14634   0.04626   0.00000  Uiso   1.00
C101   C     0.49984   0.16714   0.47643   0.00000  Uiso   1.00
C102   C     0.50132   0.16712   0.02343   0.00000  Uiso   1.00
C103   C     0.53210   0.14596   0.45247   0.00000  Uiso   1.00
C104   C     0.46893   0.18795   0.04741   0.00000  Uiso   1.00
C105   C     0.43458   0.20898   0.47852   0.00000  Uiso   1.00
C106   C     0.56682   0.12578   0.02125   0.00000  Uiso   1.00
Cu107  Cu    0.50000   0.21355   0.25000   0.00000  Uiso   1.00
Cu108  Cu    0.50000   0.11978   0.25000   0.00000  Uiso   1.00
H109   H     0.40842   0.22593   0.46311   0.00000  Uiso   1.00
H110   H     0.59340   0.10955   0.03655   0.00000  Uiso   1.00
N111   N     0.50000   0.28402   0.25000   0.00000  Uiso   1.00
N112   N     0.50000   0.04931   0.25000   0.00000  Uiso   1.00
O113   O     0.43988   0.20625   0.24999   0.00000  Uiso   1.00
O114   O     0.56012   0.12709   0.25000   0.00000  Uiso   1.00
O115   O     0.56012   0.20625   0.25000   0.00000  Uiso   1.00
O116   O     0.43988   0.12709   0.24999   0.00000  Uiso   1.00
O117   O     0.49999   0.20627   0.18513   0.00000  Uiso   1.00
O118   O     0.50001   0.12707   0.31487   0.00000  Uiso   1.00
O119   O     0.50001   0.20627   0.31487   0.00000  Uiso   1.00
O120   O     0.49999   0.12707   0.18513   0.00000  Uiso   1.00
F121   F     0.56179   0.12646   0.38244   0.00000  Uiso   1.00
F122   F     0.43866   0.20612   0.11745   0.00000  Uiso   1.00
C123   C     0.42805   0.20742   0.38048   0.00000  Uiso   1.00
C124   C     0.43139   0.26069   0.37498   0.00000  Uiso   1.00
C125   C     0.39633   0.27974   0.34611   0.00000  Uiso   1.00
H126   H     0.39739   0.26409   0.31238   0.00000  Uiso   1.00
H127   H     0.36615   0.27171   0.36137   0.00000  Uiso   1.00
H128   H     0.39941   0.31827   0.34296   0.00000  Uiso   1.00
H129   H     0.43055   0.27814   0.40789   0.00000  Uiso   1.00
H130   H     0.46111   0.26982   0.35923   0.00000  Uiso   1.00
H131   H     0.42544   0.19104   0.34717   0.00000  Uiso   1.00
H132   H     0.39868   0.19777   0.39660   0.00000  Uiso   1.00
C133   C     0.57384   0.12710   0.11871   0.00000  Uiso   1.00
C134   C     0.61037   0.16115   0.11702   0.00000  Uiso   1.00
C135   C     0.64998   0.13794   0.13353   0.00000  Uiso   1.00
H136   H     0.64580   0.12339   0.16735   0.00000  Uiso   1.00
H137   H     0.65892   0.10923   0.11072   0.00000  Uiso   1.00
H138   H     0.34188   0.16412   0.13464   0.00000  Uiso   1.00
H139   H     0.61536   0.17398   0.08270   0.00000  Uiso   1.00
H140   H     0.60357   0.19197   0.13823   0.00000  Uiso   1.00
H141   H     0.56746   0.12032   0.15411   0.00000  Uiso   1.00
H142   H     0.58217   0.09214   0.10550   0.00000  Uiso   1.00
F143   F     0.40429   0.22939   0.04652   0.00000  Uiso   1.00
F144   F     0.59692   0.10493   0.45333   0.00000  Uiso   1.00
F145   F     0.37521   0.09177   0.28676   0.00000  Uiso   1.00
F146   F     0.62490   0.24226   0.21501   0.00000  Uiso   1.00
F147   F     0.62575   0.09178   0.28695   0.00000  Uiso   1.00
F148   F     0.37421   0.24201   0.21441   0.00000  Uiso   1.00
F149   F     0.44999   0.04804   0.19282   0.00000  Uiso   1.00
F150   F     0.54984   0.28529   0.30734   0.00000  Uiso   1.00
F151   F     0.54950   0.04789   0.30768   0.00000  Uiso   1.00
F152   F     0.45036   0.28543   0.19247   0.00000  Uiso   1.00
C153   C     0.75406   0.16669   0.25002   0.00000  Uiso   1.00
C154   C     0.91261   0.16669   0.25031   0.00000  Uiso   1.00
C155   C     0.76916   0.20881   0.02456   0.00000  Uiso   1.00
C156   C     0.89868   0.12547   0.47526   0.00000  Uiso   1.00
C157   C     0.68821   0.12865   0.26840   0.00000  Uiso   1.00
C158   C     0.97850   0.20526   0.23323   0.00000  Uiso   1.00
C159   C     0.97893   0.12867   0.26854   0.00000  Uiso   1.00
C160   C     0.68774   0.20516   0.23295   0.00000  Uiso   1.00
C161   C     0.95721   0.16687   0.25077   0.00000  Uiso   1.00
C162   C     0.70946   0.16681   0.25042   0.00000  Uiso   1.00
C163   C     0.80845   0.02480   0.22145   0.00000  Uiso   1.00
C164   C     0.85813   0.30853   0.27864   0.00000  Uiso   1.00
C165   C     0.85808   0.02474   0.27868   0.00000  Uiso   1.00
C166   C     0.80851   0.30859   0.22140   0.00000  Uiso   1.00
C167   C     0.83480   0.16664   0.16458   0.00000  Uiso   1.00
C168   C     0.83262   0.16669   0.33542   0.00000  Uiso   1.00
C169   C     0.86402   0.14591   0.40619   0.00000  Uiso   1.00
C170   C     0.80341   0.18733   0.09373   0.00000  Uiso   1.00
C171   C     0.83117   0.16675   0.38357   0.00000  Uiso   1.00
C172   C     0.83636   0.16658   0.11640   0.00000  Uiso   1.00
C173   C     0.79813   0.18770   0.40647   0.00000  Uiso   1.00
C174   C     0.86983   0.14652   0.09338   0.00000  Uiso   1.00
C175   C     0.79943   0.18818   0.45356   0.00000  Uiso   1.00
C176   C     0.86852   0.14634   0.04626   0.00000  Uiso   1.00
C177   C     0.83317   0.16714   0.47643   0.00000  Uiso   1.00
C178   C     0.83465   0.16712   0.02343   0.00000  Uiso   1.00
C179   C     0.86543   0.14596   0.45247   0.00000  Uiso   1.00
C180   C     0.80226   0.18795   0.04741   0.00000  Uiso   1.00
C181   C     0.76791   0.20898   0.47852   0.00000  Uiso   1.00
C182   C     0.90015   0.12578   0.02125   0.00000  Uiso   1.00
Cu183  Cu    0.83333   0.21355   0.25000   0.00000  Uiso   1.00
Cu184  Cu    0.83333   0.11978   0.25000   0.00000  Uiso   1.00
H185   H     0.74175   0.22593   0.46311   0.00000  Uiso   1.00
H186   H     0.92673   0.10955   0.03655   0.00000  Uiso   1.00
N187   N     0.83333   0.28402   0.25000   0.00000  Uiso   1.00
N188   N     0.83333   0.04931   0.25000   0.00000  Uiso   1.00
O189   O     0.77321   0.20625   0.24999   0.00000  Uiso   1.00
O190   O     0.89345   0.12709   0.25000   0.00000  Uiso   1.00
O191   O     0.89345   0.20625   0.25000   0.00000  Uiso   1.00
O192   O     0.77321   0.12709   0.24999   0.00000  Uiso   1.00
O193   O     0.83332   0.20627   0.18513   0.00000  Uiso   1.00
O194   O     0.83334   0.12707   0.31487   0.00000  Uiso   1.00
O195   O     0.83334   0.20627   0.31487   0.00000  Uiso   1.00
O196   O     0.83332   0.12707   0.18513   0.00000  Uiso   1.00
F197   F     0.89512   0.12646   0.38244   0.00000  Uiso   1.00
F198   F     0.77199   0.20612   0.11745   0.00000  Uiso   1.00
C199   C     0.76139   0.20742   0.38048   0.00000  Uiso   1.00
C200   C     0.76473   0.26069   0.37498   0.00000  Uiso   1.00
C201   C     0.72967   0.27974   0.34611   0.00000  Uiso   1.00
H202   H     0.73073   0.26409   0.31238   0.00000  Uiso   1.00
H203   H     0.69949   0.27171   0.36137   0.00000  Uiso   1.00
H204   H     0.73274   0.31827   0.34296   0.00000  Uiso   1.00
H205   H     0.76388   0.27814   0.40789   0.00000  Uiso   1.00
H206   H     0.79444   0.26982   0.35923   0.00000  Uiso   1.00
H207   H     0.75878   0.19104   0.34717   0.00000  Uiso   1.00
H208   H     0.73201   0.19777   0.39660   0.00000  Uiso   1.00
C209   C     0.90717   0.12710   0.11871   0.00000  Uiso   1.00
C210   C     0.94370   0.16115   0.11702   0.00000  Uiso   1.00
C211   C     0.98332   0.13794   0.13353   0.00000  Uiso   1.00
H212   H     0.97913   0.12339   0.16735   0.00000  Uiso   1.00
H213   H     0.99225   0.10923   0.11072   0.00000  Uiso   1.00
H214   H     0.67522   0.16412   0.13464   0.00000  Uiso   1.00
H215   H     0.94870   0.17398   0.08270   0.00000  Uiso   1.00
H216   H     0.93690   0.19197   0.13823   0.00000  Uiso   1.00
H217   H     0.90080   0.12032   0.15411   0.00000  Uiso   1.00
H218   H     0.91550   0.09214   0.10550   0.00000  Uiso   1.00
F219   F     0.73762   0.22939   0.04652   0.00000  Uiso   1.00
F220   F     0.93026   0.10493   0.45333   0.00000  Uiso   1.00
F221   F     0.70854   0.09177   0.28676   0.00000  Uiso   1.00
F222   F     0.95824   0.24226   0.21501   0.00000  Uiso   1.00
F223   F     0.95908   0.09178   0.28695   0.00000  Uiso   1.00
F224   F     0.70754   0.24201   0.21441   0.00000  Uiso   1.00
F225   F     0.78332   0.04804   0.19282   0.00000  Uiso   1.00
F226   F     0.88317   0.28529   0.30734   0.00000  Uiso   1.00
F227   F     0.88284   0.04789   0.30768   0.00000  Uiso   1.00
F228   F     0.78369   0.28543   0.19247   0.00000  Uiso   1.00
C229   C     0.08740   0.50003   0.25002   0.00000  Uiso   1.00
C230   C     0.24594   0.50002   0.25031   0.00000  Uiso   1.00
C231   C     0.10249   0.54214   0.02456   0.00000  Uiso   1.00
C232   C     0.23202   0.45880   0.47526   0.00000  Uiso   1.00
C233   C     0.02154   0.46198   0.26840   0.00000  Uiso   1.00
C234   C     0.31184   0.53859   0.23323   0.00000  Uiso   1.00
C235   C     0.31227   0.46200   0.26854   0.00000  Uiso   1.00
C236   C     0.02108   0.53849   0.23295   0.00000  Uiso   1.00
C237   C     0.29055   0.50020   0.25077   0.00000  Uiso   1.00
C238   C     0.04280   0.50014   0.25042   0.00000  Uiso   1.00
C239   C     0.14179   0.35814   0.22145   0.00000  Uiso   1.00
C240   C     0.19146   0.64186   0.27864   0.00000  Uiso   1.00
C241   C     0.19141   0.35807   0.27868   0.00000  Uiso   1.00
C242   C     0.14184   0.64192   0.22140   0.00000  Uiso   1.00
C243   C     0.16813   0.49998   0.16458   0.00000  Uiso   1.00
C244   C     0.16595   0.50003   0.33542   0.00000  Uiso   1.00
C245   C     0.19736   0.47924   0.40619   0.00000  Uiso   1.00
C246   C     0.13674   0.52066   0.09373   0.00000  Uiso   1.00
C247   C     0.16450   0.50008   0.38357   0.00000  Uiso   1.00
C248   C     0.16970   0.49991   0.11640   0.00000  Uiso   1.00
C249   C     0.13146   0.52103   0.40647   0.00000  Uiso   1.00
C250   C     0.20316   0.47985   0.09338   0.00000  Uiso   1.00
C251   C     0.13276   0.52151   0.45356   0.00000  Uiso   1.00
C252   C     0.20185   0.47967   0.04626   0.00000  Uiso   1.00
C253   C     0.16651   0.50047   0.47643   0.00000  Uiso   1.00
C254   C     0.16798   0.50045   0.02343   0.00000  Uiso   1.00
C255   C     0.19876   0.47930   0.45247   0.00000  Uiso   1.00
C256   C     0.13559   0.52128   0.04741   0.00000  Uiso   1.00
C257   C     0.10124   0.54231   0.47852   0.00000  Uiso   1.00
C258   C     0.23349   0.45911   0.02125   0.00000  Uiso   1.00
Cu259  Cu    0.16667   0.54689   0.25000   0.00000  Uiso   1.00
Cu260  Cu    0.16667   0.45311   0.25000   0.00000  Uiso   1.00
H261   H     0.07508   0.55927   0.46311   0.00000  Uiso   1.00
H262   H     0.26006   0.44288   0.03655   0.00000  Uiso   1.00
N263   N     0.16667   0.61736   0.25000   0.00000  Uiso   1.00
N264   N     0.16667   0.38264   0.25000   0.00000  Uiso   1.00
O265   O     0.10655   0.53958   0.24999   0.00000  Uiso   1.00
O266   O     0.22679   0.46042   0.25000   0.00000  Uiso   1.00
O267   O     0.22679   0.53958   0.25000   0.00000  Uiso   1.00
O268   O     0.10655   0.46042   0.24999   0.00000  Uiso   1.00
O269   O     0.16666   0.53960   0.18513   0.00000  Uiso   1.00
O270   O     0.16668   0.46040   0.31487   0.00000  Uiso   1.00
O271   O     0.16668   0.53960   0.31487   0.00000  Uiso   1.00
O272   O     0.16666   0.46040   0.18513   0.00000  Uiso   1.00
F273   F     0.22845   0.45980   0.38244   0.00000  Uiso   1.00
F274   F     0.10533   0.53945   0.11745   0.00000  Uiso   1.00
C275   C     0.09472   0.54076   0.38048   0.00000  Uiso   1.00
C276   C     0.09806   0.59402   0.37498   0.00000  Uiso   1.00
C277   C     0.06300   0.61307   0.34611   0.00000  Uiso   1.00
H278   H     0.06406   0.59743   0.31238   0.00000  Uiso   1.00
H279   H     0.03282   0.60504   0.36137   0.00000  Uiso   1.00
H280   H     0.06607   0.65160   0.34296   0.00000  Uiso   1.00
H281   H     0.09721   0.61148   0.40789   0.00000  Uiso   1.00
H282   H     0.12777   0.60316   0.35923   0.00000  Uiso   1.00
H283   H     0.09211   0.52437   0.34717   0.00000  Uiso   1.00
H284   H     0.06534   0.53110   0.39660   0.00000  Uiso   1.00
C285   C     0.24051   0.46043   0.11871   0.00000  Uiso   1.00
C286   C     0.27703   0.49448   0.11702   0.00000  Uiso   1.00
C287   C     0.31665   0.47127   0.13353   0.00000  Uiso   1.00
H288   H     0.31246   0.45672   0.16735   0.00000  Uiso   1.00
H289   H     0.32559   0.44256   0.11072   0.00000  Uiso   1.00
H290   H     0.00855   0.49745   0.13464   0.00000  Uiso   1.00
H291   H     0.28203   0.50732   0.08270   0.00000  Uiso   1.00
H292   H     0.27023   0.52530   0.13823   0.00000  Uiso   1.00
H293   H     0.23413   0.45366   0.15411   0.00000  Uiso   1.00
H294   H     0.24884   0.42548   0.10550   0.00000  Uiso   1.00
F295   F     0.07095   0.56273   0.04652   0.00000  Uiso   1.00
F296   F     0.26359   0.43826   0.45333   0.00000  Uiso   1.00
F297   F     0.04188   0.42511   0.28676   0.00000  Uiso   1.00
F298   F     0.29157   0.57559   0.21501   0.00000  Uiso   1.00
F299   F     0.29242   0.42511   0.28695   0.00000  Uiso   1.00
F300   F     0.04087   0.57534   0.21441   0.00000  Uiso   1.00
F301   F     0.11666   0.38137   0.19282   0.00000  Uiso   1.00
F302   F     0.21651   0.61862   0.30734   0.00000  Uiso   1.00
F303   F     0.21617   0.38123   0.30768   0.00000  Uiso   1.00
F304   F     0.11702   0.61876   0.19247   0.00000  Uiso   1.00
C305   C     0.42073   0.50003   0.25002   0.00000  Uiso   1.00
C306   C     0.57927   0.50002   0.25031   0.00000  Uiso   1.00
C307   C     0.43583   0.54214   0.02456   0.00000  Uiso   1.00
C308   C     0.56535   0.45880   0.47526   0.00000  Uiso   1.00
C309   C     0.35487   0.46198   0.26840   0.00000  Uiso   1.00
C310   C     0.64517   0.53859   0.23323   0.00000  Uiso   1.00
C311   C     0.64560   0.46200   0.26854   0.00000  Uiso   1.00
C312   C     0.35441   0.53849   0.23295   0.00000  Uiso   1.00
C313   C     0.62388   0.50020   0.25077   0.00000  Uiso   1.00
C314   C     0.37613   0.50014   0.25042   0.00000  Uiso   1.00
C315   C     0.47512   0.35814   0.22145   0.00000  Uiso   1.00
C316   C     0.52480   0.64186   0.27864   0.00000  Uiso   1.00
C317   C     0.52475   0.35807   0.27868   0.00000  Uiso   1.00
C318   C     0.47517   0.64192   0.22140   0.00000  Uiso   1.00
C319   C     0.50147   0.49998   0.16458   0.00000  Uiso   1.00
C320   C     0.49928   0.50003   0.33542   0.00000  Uiso   1.00
C321   C     0.53069   0.47924   0.40619   0.00000  Uiso   1.00
C322   C     0.47008   0.52066   0.09373   0.00000  Uiso   1.00
C323   C     0.49783   0.50008   0.38357   0.00000  Uiso   1.00
C324   C     0.50303   0.49991   0.11640   0.00000  Uiso   1.00
C325   C     0.46480   0.52103   0.40647   0.00000  Uiso   1.00
C326   C     0.53650   0.47985   0.09338   0.00000  Uiso   1.00
C327   C     0.46610   0.52151   0.45356   0.00000  Uiso   1.00
C328   C     0.53518   0.47967   0.04626   0.00000  Uiso   1.00
C329   C     0.49984   0.50047   0.47643   0.00000  Uiso   1.00
C330   C     0.50132   0.50045   0.02343   0.00000  Uiso   1.00
C331   C     0.53210   0.47930   0.45247   0.00000  Uiso   1.00
C332   C     0.46893   0.52128   0.04741   0.00000  Uiso   1.00
C333   C     0.43458   0.54231   0.47852   0.00000  Uiso   1.00
C334   C     0.56682   0.45911   0.02125   0.00000  Uiso   1.00
Cu335  Cu    0.50000   0.54689   0.25000   0.00000  Uiso   1.00
Cu336  Cu    0.50000   0.45311   0.25000   0.00000  Uiso   1.00
H337   H     0.40842   0.55927   0.46311   0.00000  Uiso   1.00
H338   H     0.59340   0.44288   0.03655   0.00000  Uiso   1.00
N339   N     0.50000   0.61736   0.25000   0.00000  Uiso   1.00
N340   N     0.50000   0.38264   0.25000   0.00000  Uiso   1.00
O341   O     0.43988   0.53958   0.24999   0.00000  Uiso   1.00
O342   O     0.56012   0.46042   0.25000   0.00000  Uiso   1.00
O343   O     0.56012   0.53958   0.25000   0.00000  Uiso   1.00
O344   O     0.43988   0.46042   0.24999   0.00000  Uiso   1.00
O345   O     0.49999   0.53960   0.18513   0.00000  Uiso   1.00
O346   O     0.50001   0.46040   0.31487   0.00000  Uiso   1.00
O347   O     0.50001   0.53960   0.31487   0.00000  Uiso   1.00
O348   O     0.49999   0.46040   0.18513   0.00000  Uiso   1.00
F349   F     0.56179   0.45980   0.38244   0.00000  Uiso   1.00
F350   F     0.43866   0.53945   0.11745   0.00000  Uiso   1.00
C351   C     0.42805   0.54076   0.38048   0.00000  Uiso   1.00
C352   C     0.43139   0.59402   0.37498   0.00000  Uiso   1.00
C353   C     0.39633   0.61307   0.34611   0.00000  Uiso   1.00
H354   H     0.39739   0.59743   0.31238   0.00000  Uiso   1.00
H355   H     0.36615   0.60504   0.36137   0.00000  Uiso   1.00
H356   H     0.39941   0.65160   0.34296   0.00000  Uiso   1.00
H357   H     0.43055   0.61148   0.40789   0.00000  Uiso   1.00
H358   H     0.46111   0.60316   0.35923   0.00000  Uiso   1.00
H359   H     0.42544   0.52437   0.34717   0.00000  Uiso   1.00
H360   H     0.39868   0.53110   0.39660   0.00000  Uiso   1.00
C361   C     0.57384   0.46043   0.11871   0.00000  Uiso   1.00
C362   C     0.61037   0.49448   0.11702   0.00000  Uiso   1.00
C363   C     0.64998   0.47127   0.13353   0.00000  Uiso   1.00
H364   H     0.64580   0.45672   0.16735   0.00000  Uiso   1.00
H365   H     0.65892   0.44256   0.11072   0.00000  Uiso   1.00
H366   H     0.34188   0.49745   0.13464   0.00000  Uiso   1.00
H367   H     0.61536   0.50732   0.08270   0.00000  Uiso   1.00
H368   H     0.60357   0.52530   0.13823   0.00000  Uiso   1.00
H369   H     0.56746   0.45366   0.15411   0.00000  Uiso   1.00
H370   H     0.58217   0.42548   0.10550   0.00000  Uiso   1.00
F371   F     0.40429   0.56273   0.04652   0.00000  Uiso   1.00
F372   F     0.59692   0.43826   0.45333   0.00000  Uiso   1.00
F373   F     0.37521   0.42511   0.28676   0.00000  Uiso   1.00
F374   F     0.62490   0.57559   0.21501   0.00000  Uiso   1.00
F375   F     0.62575   0.42511   0.28695   0.00000  Uiso   1.00
F376   F     0.37421   0.57534   0.21441   0.00000  Uiso   1.00
F377   F     0.44999   0.38137   0.19282   0.00000  Uiso   1.00
F378   F     0.54984   0.61862   0.30734   0.00000  Uiso   1.00
F379   F     0.54950   0.38123   0.30768   0.00000  Uiso   1.00
F380   F     0.45036   0.61876   0.19247   0.00000  Uiso   1.00
C381   C     0.75406   0.50003   0.25002   0.00000  Uiso   1.00
C382   C     0.91261   0.50002   0.25031   0.00000  Uiso   1.00
C383   C     0.76916   0.54214   0.02456   0.00000  Uiso   1.00
C384   C     0.89868   0.45880   0.47526   0.00000  Uiso   1.00
C385   C     0.68821   0.46198   0.26840   0.00000  Uiso   1.00
C386   C     0.97850   0.53859   0.23323   0.00000  Uiso   1.00
C387   C     0.97893   0.46200   0.26854   0.00000  Uiso   1.00
C388   C     0.68774   0.53849   0.23295   0.00000  Uiso   1.00
C389   C     0.95721   0.50020   0.25077   0.00000  Uiso   1.00
C390   C     0.70946   0.50014   0.25042   0.00000  Uiso   1.00
C391   C     0.80845   0.35814   0.22145   0.00000  Uiso   1.00
C392   C     0.85813   0.64186   0.27864   0.00000  Uiso   1.00
C393   C     0.85808   0.35807   0.27868   0.00000  Uiso   1.00
C394   C     0.80851   0.64192   0.22140   0.00000  Uiso   1.00
C395   C     0.83480   0.49998   0.16458   0.00000  Uiso   1.00
C396   C     0.83262   0.50003   0.33542   0.00000  Uiso   1.00
C397   C     0.86402   0.47924   0.40619   0.00000  Uiso   1.00
C398   C     0.80341   0.52066   0.09373   0.00000  Uiso   1.00
C399   C     0.83117   0.50008   0.38357   0.00000  Uiso   1.00
C400   C     0.83636   0.49991   0.11640   0.00000  Uiso   1.00
C401   C     0.79813   0.52103   0.40647   0.00000  Uiso   1.00
C402   C     0.86983   0.47985   0.09338   0.00000  Uiso   1.00
C403   C     0.79943   0.52151   0.45356   0.00000  Uiso   1.00
C404   C     0.86852   0.47967   0.04626   0.00000  Uiso   1.00
C405   C     0.83317   0.50047   0.47643   0.00000  Uiso   1.00
C406   C     0.83465   0.50045   0.02343   0.00000  Uiso   1.00
C407   C     0.86543   0.47930   0.45247   0.00000  Uiso   1.00
C408   C     0.80226   0.52128   0.04741   0.00000  Uiso   1.00
C409   C     0.76791   0.54231   0.47852   0.00000  Uiso   1.00
C410   C     0.90015   0.45911   0.02125   0.00000  Uiso   1.00
Cu411  Cu    0.83333   0.54689   0.25000   0.00000  Uiso   1.00
Cu412  Cu    0.83333   0.45311   0.25000   0.00000  Uiso   1.00
H413   H     0.74175   0.55927   0.46311   0.00000  Uiso   1.00
H414   H     0.92673   0.44288   0.03655   0.00000  Uiso   1.00
N415   N     0.83333   0.61736   0.25000   0.00000  Uiso   1.00
N416   N     0.83333   0.38264   0.25000   0.00000  Uiso   1.00
O417   O     0.77321   0.53958   0.24999   0.00000  Uiso   1.00
O418   O     0.89345   0.46042   0.25000   0.00000  Uiso   1.00
O419   O     0.89345   0.53958   0.25000   0.00000  Uiso   1.00
O420   O     0.77321   0.46042   0.24999   0.00000  Uiso   1.00
O421   O     0.83332   0.53960   0.18513   0.00000  Uiso   1.00
O422   O     0.83334   0.46040   0.31487   0.00000  Uiso   1.00
O423   O     0.83334   0.53960   0.31487   0.00000  Uiso   1.00
O424   O     0.83332   0.46040   0.18513   0.00000  Uiso   1.00
F425   F     0.89512   0.45980   0.38244   0.00000  Uiso   1.00
F426   F     0.77199   0.53945   0.11745   0.00000  Uiso   1.00
C427   C     0.76139   0.54076   0.38048   0.00000  Uiso   1.00
C428   C     0.76473   0.59402   0.37498   0.00000  Uiso   1.00
C429   C     0.72967   0.61307   0.34611   0.00000  Uiso   1.00
H430   H     0.73073   0.59743   0.31238   0.00000  Uiso   1.00
H431   H     0.69949   0.60504   0.36137   0.00000  Uiso   1.00
H432   H     0.73274   0.65160   0.34296   0.00000  Uiso   1.00
H433   H     0.76388   0.61148   0.40789   0.00000  Uiso   1.00
H434   H     0.79444   0.60316   0.35923   0.00000  Uiso   1.00
H435   H     0.75878   0.52437   0.34717   0.00000  Uiso   1.00
H436   H     0.73201   0.53110   0.39660   0.00000  Uiso   1.00
C437   C     0.90717   0.46043   0.11871   0.00000  Uiso   1.00
C438   C     0.94370   0.49448   0.11702   0.00000  Uiso   1.00
C439   C     0.98332   0.47127   0.13353   0.00000  Uiso   1.00
H440   H     0.97913   0.45672   0.16735   0.00000  Uiso   1.00
H441   H     0.99225   0.44256   0.11072   0.00000  Uiso   1.00
H442   H     0.67522   0.49745   0.13464   0.00000  Uiso   1.00
H443   H     0.94870   0.50732   0.08270   0.00000  Uiso   1.00
H444   H     0.93690   0.52530   0.13823   0.00000  Uiso   1.00
H445   H     0.90080   0.45366   0.15411   0.00000  Uiso   1.00
H446   H     0.91550   0.42548   0.10550   0.00000  Uiso   1.00
F447   F     0.73762   0.56273   0.04652   0.00000  Uiso   1.00
F448   F     0.93026   0.43826   0.45333   0.00000  Uiso   1.00
F449   F     0.70854   0.42511   0.28676   0.00000  Uiso   1.00
F450   F     0.95824   0.57559   0.21501   0.00000  Uiso   1.00
F451   F     0.95908   0.42511   0.28695   0.00000  Uiso   1.00
F452   F     0.70754   0.57534   0.21441   0.00000  Uiso   1.00
F453   F     0.78332   0.38137   0.19282   0.00000  Uiso   1.00
F454   F     0.88317   0.61862   0.30734   0.00000  Uiso   1.00
F455   F     0.88284   0.38123   0.30768   0.00000  Uiso   1.00
F456   F     0.78369   0.61876   0.19247   0.00000  Uiso   1.00
C457   C     0.08740   0.83336   0.25002   0.00000  Uiso   1.00
C458   C     0.24594   0.83335   0.25031   0.00000  Uiso   1.00
C459   C     0.10249   0.87548   0.02456   0.00000  Uiso   1.00
C460   C     0.23202   0.79213   0.47526   0.00000  Uiso   1.00
C461   C     0.02154   0.79531   0.26840   0.00000  Uiso   1.00
C462   C     0.31184   0.87192   0.23323   0.00000  Uiso   1.00
C463   C     0.31227   0.79533   0.26854   0.00000  Uiso   1.00
C464   C     0.02108   0.87183   0.23295   0.00000  Uiso   1.00
C465   C     0.29055   0.83354   0.25077   0.00000  Uiso   1.00
C466   C     0.04280   0.83347   0.25042   0.00000  Uiso   1.00
C467   C     0.14179   0.69147   0.22145   0.00000  Uiso   1.00
C468   C     0.19146   0.97519   0.27864   0.00000  Uiso   1.00
C469   C     0.19141   0.69141   0.27868   0.00000  Uiso   1.00
C470   C     0.14184   0.97525   0.22140   0.00000  Uiso   1.00
C471   C     0.16813   0.83331   0.16458   0.00000  Uiso   1.00
C472   C     0.16595   0.83336   0.33542   0.00000  Uiso   1.00
C473   C     0.19736   0.81257   0.40619   0.00000  Uiso   1.00
C474   C     0.13674   0.85399   0.09373   0.00000  Uiso   1.00
C475   C     0.16450   0.83341   0.38357   0.00000  Uiso   1.00
C476   C     0.16970   0.83324   0.11640   0.00000  Uiso   1.00
C477   C     0.13146   0.85437   0.40647   0.00000  Uiso   1.00
C478   C     0.20316   0.81319   0.09338   0.00000  Uiso   1.00
C479   C     0.13276   0.85485   0.45356   0.00000  Uiso   1.00
C480   C     0.20185   0.81300   0.04626   0.00000  Uiso   1.00
C481   C     0.16651   0.83380   0.47643   0.00000  Uiso   1.00
C482   C     0.16798   0.83379   0.02343   0.00000  Uiso   1.00
C483   C     0.19876   0.81263   0.45247   0.00000  Uiso   1.00
C484   C     0.13559   0.85462   0.04741   0.00000  Uiso   1.00
C485   C     0.10124   0.87564   0.47852   0.00000  Uiso   1.00
C486   C     0.23349   0.79244   0.02125   0.00000  Uiso   1.00
Cu487  Cu    0.16667   0.88022   0.25000   0.00000  Uiso   1.00
Cu488  Cu    0.16667   0.78645   0.25000   0.00000  Uiso   1.00
H489   H     0.07508   0.89260   0.46311   0.00000  Uiso   1.00
H490   H     0.26006   0.77622   0.03655   0.00000  Uiso   1.00
N491   N     0.16667   0.95069   0.25000   0.00000  Uiso   1.00
N492   N     0.16667   0.71598   0.25000   0.00000  Uiso   1.00
O493   O     0.10655   0.87291   0.24999   0.00000  Uiso   1.00
O494   O     0.22679   0.79375   0.25000   0.00000  Uiso   1.00
O495   O     0.22679   0.87291   0.25000   0.00000  Uiso   1.00
O496   O     0.10655   0.79375   0.24999   0.00000  Uiso   1.00
O497   O     0.16666   0.87293   0.18513   0.00000  Uiso   1.00
O498   O     0.16668   0.79373   0.31487   0.00000  Uiso   1.00
O499   O     0.16668   0.87293   0.31487   0.00000  Uiso   1.00
O500   O     0.16666   0.79373   0.18513   0.00000  Uiso   1.00
F501   F     0.22845   0.79313   0.38244   0.00000  Uiso   1.00
F502   F     0.10533   0.87279   0.11745   0.00000  Uiso   1.00
C503   C     0.09472   0.87409   0.38048   0.00000  Uiso   1.00
C504   C     0.09806   0.92736   0.37498   0.00000  Uiso   1.00
C505   C     0.06300   0.94640   0.34611   0.00000  Uiso   1.00
H506   H     0.06406   0.93076   0.31238   0.00000  Uiso   1.00
H507   H     0.03282   0.93838   0.36137   0.00000  Uiso   1.00
H508   H     0.06607   0.98493   0.34296   0.00000  Uiso   1.00
H509   H     0.09721   0.94481   0.40789   0.00000  Uiso   1.00
H510   H     0.12777   0.93649   0.35923   0.00000  Uiso   1.00
H511   H     0.09211   0.85770   0.34717   0.00000  Uiso   1.00
H512   H     0.06534   0.86444   0.39660   0.00000  Uiso   1.00
C513   C     0.24051   0.79377   0.11871   0.00000  Uiso   1.00
C514   C     0.27703   0.82781   0.11702   0.00000  Uiso   1.00
C515   C     0.31665   0.80461   0.13353   0.00000  Uiso   1.00
H516   H     0.31246   0.79006   0.16735   0.00000  Uiso   1.00
H517   H     0.32559   0.77590   0.11072   0.00000  Uiso   1.00
H518   H     0.00855   0.83078   0.13464   0.00000  Uiso   1.00
H519   H     0.28203   0.84065   0.08270   0.00000  Uiso   1.00
H520   H     0.27023   0.85863   0.13823   0.00000  Uiso   1.00
H521   H     0.23413   0.78699   0.15411   0.00000  Uiso   1.00
H522   H     0.24884   0.75881   0.10550   0.00000  Uiso   1.00
F523   F     0.07095   0.89606   0.04652   0.00000  Uiso   1.00
F524   F     0.26359   0.77159   0.45333   0.00000  Uiso   1.00
F525   F     0.04188   0.75844   0.28676   0.00000  Uiso   1.00
F526   F     0.29157   0.90892   0.21501   0.00000  Uiso   1.00
F527   F     0.29242   0.75844   0.28695   0.00000  Uiso   1.00
F528   F     0.04087   0.90868   0.21441   0.00000  Uiso   1.00
F529   F     0.11666   0.71470   0.19282   0.00000  Uiso   1.00
F530   F     0.21651   0.95195   0.30734   0.00000  Uiso   1.00
F531   F     0.21617   0.71456   0.30768   0.00000  Uiso   1.00
F532   F     0.11702   0.95209   0.19247   0.00000  Uiso   1.00
C533   C     0.42073   0.83336   0.25002   0.00000  Uiso   1.00
C534   C     0.57927   0.83335   0.25031   0.00000  Uiso   1.00
C535   C     0.43583   0.87548   0.02456   0.00000  Uiso   1.00
C536   C     0.56535   0.79213   0.47526   0.00000  Uiso   1.00
C537   C     0.35487   0.79531   0.26840   0.00000  Uiso   1.00
C538   C     0.64517   0.87192   0.23323   0.00000  Uiso   1.00
C539   C     0.64560   0.79533   0.26854   0.00000  Uiso   1.00
C540   C     0.35441   0.87183   0.23295   0.00000  Uiso   1.00
C541   C     0.62388   0.83354   0.25077   0.00000  Uiso   1.00
C542   C     0.37613   0.83347   0.25042   0.00000  Uiso   1.00
C543   C     0.47512   0.69147   0.22145   0.00000  Uiso   1.00
C544   C     0.52480   0.97519   0.27864   0.00000  Uiso   1.00
C545   C     0.52475   0.69141   0.27868   0.00000  Uiso   1.00
C546   C     0.47517   0.97525   0.22140   0.00000  Uiso   1.00
C547   C     0.50147   0.83331   0.16458   0.00000  Uiso   1.00
C548   C     0.49928   0.83336   0.33542   0.00000  Uiso   1.00
C549   C     0.53069   0.81257   0.40619   0.00000  Uiso   1.00
C550   C     0.47008   0.85399   0.09373   0.00000  Uiso   1.00
C551   C     0.49783   0.83341   0.38357   0.00000  Uiso   1.00
C552   C     0.50303   0.83324   0.11640   0.00000  Uiso   1.00
C553   C     0.46480   0.85437   0.40647   0.00000  Uiso   1.00
C554   C     0.53650   0.81319   0.09338   0.00000  Uiso   1.00
C555   C     0.46610   0.85485   0.45356   0.00000  Uiso   1.00
C556   C     0.53518   0.81300   0.04626   0.00000  Uiso   1.00
C557   C     0.49984   0.83380   0.47643   0.00000  Uiso   1.00
C558   C     0.50132   0.83379   0.02343   0.00000  Uiso   1.00
C559   C     0.53210   0.81263   0.45247   0.00000  Uiso   1.00
C560   C     0.46893   0.85462   0.04741   0.00000  Uiso   1.00
C561   C     0.43458   0.87564   0.47852   0.00000  Uiso   1.00
C562   C     0.56682   0.79244   0.02125   0.00000  Uiso   1.00
Cu563  Cu    0.50000   0.88022   0.25000   0.00000  Uiso   1.00
Cu564  Cu    0.50000   0.78645   0.25000   0.00000  Uiso   1.00
H565   H     0.40842   0.89260   0.46311   0.00000  Uiso   1.00
H566   H     0.59340   0.77622   0.03655   0.00000  Uiso   1.00
N567   N     0.50000   0.95069   0.25000   0.00000  Uiso   1.00
N568   N     0.50000   0.71598   0.25000   0.00000  Uiso   1.00
O569   O     0.43988   0.87291   0.24999   0.00000  Uiso   1.00
O570   O     0.56012   0.79375   0.25000   0.00000  Uiso   1.00
O571   O     0.56012   0.87291   0.25000   0.00000  Uiso   1.00
O572   O     0.43988   0.79375   0.24999   0.00000  Uiso   1.00
O573   O     0.49999   0.87293   0.18513   0.00000  Uiso   1.00
O574   O     0.50001   0.79373   0.31487   0.00000  Uiso   1.00
O575   O     0.50001   0.87293   0.31487   0.00000  Uiso   1.00
O576   O     0.49999   0.79373   0.18513   0.00000  Uiso   1.00
F577   F     0.56179   0.79313   0.38244   0.00000  Uiso   1.00
F578   F     0.43866   0.87279   0.11745   0.00000  Uiso   1.00
C579   C     0.42805   0.87409   0.38048   0.00000  Uiso   1.00
C580   C     0.43139   0.92736   0.37498   0.00000  Uiso   1.00
C581   C     0.39633   0.94640   0.34611   0.00000  Uiso   1.00
H582   H     0.39739   0.93076   0.31238   0.00000  Uiso   1.00
H583   H     0.36615   0.93838   0.36137   0.00000  Uiso   1.00
H584   H     0.39941   0.98493   0.34296   0.00000  Uiso   1.00
H585   H     0.43055   0.94481   0.40789   0.00000  Uiso   1.00
H586   H     0.46111   0.93649   0.35923   0.00000  Uiso   1.00
H587   H     0.42544   0.85770   0.34717   0.00000  Uiso   1.00
H588   H     0.39868   0.86444   0.39660   0.00000  Uiso   1.00
C589   C     0.57384   0.79377   0.11871   0.00000  Uiso   1.00
C590   C     0.61037   0.82781   0.11702   0.00000  Uiso   1.00
C591   C     0.64998   0.80461   0.13353   0.00000  Uiso   1.00
H592   H     0.64580   0.79006   0.16735   0.00000  Uiso   1.00
H593   H     0.65892   0.77590   0.11072   0.00000  Uiso   1.00
H594   H     0.34188   0.83078   0.13464   0.00000  Uiso   1.00
H595   H     0.61536   0.84065   0.08270   0.00000  Uiso   1.00
H596   H     0.60357   0.85863   0.13823   0.00000  Uiso   1.00
H597   H     0.56746   0.78699   0.15411   0.00000  Uiso   1.00
H598   H     0.58217   0.75881   0.10550   0.00000  Uiso   1.00
F599   F     0.40429   0.89606   0.04652   0.00000  Uiso   1.00
F600   F     0.59692   0.77159   0.45333   0.00000  Uiso   1.00
F601   F     0.37521   0.75844   0.28676   0.00000  Uiso   1.00
F602   F     0.62490   0.90892   0.21501   0.00000  Uiso   1.00
F603   F     0.62575   0.75844   0.28695   0.00000  Uiso   1.00
F604   F     0.37421   0.90868   0.21441   0.00000  Uiso   1.00
F605   F     0.44999   0.71470   0.19282   0.00000  Uiso   1.00
F606   F     0.54984   0.95195   0.30734   0.00000  Uiso   1.00
F607   F     0.54950   0.71456   0.30768   0.00000  Uiso   1.00
F608   F     0.45036   0.95209   0.19247   0.00000  Uiso   1.00
C609   C     0.75406   0.83336   0.25002   0.00000  Uiso   1.00
C610   C     0.91261   0.83335   0.25031   0.00000  Uiso   1.00
C611   C     0.76916   0.87548   0.02456   0.00000  Uiso   1.00
C612   C     0.89868   0.79213   0.47526   0.00000  Uiso   1.00
C613   C     0.68821   0.79531   0.26840   0.00000  Uiso   1.00
C614   C     0.97850   0.87192   0.23323   0.00000  Uiso   1.00
C615   C     0.97893   0.79533   0.26854   0.00000  Uiso   1.00
C616   C     0.68774   0.87183   0.23295   0.00000  Uiso   1.00
C617   C     0.95721   0.83354   0.25077   0.00000  Uiso   1.00
C618   C     0.70946   0.83347   0.25042   0.00000  Uiso   1.00
C619   C     0.80845   0.69147   0.22145   0.00000  Uiso   1.00
C620   C     0.85813   0.97519   0.27864   0.00000  Uiso   1.00
C621   C     0.85808   0.69141   0.27868   0.00000  Uiso   1.00
C622   C     0.80851   0.97525   0.22140   0.00000  Uiso   1.00
C623   C     0.83480   0.83331   0.16458   0.00000  Uiso   1.00
C624   C     0.83262   0.83336   0.33542   0.00000  Uiso   1.00
C625   C     0.86402   0.81257   0.40619   0.00000  Uiso   1.00
C626   C     0.80341   0.85399   0.09373   0.00000  Uiso   1.00
C627   C     0.83117   0.83341   0.38357   0.00000  Uiso   1.00
C628   C     0.83636   0.83324   0.11640   0.00000  Uiso   1.00
C629   C     0.79813   0.85437   0.40647   0.00000  Uiso   1.00
C630   C     0.86983   0.81319   0.09338   0.00000  Uiso   1.00
C631   C     0.79943   0.85485   0.45356   0.00000  Uiso   1.00
C632   C     0.86852   0.81300   0.04626   0.00000  Uiso   1.00
C633   C     0.83317   0.83380   0.47643   0.00000  Uiso   1.00
C634   C     0.83465   0.83379   0.02343   0.00000  Uiso   1.00
C635   C     0.86543   0.81263   0.45247   0.00000  Uiso   1.00
C636   C     0.80226   0.85462   0.04741   0.00000  Uiso   1.00
C637   C     0.76791   0.87564   0.47852   0.00000  Uiso   1.00
C638   C     0.90015   0.79244   0.02125   0.00000  Uiso   1.00
Cu639  Cu    0.83333   0.88022   0.25000   0.00000  Uiso   1.00
Cu640  Cu    0.83333   0.78645   0.25000   0.00000  Uiso   1.00
H641   H     0.74175   0.89260   0.46311   0.00000  Uiso   1.00
H642   H     0.92673   0.77622   0.03655   0.00000  Uiso   1.00
N643   N     0.83333   0.95069   0.25000   0.00000  Uiso   1.00
N644   N     0.83333   0.71598   0.25000   0.00000  Uiso   1.00
O645   O     0.77321   0.87291   0.24999   0.00000  Uiso   1.00
O646   O     0.89345   0.79375   0.25000   0.00000  Uiso   1.00
O647   O     0.89345   0.87291   0.25000   0.00000  Uiso   1.00
O648   O     0.77321   0.79375   0.24999   0.00000  Uiso   1.00
O649   O     0.83332   0.87293   0.18513   0.00000  Uiso   1.00
O650   O     0.83334   0.79373   0.31487   0.00000  Uiso   1.00
O651   O     0.83334   0.87293   0.31487   0.00000  Uiso   1.00
O652   O     0.83332   0.79373   0.18513   0.00000  Uiso   1.00
F653   F     0.89512   0.79313   0.38244   0.00000  Uiso   1.00
F654   F     0.77199   0.87279   0.11745   0.00000  Uiso   1.00
C655   C     0.76139   0.87409   0.38048   0.00000  Uiso   1.00
C656   C     0.76473   0.92736   0.37498   0.00000  Uiso   1.00
C657   C     0.72967   0.94640   0.34611   0.00000  Uiso   1.00
H658   H     0.73073   0.93076   0.31238   0.00000  Uiso   1.00
H659   H     0.69949   0.93838   0.36137   0.00000  Uiso   1.00
H660   H     0.73274   0.98493   0.34296   0.00000  Uiso   1.00
H661   H     0.76388   0.94481   0.40789   0.00000  Uiso   1.00
H662   H     0.79444   0.93649   0.35923   0.00000  Uiso   1.00
H663   H     0.75878   0.85770   0.34717   0.00000  Uiso   1.00
H664   H     0.73201   0.86444   0.39660   0.00000  Uiso   1.00
C665   C     0.90717   0.79377   0.11871   0.00000  Uiso   1.00
C666   C     0.94370   0.82781   0.11702   0.00000  Uiso   1.00
C667   C     0.98332   0.80461   0.13353   0.00000  Uiso   1.00
H668   H     0.97913   0.79006   0.16735   0.00000  Uiso   1.00
H669   H     0.99225   0.77590   0.11072   0.00000  Uiso   1.00
H670   H     0.67522   0.83078   0.13464   0.00000  Uiso   1.00
H671   H     0.94870   0.84065   0.08270   0.00000  Uiso   1.00
H672   H     0.93690   0.85863   0.13823   0.00000  Uiso   1.00
H673   H     0.90080   0.78699   0.15411   0.00000  Uiso   1.00
H674   H     0.91550   0.75881   0.10550   0.00000  Uiso   1.00
F675   F     0.73762   0.89606   0.04652   0.00000  Uiso   1.00
F676   F     0.93026   0.77159   0.45333   0.00000  Uiso   1.00
F677   F     0.70854   0.75844   0.28676   0.00000  Uiso   1.00
F678   F     0.95824   0.90892   0.21501   0.00000  Uiso   1.00
F679   F     0.95908   0.75844   0.28695   0.00000  Uiso   1.00
F680   F     0.70754   0.90868   0.21441   0.00000  Uiso   1.00
F681   F     0.78332   0.71470   0.19282   0.00000  Uiso   1.00
F682   F     0.88317   0.95195   0.30734   0.00000  Uiso   1.00
F683   F     0.88284   0.71456   0.30768   0.00000  Uiso   1.00
F684   F     0.78369   0.95209   0.19247   0.00000  Uiso   1.00
C685   C     0.08740   0.16669   0.75002   0.00000  Uiso   1.00
C686   C     0.24594   0.16669   0.75031   0.00000  Uiso   1.00
C687   C     0.10249   0.20881   0.52456   0.00000  Uiso   1.00
C688   C     0.23202   0.12547   0.97526   0.00000  Uiso   1.00
C689   C     0.02154   0.12865   0.76840   0.00000  Uiso   1.00
C690   C     0.31184   0.20526   0.73323   0.00000  Uiso   1.00
C691   C     0.31227   0.12867   0.76854   0.00000  Uiso   1.00
C692   C     0.02108   0.20516   0.73295   0.00000  Uiso   1.00
C693   C     0.29055   0.16687   0.75077   0.00000  Uiso   1.00
C694   C     0.04280   0.16681   0.75042   0.00000  Uiso   1.00
C695   C     0.14179   0.02480   0.72145   0.00000  Uiso   1.00
C696   C     0.19146   0.30853   0.77864   0.00000  Uiso   1.00
C697   C     0.19141   0.02474   0.77868   0.00000  Uiso   1.00
C698   C     0.14184   0.30859   0.72140   0.00000  Uiso   1.00
C699   C     0.16813   0.16664   0.66458   0.00000  Uiso   1.00
C700   C     0.16595   0.16669   0.83542   0.00000  Uiso   1.00
C701   C     0.19736   0.14591   0.90619   0.00000  Uiso   1.00
C702   C     0.13674   0.18733   0.59373   0.00000  Uiso   1.00
C703   C     0.16450   0.16675   0.88357   0.00000  Uiso   1.00
C704   C     0.16970   0.16658   0.61640   0.00000  Uiso   1.00
C705   C     0.13146   0.18770   0.90647   0.00000  Uiso   1.00
C706   C     0.20316   0.14652   0.59338   0.00000  Uiso   1.00
C707   C     0.13276   0.18818   0.95356   0.00000  Uiso   1.00
C708   C     0.20185   0.14634   0.54626   0.00000  Uiso   1.00
C709   C     0.16651   0.16714   0.97643   0.00000  Uiso   1.00
C710   C     0.16798   0.16712   0.52343   0.00000  Uiso   1.00
C711   C     0.19876   0.14596   0.95247   0.00000  Uiso   1.00
C712   C     0.13559   0.18795   0.54741   0.00000  Uiso   1.00
C713   C     0.10124   0.20898   0.97852   0.00000  Uiso   1.00
C714   C     0.23349   0.12578   0.52125   0.00000  Uiso   1.00
Cu715  Cu    0.16667   0.21355   0.75000   0.00000  Uiso   1.00
Cu716  Cu    0.16667   0.11978   0.75000   0.00000  Uiso   1.00
H717   H     0.07508   0.22593   0.96311   0.00000  Uiso   1.00
H718   H     0.26006   0.10955   0.53655   0.00000  Uiso   1.00
N719   N     0.16667   0.28402   0.75000   0.00000  Uiso   1.00
N720   N     0.16667   0.04931   0.75000   0.00000  Uiso   1.00
O721   O     0.10655   0.20625   0.74999   0.00000  Uiso   1.00
O722   O     0.22679   0.12709   0.75000   0.00000  Uiso   1.00
O723   O     0.22679   0.20625   0.75000   0.00000  Uiso   1.00
O724   O     0.10655   0.12709   0.74999   0.00000  Uiso   1.00
O725   O     0.16666   0.20627   0.68513   0.00000  Uiso   1.00
O726   O     0.16668   0.12707   0.81487   0.00000  Uiso   1.00
O727   O     0.16668   0.20627   0.81487   0.00000  Uiso   1.00
O728   O     0.16666   0.12707   0.68513   0.00000  Uiso   1.00
F729   F     0.22845   0.12646   0.88244   0.00000  Uiso   1.00
F730   F     0.10533   0.20612   0.61745   0.00000  Uiso   1.00
C731   C     0.09472   0.20742   0.88048   0.00000  Uiso   1.00
C732   C     0.09806   0.26069   0.87498   0.00000  Uiso   1.00
C733   C     0.06300   0.27974   0.84611   0.00000  Uiso   1.00
H734   H     0.06406   0.26409   0.81238   0.00000  Uiso   1.00
H735   H     0.03282   0.27171   0.86137   0.00000  Uiso   1.00
H736   H     0.06607   0.31827   0.84296   0.00000  Uiso   1.00
H737   H     0.09721   0.27814   0.90789   0.00000  Uiso   1.00
H738   H     0.12777   0.26982   0.85923   0.00000  Uiso   1.00
H739   H     0.09211   0.19104   0.84717   0.00000  Uiso   1.00
H740   H     0.06534   0.19777   0.89660   0.00000  Uiso   1.00
C741   C     0.24051   0.12710   0.61871   0.00000  Uiso   1.00
C742   C     0.27703   0.16115   0.61702   0.00000  Uiso   1.00
C743   C     0.31665   0.13794   0.63353   0.00000  Uiso   1.00
H744   H     0.31246   0.12339   0.66735   0.00000  Uiso   1.00
H745   H     0.32559   0.10923   0.61072   0.00000  Uiso   1.00
H746   H     0.00855   0.16412   0.63464   0.00000  Uiso   1.00
H747   H     0.28203   0.17398   0.58270   0.00000  Uiso   1.00
H748   H     0.27023   0.19197   0.63823   0.00000  Uiso   1.00
H749   H     0.23413   0.12032   0.65411   0.00000  Uiso   1.00
H750   H     0.24884   0.09214   0.60550   0.00000  Uiso   1.00
F751   F     0.07095   0.22939   0.54652   0.00000  Uiso   1.00
F752   F     0.26359   0.10493   0.95333   0.00000  Uiso   1.00
F753   F     0.04188   0.09177   0.78676   0.00000  Uiso   1.00
F754   F     0.29157   0.24226   0.71501   0.00000  Uiso   1.00
F755   F     0.29242   0.09178   0.78695   0.00000  Uiso   1.00
F756   F     0.04087   0.24201   0.71441   0.00000  Uiso   1.00
F757   F     0.11666   0.04804   0.69282   0.00000  Uiso   1.00
F758   F     0.21651   0.28529   0.80734   0.00000  Uiso   1.00
F759   F     0.21617   0.04789   0.80768   0.00000  Uiso   1.00
F760   F     0.11702   0.28543   0.69247   0.00000  Uiso   1.00
C761   C     0.42073   0.16669   0.75002   0.00000  Uiso   1.00
C762   C     0.57927   0.16669   0.75031   0.00000  Uiso   1.00
C763   C     0.43583   0.20881   0.52456   0.00000  Uiso   1.00
C764   C     0.56535   0.12547   0.97526   0.00000  Uiso   1.00
C765   C     0.35487   0.12865   0.76840   0.00000  Uiso   1.00
C766   C     0.64517   0.20526   0.73323   0.00000  Uiso   1.00
C767   C     0.64560   0.12867   0.76854   0.00000  Uiso   1.00
C768   C     0.35441   0.20516   0.73295   0.00000  Uiso   1.00
C769   C     0.62388   0.16687   0.75077   0.00000  Uiso   1.00
C770   C     0.37613   0.16681   0.75042   0.00000  Uiso   1.00
C771   C     0.47512   0.02480   0.72145   0.00000  Uiso   1.00
C772   C     0.52480   0.30853   0.77864   0.00000  Uiso   1.00
C773   C     0.52475   0.02474   0.77868   0.00000  Uiso   1.00
C774   C     0.47517   0.30859   0.72140   0.00000  Uiso   1.00
C775   C     0.50147   0.16664   0.66458   0.00000  Uiso   1.00
C776   C     0.49928   0.16669   0.83542   0.00000  Uiso   1.00
C777   C     0.53069   0.14591   0.90619   0.00000  Uiso   1.00
C778   C     0.47008   0.18733   0.59373   0.00000  Uiso   1.00
C779   C     0.49783   0.16675   0.88357   0.00000  Uiso   1.00
C780   C     0.50303   0.16658   0.61640   0.00000  Uiso   1.00
C781   C     0.46480   0.18770   0.90647   0.00000  Uiso   1.00
C782   C     0.53650   0.14652   0.59338   0.00000  Uiso   1.00
C783   C     0.46610   0.18818   0.95356   0.00000  Uiso   1.00
C784   C     0.53518   0.14634   0.54626   0.00000  Uiso   1.00
C785   C     0.49984   0.16714   0.97643   0.00000  Uiso   1.00
C786   C     0.50132   0.16712   0.52343   0.00000  Uiso   1.00
C787   C     0.53210   0.14596   0.95247   0.00000  Uiso   1.00
C788   C     0.46893   0.18795   0.54741   0.00000  Uiso   1.00
C789   C     0.43458   0.20898   0.97852   0.00000  Uiso   1.00
C790   C     0.56682   0.12578   0.52125   0.00000  Uiso   1.00
Cu791  Cu    0.50000   0.21355   0.75000   0.00000  Uiso   1.00
Cu792  Cu    0.50000   0.11978   0.75000   0.00000  Uiso   1.00
H793   H     0.40842   0.22593   0.96311   0.00000  Uiso   1.00
H794   H     0.59340   0.10955   0.53655   0.00000  Uiso   1.00
N795   N     0.50000   0.28402   0.75000   0.00000  Uiso   1.00
N796   N     0.50000   0.04931   0.75000   0.00000  Uiso   1.00
O797   O     0.43988   0.20625   0.74999   0.00000  Uiso   1.00
O798   O     0.56012   0.12709   0.75000   0.00000  Uiso   1.00
O799   O     0.56012   0.20625   0.75000   0.00000  Uiso   1.00
O800   O     0.43988   0.12709   0.74999   0.00000  Uiso   1.00
O801   O     0.49999   0.20627   0.68513   0.00000  Uiso   1.00
O802   O     0.50001   0.12707   0.81487   0.00000  Uiso   1.00
O803   O     0.50001   0.20627   0.81487   0.00000  Uiso   1.00
O804   O     0.49999   0.12707   0.68513   0.00000  Uiso   1.00
F805   F     0.56179   0.12646   0.88244   0.00000  Uiso   1.00
F806   F     0.43866   0.20612   0.61745   0.00000  Uiso   1.00
C807   C     0.42805   0.20742   0.88048   0.00000  Uiso   1.00
C808   C     0.43139   0.26069   0.87498   0.00000  Uiso   1.00
C809   C     0.39633   0.27974   0.84611   0.00000  Uiso   1.00
H810   H     0.39739   0.26409   0.81238   0.00000  Uiso   1.00
H811   H     0.36615   0.27171   0.86137   0.00000  Uiso   1.00
H812   H     0.39941   0.31827   0.84296   0.00000  Uiso   1.00
H813   H     0.43055   0.27814   0.90789   0.00000  Uiso   1.00
H814   H     0.46111   0.26982   0.85923   0.00000  Uiso   1.00
H815   H     0.42544   0.19104   0.84717   0.00000  Uiso   1.00
H816   H     0.39868   0.19777   0.89660   0.00000  Uiso   1.00
C817   C     0.57384   0.12710   0.61871   0.00000  Uiso   1.00
C818   C     0.61037   0.16115   0.61702   0.00000  Uiso   1.00
C819   C     0.64998   0.13794   0.63353   0.00000  Uiso   1.00
H820   H     0.64580   0.12339   0.66735   0.00000  Uiso   1.00
H821   H     0.65892   0.10923   0.61072   0.00000  Uiso   1.00
H822   H     0.34188   0.16412   0.63464   0.00000  Uiso   1.00
H823   H     0.61536   0.17398   0.58270   0.00000  Uiso   1.00
H824   H     0.60357   0.19197   0.63823   0.00000  Uiso   1.00
H825   H     0.56746   0.12032   0.65411   0.00000  Uiso   1.00
H826   H     0.58217   0.09214   0.60550   0.00000  Uiso   1.00
F827   F     0.40429   0.22939   0.54652   0.00000  Uiso   1.00
F828   F     0.59692   0.10493   0.95333   0.00000  Uiso   1.00
F829   F     0.37521   0.09177   0.78676   0.00000  Uiso   1.00
F830   F     0.62490   0.24226   0.71501   0.00000  Uiso   1.00
F831   F     0.62575   0.09178   0.78695   0.00000  Uiso   1.00
F832   F     0.37421   0.24201   0.71441   0.00000  Uiso   1.00
F833   F     0.44999   0.04804   0.69282   0.00000  Uiso   1.00
F834   F     0.54984   0.28529   0.80734   0.00000  Uiso   1.00
F835   F     0.54950   0.04789   0.80768   0.00000  Uiso   1.00
F836   F     0.45036   0.28543   0.69247   0.00000  Uiso   1.00
C837   C     0.75406   0.16669   0.75002   0.00000  Uiso   1.00
C838   C     0.91261   0.16669   0.75031   0.00000  Uiso   1.00
C839   C     0.76916   0.20881   0.52456   0.00000  Uiso   1.00
C840   C     0.89868   0.12547   0.97526   0.00000  Uiso   1.00
C841   C     0.68821   0.12865   0.76840   0.00000  Uiso   1.00
C842   C     0.97850   0.20526   0.73323   0.00000  Uiso   1.00
C843   C     0.97893   0.12867   0.76854   0.00000  Uiso   1.00
C844   C     0.68774   0.20516   0.73295   0.00000  Uiso   1.00
C845   C     0.95721   0.16687   0.75077   0.00000  Uiso   1.00
C846   C     0.70946   0.16681   0.75042   0.00000  Uiso   1.00
C847   C     0.80845   0.02480   0.72145   0.00000  Uiso   1.00
C848   C     0.85813   0.30853   0.77864   0.00000  Uiso   1.00
C849   C     0.85808   0.02474   0.77868   0.00000  Uiso   1.00
C850   C     0.80851   0.30859   0.72140   0.00000  Uiso   1.00
C851   C     0.83480   0.16664   0.66458   0.00000  Uiso   1.00
C852   C     0.83262   0.16669   0.83542   0.00000  Uiso   1.00
C853   C     0.86402   0.14591   0.90619   0.00000  Uiso   1.00
C854   C     0.80341   0.18733   0.59373   0.00000  Uiso   1.00
C855   C     0.83117   0.16675   0.88357   0.00000  Uiso   1.00
C856   C     0.83636   0.16658   0.61640   0.00000  Uiso   1.00
C857   C     0.79813   0.18770   0.90647   0.00000  Uiso   1.00
C858   C     0.86983   0.14652   0.59338   0.00000  Uiso   1.00
C859   C     0.79943   0.18818   0.95356   0.00000  Uiso   1.00
C860   C     0.86852   0.14634   0.54626   0.00000  Uiso   1.00
C861   C     0.83317   0.16714   0.97643   0.00000  Uiso   1.00
C862   C     0.83465   0.16712   0.52343   0.00000  Uiso   1.00
C863   C     0.86543   0.14596   0.95247   0.00000  Uiso   1.00
C864   C     0.80226   0.18795   0.54741   0.00000  Uiso   1.00
C865   C     0.76791   0.20898   0.97852   0.00000  Uiso   1.00
C866   C     0.90015   0.12578   0.52125   0.00000  Uiso   1.00
Cu867  Cu    0.83333   0.21355   0.75000   0.00000  Uiso   1.00
Cu868  Cu    0.83333   0.11978   0.75000   0.00000  Uiso   1.00
H869   H     0.74175   0.22593   0.96311   0.00000  Uiso   1.00
H870   H     0.92673   0.10955   0.53655   0.00000  Uiso   1.00
N871   N     0.83333   0.28402   0.75000   0.00000  Uiso   1.00
N872   N     0.83333   0.04931   0.75000   0.00000  Uiso   1.00
O873   O     0.77321   0.20625   0.74999   0.00000  Uiso   1.00
O874   O     0.89345   0.12709   0.75000   0.00000  Uiso   1.00
O875   O     0.89345   0.20625   0.75000   0.00000  Uiso   1.00
O876   O     0.77321   0.12709   0.74999   0.00000  Uiso   1.00
O877   O     0.83332   0.20627   0.68513   0.00000  Uiso   1.00
O878   O     0.83334   0.12707   0.81487   0.00000  Uiso   1.00
O879   O     0.83334   0.20627   0.81487   0.00000  Uiso   1.00
O880   O     0.83332   0.12707   0.68513   0.00000  Uiso   1.00
F881   F     0.89512   0.12646   0.88244   0.00000  Uiso   1.00
F882   F     0.77199   0.20612   0.61745   0.00000  Uiso   1.00
C883   C     0.76139   0.20742   0.88048   0.00000  Uiso   1.00
C884   C     0.76473   0.26069   0.87498   0.00000  Uiso   1.00
C885   C     0.72967   0.27974   0.84611   0.00000  Uiso   1.00
H886   H     0.73073   0.26409   0.81238   0.00000  Uiso   1.00
H887   H     0.69949   0.27171   0.86137   0.00000  Uiso   1.00
H888   H     0.73274   0.31827   0.84296   0.00000  Uiso   1.00
H889   H     0.76388   0.27814   0.90789   0.00000  Uiso   1.00
H890   H     0.79444   0.26982   0.85923   0.00000  Uiso   1.00
H891   H     0.75878   0.19104   0.84717   0.00000  Uiso   1.00
H892   H     0.73201   0.19777   0.89660   0.00000  Uiso   1.00
C893   C     0.90717   0.12710   0.61871   0.00000  Uiso   1.00
C894   C     0.94370   0.16115   0.61702   0.00000  Uiso   1.00
C895   C     0.98332   0.13794   0.63353   0.00000  Uiso   1.00
H896   H     0.97913   0.12339   0.66735   0.00000  Uiso   1.00
H897   H     0.99225   0.10923   0.61072   0.00000  Uiso   1.00
H898   H     0.67522   0.16412   0.63464   0.00000  Uiso   1.00
H899   H     0.94870   0.17398   0.58270   0.00000  Uiso   1.00
H900   H     0.93690   0.19197   0.63823   0.00000  Uiso   1.00
H901   H     0.90080   0.12032   0.65411   0.00000  Uiso   1.00
H902   H     0.91550   0.09214   0.60550   0.00000  Uiso   1.00
F903   F     0.73762   0.22939   0.54652   0.00000  Uiso   1.00
F904   F     0.93026   0.10493   0.95333   0.00000  Uiso   1.00
F905   F     0.70854   0.09177   0.78676   0.00000  Uiso   1.00
F906   F     0.95824   0.24226   0.71501   0.00000  Uiso   1.00
F907   F     0.95908   0.09178   0.78695   0.00000  Uiso   1.00
F908   F     0.70754   0.24201   0.71441   0.00000  Uiso   1.00
F909   F     0.78332   0.04804   0.69282   0.00000  Uiso   1.00
F910   F     0.88317   0.28529   0.80734   0.00000  Uiso   1.00
F911   F     0.88284   0.04789   0.80768   0.00000  Uiso   1.00
F912   F     0.78369   0.28543   0.69247   0.00000  Uiso   1.00
C913   C     0.08740   0.50003   0.75002   0.00000  Uiso   1.00
C914   C     0.24594   0.50002   0.75031   0.00000  Uiso   1.00
C915   C     0.10249   0.54214   0.52456   0.00000  Uiso   1.00
C916   C     0.23202   0.45880   0.97526   0.00000  Uiso   1.00
C917   C     0.02154   0.46198   0.76840   0.00000  Uiso   1.00
C918   C     0.31184   0.53859   0.73323   0.00000  Uiso   1.00
C919   C     0.31227   0.46200   0.76854   0.00000  Uiso   1.00
C920   C     0.02108   0.53849   0.73295   0.00000  Uiso   1.00
C921   C     0.29055   0.50020   0.75077   0.00000  Uiso   1.00
C922   C     0.04280   0.50014   0.75042   0.00000  Uiso   1.00
C923   C     0.14179   0.35814   0.72145   0.00000  Uiso   1.00
C924   C     0.19146   0.64186   0.77864   0.00000  Uiso   1.00
C925   C     0.19141   0.35807   0.77868   0.00000  Uiso   1.00
C926   C     0.14184   0.64192   0.72140   0.00000  Uiso   1.00
C927   C     0.16813   0.49998   0.66458   0.00000  Uiso   1.00
C928   C     0.16595   0.50003   0.83542   0.00000  Uiso   1.00
C929   C     0.19736   0.47924   0.90619   0.00000  Uiso   1.00
C930   C     0.13674   0.52066   0.59373   0.00000  Uiso   1.00
C931   C     0.16450   0.50008   0.88357   0.00000  Uiso   1.00
C932   C     0.16970   0.49991   0.61640   0.00000  Uiso   1.00
C933   C     0.13146   0.52103   0.90647   0.00000  Uiso   1.00
C934   C     0.20316   0.47985   0.59338   0.00000  Uiso   1.00
C935   C     0.13276   0.52151   0.95356   0.00000  Uiso   1.00
C936   C     0.20185   0.47967   0.54626   0.00000  Uiso   1.00
C937   C     0.16651   0.50047   0.97643   0.00000  Uiso   1.00
C938   C     0.16798   0.50045   0.52343   0.00000  Uiso   1.00
C939   C     0.19876   0.47930   0.95247   0.00000  Uiso   1.00
C940   C     0.13559   0.52128   0.54741   0.00000  Uiso   1.00
C941   C     0.10124   0.54231   0.97852   0.00000  Uiso   1.00
C942   C     0.23349   0.45911   0.52125   0.00000  Uiso   1.00
Cu943  Cu    0.16667   0.54689   0.75000   0.00000  Uiso   1.00
Cu944  Cu    0.16667   0.45311   0.75000   0.00000  Uiso   1.00
H945   H     0.07508   0.55927   0.96311   0.00000  Uiso   1.00
H946   H     0.26006   0.44288   0.53655   0.00000  Uiso   1.00
N947   N     0.16667   0.61736   0.75000   0.00000  Uiso   1.00
N948   N     0.16667   0.38264   0.75000   0.00000  Uiso   1.00
O949   O     0.10655   0.53958   0.74999   0.00000  Uiso   1.00
O950   O     0.22679   0.46042   0.75000   0.00000  Uiso   1.00
O951   O     0.22679   0.53958   0.75000   0.00000  Uiso   1.00
O952   O     0.10655   0.46042   0.74999   0.00000  Uiso   1.00
O953   O     0.16666   0.53960   0.68513   0.00000  Uiso   1.00
O954   O     0.16668   0.46040   0.81487   0.00000  Uiso   1.00
O955   O     0.16668   0.53960   0.81487   0.00000  Uiso   1.00
O956   O     0.16666   0.46040   0.68513   0.00000  Uiso   1.00
F957   F     0.22845   0.45980   0.88244   0.00000  Uiso   1.00
F958   F     0.10533   0.53945   0.61745   0.00000  Uiso   1.00
C959   C     0.09472   0.54076   0.88048   0.00000  Uiso   1.00
C960   C     0.09806   0.59402   0.87498   0.00000  Uiso   1.00
C961   C     0.06300   0.61307   0.84611   0.00000  Uiso   1.00
H962   H     0.06406   0.59743   0.81238   0.00000  Uiso   1.00
H963   H     0.03282   0.60504   0.86137   0.00000  Uiso   1.00
H964   H     0.06607   0.65160   0.84296   0.00000  Uiso   1.00
H965   H     0.09721   0.61148   0.90789   0.00000  Uiso   1.00
H966   H     0.12777   0.60316   0.85923   0.00000  Uiso   1.00
H967   H     0.09211   0.52437   0.84717   0.00000  Uiso   1.00
H968   H     0.06534   0.53110   0.89660   0.00000  Uiso   1.00
C969   C     0.24051   0.46043   0.61871   0.00000  Uiso   1.00
C970   C     0.27703   0.49448   0.61702   0.00000  Uiso   1.00
C971   C     0.31665   0.47127   0.63353   0.00000  Uiso   1.00
H972   H     0.31246   0.45672   0.66735   0.00000  Uiso   1.00
H973   H     0.32559   0.44256   0.61072   0.00000  Uiso   1.00
H974   H     0.00855   0.49745   0.63464   0.00000  Uiso   1.00
H975   H     0.28203   0.50732   0.58270   0.00000  Uiso   1.00
H976   H     0.27023   0.52530   0.63823   0.00000  Uiso   1.00
H977   H     0.23413   0.45366   0.65411   0.00000  Uiso   1.00
H978   H     0.24884   0.42548   0.60550   0.00000  Uiso   1.00
F979   F     0.07095   0.56273   0.54652   0.00000  Uiso   1.00
F980   F     0.26359   0.43826   0.95333   0.00000  Uiso   1.00
F981   F     0.04188   0.42511   0.78676   0.00000  Uiso   1.00
F982   F     0.29157   0.57559   0.71501   0.00000  Uiso   1.00
F983   F     0.29242   0.42511   0.78695   0.00000  Uiso   1.00
F984   F     0.04087   0.57534   0.71441   0.00000  Uiso   1.00
F985   F     0.11666   0.38137   0.69282   0.00000  Uiso   1.00
F986   F     0.21651   0.61862   0.80734   0.00000  Uiso   1.00
F987   F     0.21617   0.38123   0.80768   0.00000  Uiso   1.00
F988   F     0.11702   0.61876   0.69247   0.00000  Uiso   1.00
C989   C     0.42073   0.50003   0.75002   0.00000  Uiso   1.00
C990   C     0.57927   0.50002   0.75031   0.00000  Uiso   1.00
C991   C     0.43583   0.54214   0.52456   0.00000  Uiso   1.00
C992   C     0.56535   0.45880   0.97526   0.00000  Uiso   1.00
C993   C     0.35487   0.46198   0.76840   0.00000  Uiso   1.00
C994   C     0.64517   0.53859   0.73323   0.00000  Uiso   1.00
C995   C     0.64560   0.46200   0.76854   0.00000  Uiso   1.00
C996   C     0.35441   0.53849   0.73295   0.00000  Uiso   1.00
C997   C     0.62388   0.50020   0.75077   0.00000  Uiso   1.00
C998   C     0.37613   0.50014   0.75042   0.00000  Uiso   1.00
C999   C     0.47512   0.35814   0.72145   0.00000  Uiso   1.00
C1000  C     0.52480   0.64186   0.77864   0.00000  Uiso   1.00
C1001  C     0.52475   0.35807   0.77868   0.00000  Uiso   1.00
C1002  C     0.47517   0.64192   0.72140   0.00000  Uiso   1.00
C1003  C     0.50147   0.49998   0.66458   0.00000  Uiso   1.00
C1004  C     0.49928   0.50003   0.83542   0.00000  Uiso   1.00
C1005  C     0.53069   0.47924   0.90619   0.00000  Uiso   1.00
C1006  C     0.47008   0.52066   0.59373   0.00000  Uiso   1.00
C1007  C     0.49783   0.50008   0.88357   0.00000  Uiso   1.00
C1008  C     0.50303   0.49991   0.61640   0.00000  Uiso   1.00
C1009  C     0.46480   0.52103   0.90647   0.00000  Uiso   1.00
C1010  C     0.53650   0.47985   0.59338   0.00000  Uiso   1.00
C1011  C     0.46610   0.52151   0.95356   0.00000  Uiso   1.00
C1012  C     0.53518   0.47967   0.54626   0.00000  Uiso   1.00
C1013  C     0.49984   0.50047   0.97643   0.00000  Uiso   1.00
C1014  C     0.50132   0.50045   0.52343   0.00000  Uiso   1.00
C1015  C     0.53210   0.47930   0.95247   0.00000  Uiso   1.00
C1016  C     0.46893   0.52128   0.54741   0.00000  Uiso   1.00
C1017  C     0.43458   0.54231   0.97852   0.00000  Uiso   1.00
C1018  C     0.56682   0.45911   0.52125   0.00000  Uiso   1.00
Cu1019 Cu    0.50000   0.54689   0.75000   0.00000  Uiso   1.00
Cu1020 Cu    0.50000   0.45311   0.75000   0.00000  Uiso   1.00
H1021  H     0.40842   0.55927   0.96311   0.00000  Uiso   1.00
H1022  H     0.59340   0.44288   0.53655   0.00000  Uiso   1.00
N1023  N     0.50000   0.61736   0.75000   0.00000  Uiso   1.00
N1024  N     0.50000   0.38264   0.75000   0.00000  Uiso   1.00
O1025  O     0.43988   0.53958   0.74999   0.00000  Uiso   1.00
O1026  O     0.56012   0.46042   0.75000   0.00000  Uiso   1.00
O1027  O     0.56012   0.53958   0.75000   0.00000  Uiso   1.00
O1028  O     0.43988   0.46042   0.74999   0.00000  Uiso   1.00
O1029  O     0.49999   0.53960   0.68513   0.00000  Uiso   1.00
O1030  O     0.50001   0.46040   0.81487   0.00000  Uiso   1.00
O1031  O     0.50001   0.53960   0.81487   0.00000  Uiso   1.00
O1032  O     0.49999   0.46040   0.68513   0.00000  Uiso   1.00
F1033  F     0.56179   0.45980   0.88244   0.00000  Uiso   1.00
F1034  F     0.43866   0.53945   0.61745   0.00000  Uiso   1.00
C1035  C     0.42805   0.54076   0.88048   0.00000  Uiso   1.00
C1036  C     0.43139   0.59402   0.87498   0.00000  Uiso   1.00
C1037  C     0.39633   0.61307   0.84611   0.00000  Uiso   1.00
H1038  H     0.39739   0.59743   0.81238   0.00000  Uiso   1.00
H1039  H     0.36615   0.60504   0.86137   0.00000  Uiso   1.00
H1040  H     0.39941   0.65160   0.84296   0.00000  Uiso   1.00
H1041  H     0.43055   0.61148   0.90789   0.00000  Uiso   1.00
H1042  H     0.46111   0.60316   0.85923   0.00000  Uiso   1.00
H1043  H     0.42544   0.52437   0.84717   0.00000  Uiso   1.00
H1044  H     0.39868   0.53110   0.89660   0.00000  Uiso   1.00
C1045  C     0.57384   0.46043   0.61871   0.00000  Uiso   1.00
C1046  C     0.61037   0.49448   0.61702   0.00000  Uiso   1.00
C1047  C     0.64998   0.47127   0.63353   0.00000  Uiso   1.00
H1048  H     0.64580   0.45672   0.66735   0.00000  Uiso   1.00
H1049  H     0.65892   0.44256   0.61072   0.00000  Uiso   1.00
H1050  H     0.34188   0.49745   0.63464   0.00000  Uiso   1.00
H1051  H     0.61536   0.50732   0.58270   0.00000  Uiso   1.00
H1052  H     0.60357   0.52530   0.63823   0.00000  Uiso   1.00
H1053  H     0.56746   0.45366   0.65411   0.00000  Uiso   1.00
H1054  H     0.58217   0.42548   0.60550   0.00000  Uiso   1.00
F1055  F     0.40429   0.56273   0.54652   0.00000  Uiso   1.00
F1056  F     0.59692   0.43826   0.95333   0.00000  Uiso   1.00
F1057  F     0.37521   0.42511   0.78676   0.00000  Uiso   1.00
F1058  F     0.62490   0.57559   0.71501   0.00000  Uiso   1.00
F1059  F     0.62575   0.42511   0.78695   0.00000  Uiso   1.00
F1060  F     0.37421   0.57534   0.71441   0.00000  Uiso   1.00
F1061  F     0.44999   0.38137   0.69282   0.00000  Uiso   1.00
F1062  F     0.54984   0.61862   0.80734   0.00000  Uiso   1.00
F1063  F     0.54950   0.38123   0.80768   0.00000  Uiso   1.00
F1064  F     0.45036   0.61876   0.69247   0.00000  Uiso   1.00
C1065  C     0.75406   0.50003   0.75002   0.00000  Uiso   1.00
C1066  C     0.91261   0.50002   0.75031   0.00000  Uiso   1.00
C1067  C     0.76916   0.54214   0.52456   0.00000  Uiso   1.00
C1068  C     0.89868   0.45880   0.97526   0.00000  Uiso   1.00
C1069  C     0.68821   0.46198   0.76840   0.00000  Uiso   1.00
C1070  C     0.97850   0.53859   0.73323   0.00000  Uiso   1.00
C1071  C     0.97893   0.46200   0.76854   0.00000  Uiso   1.00
C1072  C     0.68774   0.53849   0.73295   0.00000  Uiso   1.00
C1073  C     0.95721   0.50020   0.75077   0.00000  Uiso   1.00
C1074  C     0.70946   0.50014   0.75042   0.00000  Uiso   1.00
C1075  C     0.80845   0.35814   0.72145   0.00000  Uiso   1.00
C1076  C     0.85813   0.64186   0.77864   0.00000  Uiso   1.00
C1077  C     0.85808   0.35807   0.77868   0.00000  Uiso   1.00
C1078  C     0.80851   0.64192   0.72140   0.00000  Uiso   1.00
C1079  C     0.83480   0.49998   0.66458   0.00000  Uiso   1.00
C1080  C     0.83262   0.50003   0.83542   0.00000  Uiso   1.00
C1081  C     0.86402   0.47924   0.90619   0.00000  Uiso   1.00
C1082  C     0.80341   0.52066   0.59373   0.00000  Uiso   1.00
C1083  C     0.83117   0.50008   0.88357   0.00000  Uiso   1.00
C1084  C     0.83636   0.49991   0.61640   0.00000  Uiso   1.00
C1085  C     0.79813   0.52103   0.90647   0.00000  Uiso   1.00
C1086  C     0.86983   0.47985   0.59338   0.00000  Uiso   1.00
C1087  C     0.79943   0.52151   0.95356   0.00000  Uiso   1.00
C1088  C     0.86852   0.47967   0.54626   0.00000  Uiso   1.00
C1089  C     0.83317   0.50047   0.97643   0.00000  Uiso   1.00
C1090  C     0.83465   0.50045   0.52343   0.00000  Uiso   1.00
C1091  C     0.86543   0.47930   0.95247   0.00000  Uiso   1.00
C1092  C     0.80226   0.52128   0.54741   0.00000  Uiso   1.00
C1093  C     0.76791   0.54231   0.97852   0.00000  Uiso   1.00
C1094  C     0.90015   0.45911   0.52125   0.00000  Uiso   1.00
Cu1095 Cu    0.83333   0.54689   0.75000   0.00000  Uiso   1.00
Cu1096 Cu    0.83333   0.45311   0.75000   0.00000  Uiso   1.00
H1097  H     0.74175   0.55927   0.96311   0.00000  Uiso   1.00
H1098  H     0.92673   0.44288   0.53655   0.00000  Uiso   1.00
N1099  N     0.83333   0.61736   0.75000   0.00000  Uiso   1.00
N1100  N     0.83333   0.38264   0.75000   0.00000  Uiso   1.00
O1101  O     0.77321   0.53958   0.74999   0.00000  Uiso   1.00
O1102  O     0.89345   0.46042   0.75000   0.00000  Uiso   1.00
O1103  O     0.89345   0.53958   0.75000   0.00000  Uiso   1.00
O1104  O     0.77321   0.46042   0.74999   0.00000  Uiso   1.00
O1105  O     0.83332   0.53960   0.68513   0.00000  Uiso   1.00
O1106  O     0.83334   0.46040   0.81487   0.00000  Uiso   1.00
O1107  O     0.83334   0.53960   0.81487   0.00000  Uiso   1.00
O1108  O     0.83332   0.46040   0.68513   0.00000  Uiso   1.00
F1109  F     0.89512   0.45980   0.88244   0.00000  Uiso   1.00
F1110  F     0.77199   0.53945   0.61745   0.00000  Uiso   1.00
C1111  C     0.76139   0.54076   0.88048   0.00000  Uiso   1.00
C1112  C     0.76473   0.59402   0.87498   0.00000  Uiso   1.00
C1113  C     0.72967   0.61307   0.84611   0.00000  Uiso   1.00
H1114  H     0.73073   0.59743   0.81238   0.00000  Uiso   1.00
H1115  H     0.69949   0.60504   0.86137   0.00000  Uiso   1.00
H1116  H     0.73274   0.65160   0.84296   0.00000  Uiso   1.00
H1117  H     0.76388   0.61148   0.90789   0.00000  Uiso   1.00
H1118  H     0.79444   0.60316   0.85923   0.00000  Uiso   1.00
H1119  H     0.75878   0.52437   0.84717   0.00000  Uiso   1.00
H1120  H     0.73201   0.53110   0.89660   0.00000  Uiso   1.00
C1121  C     0.90717   0.46043   0.61871   0.00000  Uiso   1.00
C1122  C     0.94370   0.49448   0.61702   0.00000  Uiso   1.00
C1123  C     0.98332   0.47127   0.63353   0.00000  Uiso   1.00
H1124  H     0.97913   0.45672   0.66735   0.00000  Uiso   1.00
H1125  H     0.99225   0.44256   0.61072   0.00000  Uiso   1.00
H1126  H     0.67522   0.49745   0.63464   0.00000  Uiso   1.00
H1127  H     0.94870   0.50732   0.58270   0.00000  Uiso   1.00
H1128  H     0.93690   0.52530   0.63823   0.00000  Uiso   1.00
H1129  H     0.90080   0.45366   0.65411   0.00000  Uiso   1.00
H1130  H     0.91550   0.42548   0.60550   0.00000  Uiso   1.00
F1131  F     0.73762   0.56273   0.54652   0.00000  Uiso   1.00
F1132  F     0.93026   0.43826   0.95333   0.00000  Uiso   1.00
F1133  F     0.70854   0.42511   0.78676   0.00000  Uiso   1.00
F1134  F     0.95824   0.57559   0.71501   0.00000  Uiso   1.00
F1135  F     0.95908   0.42511   0.78695   0.00000  Uiso   1.00
F1136  F     0.70754   0.57534   0.71441   0.00000  Uiso   1.00
F1137  F     0.78332   0.38137   0.69282   0.00000  Uiso   1.00
F1138  F     0.88317   0.61862   0.80734   0.00000  Uiso   1.00
F1139  F     0.88284   0.38123   0.80768   0.00000  Uiso   1.00
F1140  F     0.78369   0.61876   0.69247   0.00000  Uiso   1.00
C1141  C     0.08740   0.83336   0.75002   0.00000  Uiso   1.00
C1142  C     0.24594   0.83335   0.75031   0.00000  Uiso   1.00
C1143  C     0.10249   0.87548   0.52456   0.00000  Uiso   1.00
C1144  C     0.23202   0.79213   0.97526   0.00000  Uiso   1.00
C1145  C     0.02154   0.79531   0.76840   0.00000  Uiso   1.00
C1146  C     0.31184   0.87192   0.73323   0.00000  Uiso   1.00
C1147  C     0.31227   0.79533   0.76854   0.00000  Uiso   1.00
C1148  C     0.02108   0.87183   0.73295   0.00000  Uiso   1.00
C1149  C     0.29055   0.83354   0.75077   0.00000  Uiso   1.00
C1150  C     0.04280   0.83347   0.75042   0.00000  Uiso   1.00
C1151  C     0.14179   0.69147   0.72145   0.00000  Uiso   1.00
C1152  C     0.19146   0.97519   0.77864   0.00000  Uiso   1.00
C1153  C     0.19141   0.69141   0.77868   0.00000  Uiso   1.00
C1154  C     0.14184   0.97525   0.72140   0.00000  Uiso   1.00
C1155  C     0.16813   0.83331   0.66458   0.00000  Uiso   1.00
C1156  C     0.16595   0.83336   0.83542   0.00000  Uiso   1.00
C1157  C     0.19736   0.81257   0.90619   0.00000  Uiso   1.00
C1158  C     0.13674   0.85399   0.59373   0.00000  Uiso   1.00
C1159  C     0.16450   0.83341   0.88357   0.00000  Uiso   1.00
C1160  C     0.16970   0.83324   0.61640   0.00000  Uiso   1.00
C1161  C     0.13146   0.85437   0.90647   0.00000  Uiso   1.00
C1162  C     0.20316   0.81319   0.59338   0.00000  Uiso   1.00
C1163  C     0.13276   0.85485   0.95356   0.00000  Uiso   1.00
C1164  C     0.20185   0.81300   0.54626   0.00000  Uiso   1.00
C1165  C     0.16651   0.83380   0.97643   0.00000  Uiso   1.00
C1166  C     0.16798   0.83379   0.52343   0.00000  Uiso   1.00
C1167  C     0.19876   0.81263   0.95247   0.00000  Uiso   1.00
C1168  C     0.13559   0.85462   0.54741   0.00000  Uiso   1.00
C1169  C     0.10124   0.87564   0.97852   0.00000  Uiso   1.00
C1170  C     0.23349   0.79244   0.52125   0.00000  Uiso   1.00
Cu1171 Cu    0.16667   0.88022   0.75000   0.00000  Uiso   1.00
Cu1172 Cu    0.16667   0.78645   0.75000   0.00000  Uiso   1.00
H1173  H     0.07508   0.89260   0.96311   0.00000  Uiso   1.00
H1174  H     0.26006   0.77622   0.53655   0.00000  Uiso   1.00
N1175  N     0.16667   0.95069   0.75000   0.00000  Uiso   1.00
N1176  N     0.16667   0.71598   0.75000   0.00000  Uiso   1.00
O1177  O     0.10655   0.87291   0.74999   0.00000  Uiso   1.00
O1178  O     0.22679   0.79375   0.75000   0.00000  Uiso   1.00
O1179  O     0.22679   0.87291   0.75000   0.00000  Uiso   1.00
O1180  O     0.10655   0.79375   0.74999   0.00000  Uiso   1.00
O1181  O     0.16666   0.87293   0.68513   0.00000  Uiso   1.00
O1182  O     0.16668   0.79373   0.81487   0.00000  Uiso   1.00
O1183  O     0.16668   0.87293   0.81487   0.00000  Uiso   1.00
O1184  O     0.16666   0.79373   0.68513   0.00000  Uiso   1.00
F1185  F     0.22845   0.79313   0.88244   0.00000  Uiso   1.00
F1186  F     0.10533   0.87279   0.61745   0.00000  Uiso   1.00
C1187  C     0.09472   0.87409   0.88048   0.00000  Uiso   1.00
C1188  C     0.09806   0.92736   0.87498   0.00000  Uiso   1.00
C1189  C     0.06300   0.94640   0.84611   0.00000  Uiso   1.00
H1190  H     0.06406   0.93076   0.81238   0.00000  Uiso   1.00
H1191  H     0.03282   0.93838   0.86137   0.00000  Uiso   1.00
H1192  H     0.06607   0.98493   0.84296   0.00000  Uiso   1.00
H1193  H     0.09721   0.94481   0.90789   0.00000  Uiso   1.00
H1194  H     0.12777   0.93649   0.85923   0.00000  Uiso   1.00
H1195  H     0.09211   0.85770   0.84717   0.00000  Uiso   1.00
H1196  H     0.06534   0.86444   0.89660   0.00000  Uiso   1.00
C1197  C     0.24051   0.79377   0.61871   0.00000  Uiso   1.00
C1198  C     0.27703   0.82781   0.61702   0.00000  Uiso   1.00
C1199  C     0.31665   0.80461   0.63353   0.00000  Uiso   1.00
H1200  H     0.31246   0.79006   0.66735   0.00000  Uiso   1.00
H1201  H     0.32559   0.77590   0.61072   0.00000  Uiso   1.00
H1202  H     0.00855   0.83078   0.63464   0.00000  Uiso   1.00
H1203  H     0.28203   0.84065   0.58270   0.00000  Uiso   1.00
H1204  H     0.27023   0.85863   0.63823   0.00000  Uiso   1.00
H1205  H     0.23413   0.78699   0.65411   0.00000  Uiso   1.00
H1206  H     0.24884   0.75881   0.60550   0.00000  Uiso   1.00
F1207  F     0.07095   0.89606   0.54652   0.00000  Uiso   1.00
F1208  F     0.26359   0.77159   0.95333   0.00000  Uiso   1.00
F1209  F     0.04188   0.75844   0.78676   0.00000  Uiso   1.00
F1210  F     0.29157   0.90892   0.71501   0.00000  Uiso   1.00
F1211  F     0.29242   0.75844   0.78695   0.00000  Uiso   1.00
F1212  F     0.04087   0.90868   0.71441   0.00000  Uiso   1.00
F1213  F     0.11666   0.71470   0.69282   0.00000  Uiso   1.00
F1214  F     0.21651   0.95195   0.80734   0.00000  Uiso   1.00
F1215  F     0.21617   0.71456   0.80768   0.00000  Uiso   1.00
F1216  F     0.11702   0.95209   0.69247   0.00000  Uiso   1.00
C1217  C     0.42073   0.83336   0.75002   0.00000  Uiso   1.00
C1218  C     0.57927   0.83335   0.75031   0.00000  Uiso   1.00
C1219  C     0.43583   0.87548   0.52456   0.00000  Uiso   1.00
C1220  C     0.56535   0.79213   0.97526   0.00000  Uiso   1.00
C1221  C     0.35487   0.79531   0.76840   0.00000  Uiso   1.00
C1222  C     0.64517   0.87192   0.73323   0.00000  Uiso   1.00
C1223  C     0.64560   0.79533   0.76854   0.00000  Uiso   1.00
C1224  C     0.35441   0.87183   0.73295   0.00000  Uiso   1.00
C1225  C     0.62388   0.83354   0.75077   0.00000  Uiso   1.00
C1226  C     0.37613   0.83347   0.75042   0.00000  Uiso   1.00
C1227  C     0.47512   0.69147   0.72145   0.00000  Uiso   1.00
C1228  C     0.52480   0.97519   0.77864   0.00000  Uiso   1.00
C1229  C     0.52475   0.69141   0.77868   0.00000  Uiso   1.00
C1230  C     0.47517   0.97525   0.72140   0.00000  Uiso   1.00
C1231  C     0.50147   0.83331   0.66458   0.00000  Uiso   1.00
C1232  C     0.49928   0.83336   0.83542   0.00000  Uiso   1.00
C1233  C     0.53069   0.81257   0.90619   0.00000  Uiso   1.00
C1234  C     0.47008   0.85399   0.59373   0.00000  Uiso   1.00
C1235  C     0.49783   0.83341   0.88357   0.00000  Uiso   1.00
C1236  C     0.50303   0.83324   0.61640   0.00000  Uiso   1.00
C1237  C     0.46480   0.85437   0.90647   0.00000  Uiso   1.00
C1238  C     0.53650   0.81319   0.59338   0.00000  Uiso   1.00
C1239  C     0.46610   0.85485   0.95356   0.00000  Uiso   1.00
C1240  C     0.53518   0.81300   0.54626   0.00000  Uiso   1.00
C1241  C     0.49984   0.83380   0.97643   0.00000  Uiso   1.00
C1242  C     0.50132   0.83379   0.52343   0.00000  Uiso   1.00
C1243  C     0.53210   0.81263   0.95247   0.00000  Uiso   1.00
C1244  C     0.46893   0.85462   0.54741   0.00000  Uiso   1.00
C1245  C     0.43458   0.87564   0.97852   0.00000  Uiso   1.00
C1246  C     0.56682   0.79244   0.52125   0.00000  Uiso   1.00
Cu1247 Cu    0.50000   0.88022   0.75000   0.00000  Uiso   1.00
Cu1248 Cu    0.50000   0.78645   0.75000   0.00000  Uiso   1.00
H1249  H     0.40842   0.89260   0.96311   0.00000  Uiso   1.00
H1250  H     0.59340   0.77622   0.53655   0.00000  Uiso   1.00
N1251  N     0.50000   0.95069   0.75000   0.00000  Uiso   1.00
N1252  N     0.50000   0.71598   0.75000   0.00000  Uiso   1.00
O1253  O     0.43988   0.87291   0.74999   0.00000  Uiso   1.00
O1254  O     0.56012   0.79375   0.75000   0.00000  Uiso   1.00
O1255  O     0.56012   0.87291   0.75000   0.00000  Uiso   1.00
O1256  O     0.43988   0.79375   0.74999   0.00000  Uiso   1.00
O1257  O     0.49999   0.87293   0.68513   0.00000  Uiso   1.00
O1258  O     0.50001   0.79373   0.81487   0.00000  Uiso   1.00
O1259  O     0.50001   0.87293   0.81487   0.00000  Uiso   1.00
O1260  O     0.49999   0.79373   0.68513   0.00000  Uiso   1.00
F1261  F     0.56179   0.79313   0.88244   0.00000  Uiso   1.00
F1262  F     0.43866   0.87279   0.61745   0.00000  Uiso   1.00
C1263  C     0.42805   0.87409   0.88048   0.00000  Uiso   1.00
C1264  C     0.43139   0.92736   0.87498   0.00000  Uiso   1.00
C1265  C     0.39633   0.94640   0.84611   0.00000  Uiso   1.00
H1266  H     0.39739   0.93076   0.81238   0.00000  Uiso   1.00
H1267  H     0.36615   0.93838   0.86137   0.00000  Uiso   1.00
H1268  H     0.39941   0.98493   0.84296   0.00000  Uiso   1.00
H1269  H     0.43055   0.94481   0.90789   0.00000  Uiso   1.00
H1270  H     0.46111   0.93649   0.85923   0.00000  Uiso   1.00
H1271  H     0.42544   0.85770   0.84717   0.00000  Uiso   1.00
H1272  H     0.39868   0.86444   0.89660   0.00000  Uiso   1.00
C1273  C     0.57384   0.79377   0.61871   0.00000  Uiso   1.00
C1274  C     0.61037   0.82781   0.61702   0.00000  Uiso   1.00
C1275  C     0.64998   0.80461   0.63353   0.00000  Uiso   1.00
H1276  H     0.64580   0.79006   0.66735   0.00000  Uiso   1.00
H1277  H     0.65892   0.77590   0.61072   0.00000  Uiso   1.00
H1278  H     0.34188   0.83078   0.63464   0.00000  Uiso   1.00
H1279  H     0.61536   0.84065   0.58270   0.00000  Uiso   1.00
H1280  H     0.60357   0.85863   0.63823   0.00000  Uiso   1.00
H1281  H     0.56746   0.78699   0.65411   0.00000  Uiso   1.00
H1282  H     0.58217   0.75881   0.60550   0.00000  Uiso   1.00
F1283  F     0.40429   0.89606   0.54652   0.00000  Uiso   1.00
F1284  F     0.59692   0.77159   0.95333   0.00000  Uiso   1.00
F1285  F     0.37521   0.75844   0.78676   0.00000  Uiso   1.00
F1286  F     0.62490   0.90892   0.71501   0.00000  Uiso   1.00
F1287  F     0.62575   0.75844   0.78695   0.00000  Uiso   1.00
F1288  F     0.37421   0.90868   0.71441   0.00000  Uiso   1.00
F1289  F     0.44999   0.71470   0.69282   0.00000  Uiso   1.00
F1290  F     0.54984   0.95195   0.80734   0.00000  Uiso   1.00
F1291  F     0.54950   0.71456   0.80768   0.00000  Uiso   1.00
F1292  F     0.45036   0.95209   0.69247   0.00000  Uiso   1.00
C1293  C     0.75406   0.83336   0.75002   0.00000  Uiso   1.00
C1294  C     0.91261   0.83335   0.75031   0.00000  Uiso   1.00
C1295  C     0.76916   0.87548   0.52456   0.00000  Uiso   1.00
C1296  C     0.89868   0.79213   0.97526   0.00000  Uiso   1.00
C1297  C     0.68821   0.79531   0.76840   0.00000  Uiso   1.00
C1298  C     0.97850   0.87192   0.73323   0.00000  Uiso   1.00
C1299  C     0.97893   0.79533   0.76854   0.00000  Uiso   1.00
C1300  C     0.68774   0.87183   0.73295   0.00000  Uiso   1.00
C1301  C     0.95721   0.83354   0.75077   0.00000  Uiso   1.00
C1302  C     0.70946   0.83347   0.75042   0.00000  Uiso   1.00
C1303  C     0.80845   0.69147   0.72145   0.00000  Uiso   1.00
C1304  C     0.85813   0.97519   0.77864   0.00000  Uiso   1.00
C1305  C     0.85808   0.69141   0.77868   0.00000  Uiso   1.00
C1306  C     0.80851   0.97525   0.72140   0.00000  Uiso   1.00
C1307  C     0.83480   0.83331   0.66458   0.00000  Uiso   1.00
C1308  C     0.83262   0.83336   0.83542   0.00000  Uiso   1.00
C1309  C     0.86402   0.81257   0.90619   0.00000  Uiso   1.00
C1310  C     0.80341   0.85399   0.59373   0.00000  Uiso   1.00
C1311  C     0.83117   0.83341   0.88357   0.00000  Uiso   1.00
C1312  C     0.83636   0.83324   0.61640   0.00000  Uiso   1.00
C1313  C     0.79813   0.85437   0.90647   0.00000  Uiso   1.00
C1314  C     0.86983   0.81319   0.59338   0.00000  Uiso   1.00
C1315  C     0.79943   0.85485   0.95356   0.00000  Uiso   1.00
C1316  C     0.86852   0.81300   0.54626   0.00000  Uiso   1.00
C1317  C     0.83317   0.83380   0.97643   0.00000  Uiso   1.00
C1318  C     0.83465   0.83379   0.52343   0.00000  Uiso   1.00
C1319  C     0.86543   0.81263   0.95247   0.00000  Uiso   1.00
C1320  C     0.80226   0.85462   0.54741   0.00000  Uiso   1.00
C1321  C     0.76791   0.87564   0.97852   0.00000  Uiso   1.00
C1322  C     0.90015   0.79244   0.52125   0.00000  Uiso   1.00
Cu1323 Cu    0.83333   0.88022   0.75000   0.00000  Uiso   1.00
Cu1324 Cu    0.83333   0.78645   0.75000   0.00000  Uiso   1.00
H1325  H     0.74175   0.89260   0.96311   0.00000  Uiso   1.00
H1326  H     0.92673   0.77622   0.53655   0.00000  Uiso   1.00
N1327  N     0.83333   0.95069   0.75000   0.00000  Uiso   1.00
N1328  N     0.83333   0.71598   0.75000   0.00000  Uiso   1.00
O1329  O     0.77321   0.87291   0.74999   0.00000  Uiso   1.00
O1330  O     0.89345   0.79375   0.75000   0.00000  Uiso   1.00
O1331  O     0.89345   0.87291   0.75000   0.00000  Uiso   1.00
O1332  O     0.77321   0.79375   0.74999   0.00000  Uiso   1.00
O1333  O     0.83332   0.87293   0.68513   0.00000  Uiso   1.00
O1334  O     0.83334   0.79373   0.81487   0.00000  Uiso   1.00
O1335  O     0.83334   0.87293   0.81487   0.00000  Uiso   1.00
O1336  O     0.83332   0.79373   0.68513   0.00000  Uiso   1.00
F1337  F     0.89512   0.79313   0.88244   0.00000  Uiso   1.00
F1338  F     0.77199   0.87279   0.61745   0.00000  Uiso   1.00
C1339  C     0.76139   0.87409   0.88048   0.00000  Uiso   1.00
C1340  C     0.76473   0.92736   0.87498   0.00000  Uiso   1.00
C1341  C     0.72967   0.94640   0.84611   0.00000  Uiso   1.00
H1342  H     0.73073   0.93076   0.81238   0.00000  Uiso   1.00
H1343  H     0.69949   0.93838   0.86137   0.00000  Uiso   1.00
H1344  H     0.73274   0.98493   0.84296   0.00000  Uiso   1.00
H1345  H     0.76388   0.94481   0.90789   0.00000  Uiso   1.00
H1346  H     0.79444   0.93649   0.85923   0.00000  Uiso   1.00
H1347  H     0.75878   0.85770   0.84717   0.00000  Uiso   1.00
H1348  H     0.73201   0.86444   0.89660   0.00000  Uiso   1.00
C1349  C     0.90717   0.79377   0.61871   0.00000  Uiso   1.00
C1350  C     0.94370   0.82781   0.61702   0.00000  Uiso   1.00
C1351  C     0.98332   0.80461   0.63353   0.00000  Uiso   1.00
H1352  H     0.97913   0.79006   0.66735   0.00000  Uiso   1.00
H1353  H     0.99225   0.77590   0.61072   0.00000  Uiso   1.00
H1354  H     0.67522   0.83078   0.63464   0.00000  Uiso   1.00
H1355  H     0.94870   0.84065   0.58270   0.00000  Uiso   1.00
H1356  H     0.93690   0.85863   0.63823   0.00000  Uiso   1.00
H1357  H     0.90080   0.78699   0.65411   0.00000  Uiso   1.00
H1358  H     0.91550   0.75881   0.60550   0.00000  Uiso   1.00
F1359  F     0.73762   0.89606   0.54652   0.00000  Uiso   1.00
F1360  F     0.93026   0.77159   0.95333   0.00000  Uiso   1.00
F1361  F     0.70854   0.75844   0.78676   0.00000  Uiso   1.00
F1362  F     0.95824   0.90892   0.71501   0.00000  Uiso   1.00
F1363  F     0.95908   0.75844   0.78695   0.00000  Uiso   1.00
F1364  F     0.70754   0.90868   0.71441   0.00000  Uiso   1.00
F1365  F     0.78332   0.71470   0.69282   0.00000  Uiso   1.00
F1366  F     0.88317   0.95195   0.80734   0.00000  Uiso   1.00
F1367  F     0.88284   0.71456   0.80768   0.00000  Uiso   1.00
F1368  F     0.78369   0.95209   0.69247   0.00000  Uiso   1.00
loop_
_geom_bond_atom_site_label_1
_geom_bond_atom_site_label_2
_geom_bond_distance
_geom_bond_site_symmetry_2
_ccdc_geom_bond_type
C1     O40     1.292   .     A
C1     O37     1.291   .     A
C1     C10     1.449   .     S
C2     O39     1.291   .     A
C2     O38     1.292   .     A
C2     C9      1.449   .     S
C3     C28     1.404   .     A
C3     F67     1.358   .     S
C3     C713    1.387   1_554 S
C4     F68     1.358   .     S
C4     C27     1.402   .     A
C4     C714    1.385   .     S
C5     F69     1.359   .     S
C5     C10     1.403   .     A
C5     C159    1.384   1_455 S
C6     C9      1.404   .     A
C6     F70     1.359   .     S
C6     C84     1.383   .     S
C7     F71     1.358   .     S
C7     C9      1.403   .     A
C7     C81     1.384   .     S
C8     F72     1.358   .     S
C8     C10     1.403   .     A
C8     C158    1.383   1_455 S
C11    F73     1.355   .     S
C11    N36     1.368   .     A
C11    C470    1.417   1_545 S
C12    F74     1.355   .     S
C12    N35     1.368   .     A
C12    C241    1.417   .     S
C13    F75     1.355   .     S
C13    N36     1.368   .     A
C13    C468    1.417   1_545 S
C14    N35     1.368   .     A
C14    F76     1.355   .     S
C14    C239    1.417   .     S
C15    O44     1.291   .     A
C15    C20     1.452   .     S
C15    O41     1.292   .     A
C16    O43     1.290   .     A
C16    O42     1.291   .     A
C16    C19     1.451   .     S
C17    C27     1.394   .     A
C17    F45     1.361   .     S
C17    C19     1.394   .     A
C18    F46     1.362   .     S
C18    C28     1.395   .     A
C18    C20     1.396   .     A
C19    C21     1.414   .     A
C20    C22     1.416   .     A
C21    C23     1.419   .     A
C21    C47     1.529   .     S
C22    C24     1.419   .     A
C22    C57     1.531   .     S
C23    C25     1.422   .     A
C23    C29     1.407   .     A
C24    C26     1.422   .     A
C24    C30     1.408   .     A
C25    C27     1.414   .     A
C25    C710    1.416   .     S
C26    C28     1.413   .     A
C26    C709    1.416   1_554 S
C29    H33     1.079   .     S
C29    C687    1.387   .     S
C30    H34     1.079   .     S
C30    C688    1.385   1_554 S
Cu31   O43     1.965   .     S
Cu31   Cu32    2.681   .     S
Cu31   O37     1.964   .     S
Cu31   N35     2.015   .     S
Cu31   O41     1.965   .     S
Cu31   O39     1.964   .     S
Cu32   N36     2.015   .     S
Cu32   O38     1.964   .     S
Cu32   O44     1.965   .     S
Cu32   O40     1.964   .     S
Cu32   O42     1.965   .     S
C47    C48     1.536   .     S
C47    H55     1.110   .     S
C47    H56     1.110   .     S
C48    H54     1.111   .     S
C48    H53     1.110   .     S
C48    C49     1.526   .     S
C49    H51     1.111   .     S
C49    H52     1.110   .     S
C49    H50     1.111   .     S
C57    H66     1.110   .     S
C57    H65     1.105   .     S
C57    C58     1.536   .     S
C58    H64     1.112   .     S
C58    C59     1.526   .     S
C58    H63     1.110   .     S
C59    H60     1.110   .     S
C59    H61     1.111   .     S
C59    H138    1.111   .     S
H62    C211    1.111   1_455 S
C77    O116    1.292   .     A
C77    O113    1.291   .     A
C77    C86     1.449   .     S
C78    O115    1.291   .     A
C78    O114    1.292   .     A
C78    C85     1.449   .     S
C79    C104    1.404   .     A
C79    F143    1.358   .     S
C79    C789    1.387   1_554 S
C80    F144    1.358   .     S
C80    C103    1.402   .     A
C80    C790    1.385   .     S
C81    F145    1.359   .     S
C81    C86     1.403   .     A
C82    C85     1.404   .     A
C82    F146    1.359   .     S
C82    C160    1.383   .     S
C83    F147    1.358   .     S
C83    C85     1.403   .     A
C83    C157    1.384   .     S
C84    F148    1.358   .     S
C84    C86     1.403   .     A
C87    F149    1.355   .     S
C87    N112    1.368   .     A
C87    C546    1.417   1_545 S
C88    F150    1.355   .     S
C88    N111    1.368   .     A
C88    C317    1.417   .     S
C89    F151    1.355   .     S
C89    N112    1.368   .     A
C89    C544    1.417   1_545 S
C90    N111    1.368   .     A
C90    F152    1.355   .     S
C90    C315    1.417   .     S
C91    O120    1.291   .     A
C91    C96     1.452   .     S
C91    O117    1.292   .     A
C92    O119    1.290   .     A
C92    O118    1.291   .     A
C92    C95     1.451   .     S
C93    C103    1.394   .     A
C93    F121    1.361   .     S
C93    C95     1.394   .     A
C94    F122    1.362   .     S
C94    C104    1.395   .     A
C94    C96     1.396   .     A
C95    C97     1.414   .     A
C96    C98     1.416   .     A
C97    C99     1.419   .     A
C97    C123    1.529   .     S
C98    C100    1.419   .     A
C98    C133    1.531   .     S
C99    C101    1.422   .     A
C99    C105    1.407   .     A
C100   C102    1.422   .     A
C100   C106    1.408   .     A
C101   C103    1.414   .     A
C101   C786    1.416   .     S
C102   C104    1.413   .     A
C102   C785    1.416   1_554 S
C105   H109    1.079   .     S
C105   C763    1.387   .     S
C106   H110    1.079   .     S
C106   C764    1.385   1_554 S
Cu107  O119    1.965   .     S
Cu107  Cu108   2.681   .     S
Cu107  O113    1.964   .     S
Cu107  N111    2.015   .     S
Cu107  O117    1.965   .     S
Cu107  O115    1.964   .     S
Cu108  N112    2.015   .     S
Cu108  O114    1.964   .     S
Cu108  O120    1.965   .     S
Cu108  O116    1.964   .     S
Cu108  O118    1.965   .     S
C123   C124    1.536   .     S
C123   H131    1.110   .     S
C123   H132    1.110   .     S
C124   H130    1.111   .     S
C124   H129    1.110   .     S
C124   C125    1.526   .     S
C125   H127    1.111   .     S
C125   H128    1.110   .     S
C125   H126    1.111   .     S
C133   H142    1.110   .     S
C133   H141    1.105   .     S
C133   C134    1.536   .     S
C134   H140    1.112   .     S
C134   C135    1.526   .     S
C134   H139    1.110   .     S
C135   H136    1.110   .     S
C135   H137    1.111   .     S
C135   H214    1.111   .     S
C153   O192    1.292   .     A
C153   O189    1.291   .     A
C153   C162    1.449   .     S
C154   O191    1.291   .     A
C154   O190    1.292   .     A
C154   C161    1.449   .     S
C155   C180    1.404   .     A
C155   F219    1.358   .     S
C155   C865    1.387   1_554 S
C156   F220    1.358   .     S
C156   C179    1.402   .     A
C156   C866    1.385   .     S
C157   F221    1.359   .     S
C157   C162    1.403   .     A
C158   C161    1.404   .     A
C158   F222    1.359   .     S
C158   C8      1.383   1_655 S
C159   F223    1.358   .     S
C159   C161    1.403   .     A
C159   C5      1.384   1_655 S
C160   F224    1.358   .     S
C160   C162    1.403   .     A
C163   F225    1.355   .     S
C163   N188    1.368   .     A
C163   C622    1.417   1_545 S
C164   F226    1.355   .     S
C164   N187    1.368   .     A
C164   C393    1.417   .     S
C165   F227    1.355   .     S
C165   N188    1.368   .     A
C165   C620    1.417   1_545 S
C166   N187    1.368   .     A
C166   F228    1.355   .     S
C166   C391    1.417   .     S
C167   O196    1.291   .     A
C167   C172    1.452   .     S
C167   O193    1.292   .     A
C168   O195    1.290   .     A
C168   O194    1.291   .     A
C168   C171    1.451   .     S
C169   C179    1.394   .     A
C169   F197    1.361   .     S
C169   C171    1.394   .     A
C170   F198    1.362   .     S
C170   C180    1.395   .     A
C170   C172    1.396   .     A
C171   C173    1.414   .     A
C172   C174    1.416   .     A
C173   C175    1.419   .     A
C173   C199    1.529   .     S
C174   C176    1.419   .     A
C174   C209    1.531   .     S
C175   C177    1.422   .     A
C175   C181    1.407   .     A
C176   C178    1.422   .     A
C176   C182    1.408   .     A
C177   C179    1.414   .     A
C177   C862    1.416   .     S
C178   C180    1.413   .     A
C178   C861    1.416   1_554 S
C181   H185    1.079   .     S
C181   C839    1.387   .     S
C182   H186    1.079   .     S
C182   C840    1.385   1_554 S
Cu183  O195    1.965   .     S
Cu183  Cu184   2.681   .     S
Cu183  O189    1.964   .     S
Cu183  N187    2.015   .     S
Cu183  O193    1.965   .     S
Cu183  O191    1.964   .     S
Cu184  N188    2.015   .     S
Cu184  O190    1.964   .     S
Cu184  O196    1.965   .     S
Cu184  O192    1.964   .     S
Cu184  O194    1.965   .     S
C199   C200    1.536   .     S
C199   H207    1.110   .     S
C199   H208    1.110   .     S
C200   H206    1.111   .     S
C200   H205    1.110   .     S
C200   C201    1.526   .     S
C201   H203    1.111   .     S
C201   H204    1.110   .     S
C201   H202    1.111   .     S
C209   H218    1.110   .     S
C209   H217    1.105   .     S
C209   C210    1.536   .     S
C210   H216    1.112   .     S
C210   C211    1.526   .     S
C210   H215    1.110   .     S
C211   H212    1.110   .     S
C211   H213    1.111   .     S
C211   H62     1.111   1_655 S
C229   O268    1.292   .     A
C229   O265    1.291   .     A
C229   C238    1.449   .     S
C230   O267    1.291   .     A
C230   O266    1.292   .     A
C230   C237    1.449   .     S
C231   C256    1.404   .     A
C231   F295    1.358   .     S
C231   C941    1.387   1_554 S
C232   F296    1.358   .     S
C232   C255    1.402   .     A
C232   C942    1.385   .     S
C233   F297    1.359   .     S
C233   C238    1.403   .     A
C233   C387    1.384   1_455 S
C234   C237    1.404   .     A
C234   F298    1.359   .     S
C234   C312    1.383   .     S
C235   F299    1.358   .     S
C235   C237    1.403   .     A
C235   C309    1.384   .     S
C236   F300    1.358   .     S
C236   C238    1.403   .     A
C236   C386    1.383   1_455 S
C239   F301    1.355   .     S
C239   N264    1.368   .     A
C240   F302    1.355   .     S
C240   N263    1.368   .     A
C240   C469    1.417   .     S
C241   F303    1.355   .     S
C241   N264    1.368   .     A
C242   N263    1.368   .     A
C242   F304    1.355   .     S
C242   C467    1.417   .     S
C243   O272    1.291   .     A
C243   C248    1.452   .     S
C243   O269    1.292   .     A
C244   O271    1.290   .     A
C244   O270    1.291   .     A
C244   C247    1.451   .     S
C245   C255    1.394   .     A
C245   F273    1.361   .     S
C245   C247    1.394   .     A
C246   F274    1.362   .     S
C246   C256    1.395   .     A
C246   C248    1.396   .     A
C247   C249    1.414   .     A
C248   C250    1.416   .     A
C249   C251    1.419   .     A
C249   C275    1.529   .     S
C250   C252    1.419   .     A
C250   C285    1.531   .     S
C251   C253    1.422   .     A
C251   C257    1.407   .     A
C252   C254    1.422   .     A
C252   C258    1.408   .     A
C253   C255    1.414   .     A
C253   C938    1.416   .     S
C254   C256    1.413   .     A
C254   C937    1.416   1_554 S
C257   H261    1.079   .     S
C257   C915    1.387   .     S
C258   H262    1.079   .     S
C258   C916    1.385   1_554 S
Cu259  O271    1.965   .     S
Cu259  Cu260   2.681   .     S
Cu259  O265    1.964   .     S
Cu259  N263    2.015   .     S
Cu259  O269    1.965   .     S
Cu259  O267    1.964   .     S
Cu260  N264    2.015   .     S
Cu260  O266    1.964   .     S
Cu260  O272    1.965   .     S
Cu260  O268    1.964   .     S
Cu260  O270    1.965   .     S
C275   C276    1.536   .     S
C275   H283    1.110   .     S
C275   H284    1.110   .     S
C276   H282    1.111   .     S
C276   H281    1.110   .     S
C276   C277    1.526   .     S
C277   H279    1.111   .     S
C277   H280    1.110   .     S
C277   H278    1.111   .     S
C285   H294    1.110   .     S
C285   H293    1.105   .     S
C285   C286    1.536   .     S
C286   H292    1.112   .     S
C286   C287    1.526   .     S
C286   H291    1.110   .     S
C287   H288    1.110   .     S
C287   H289    1.111   .     S
C287   H366    1.111   .     S
H290   C439    1.111   1_455 S
C305   O344    1.292   .     A
C305   O341    1.291   .     A
C305   C314    1.449   .     S
C306   O343    1.291   .     A
C306   O342    1.292   .     A
C306   C313    1.449   .     S
C307   C332    1.404   .     A
C307   F371    1.358   .     S
C307   C1017   1.387   1_554 S
C308   F372    1.358   .     S
C308   C331    1.402   .     A
C308   C1018   1.385   .     S
C309   F373    1.359   .     S
C309   C314    1.403   .     A
C310   C313    1.404   .     A
C310   F374    1.359   .     S
C310   C388    1.383   .     S
C311   F375    1.358   .     S
C311   C313    1.403   .     A
C311   C385    1.384   .     S
C312   F376    1.358   .     S
C312   C314    1.403   .     A
C315   F377    1.355   .     S
C315   N340    1.368   .     A
C316   F378    1.355   .     S
C316   N339    1.368   .     A
C316   C545    1.417   .     S
C317   F379    1.355   .     S
C317   N340    1.368   .     A
C318   N339    1.368   .     A
C318   F380    1.355   .     S
C318   C543    1.417   .     S
C319   O348    1.291   .     A
C319   C324    1.452   .     S
C319   O345    1.292   .     A
C320   O347    1.290   .     A
C320   O346    1.291   .     A
C320   C323    1.451   .     S
C321   C331    1.394   .     A
C321   F349    1.361   .     S
C321   C323    1.394   .     A
C322   F350    1.362   .     S
C322   C332    1.395   .     A
C322   C324    1.396   .     A
C323   C325    1.414   .     A
C324   C326    1.416   .     A
C325   C327    1.419   .     A
C325   C351    1.529   .     S
C326   C328    1.419   .     A
C326   C361    1.531   .     S
C327   C329    1.422   .     A
C327   C333    1.407   .     A
C328   C330    1.422   .     A
C328   C334    1.408   .     A
C329   C331    1.414   .     A
C329   C1014   1.416   .     S
C330   C332    1.413   .     A
C330   C1013   1.416   1_554 S
C333   H337    1.079   .     S
C333   C991    1.387   .     S
C334   H338    1.079   .     S
C334   C992    1.385   1_554 S
Cu335  O347    1.965   .     S
Cu335  Cu336   2.681   .     S
Cu335  O341    1.964   .     S
Cu335  N339    2.015   .     S
Cu335  O345    1.965   .     S
Cu335  O343    1.964   .     S
Cu336  N340    2.015   .     S
Cu336  O342    1.964   .     S
Cu336  O348    1.965   .     S
Cu336  O344    1.964   .     S
Cu336  O346    1.965   .     S
C351   C352    1.536   .     S
C351   H359    1.110   .     S
C351   H360    1.110   .     S
C352   H358    1.111   .     S
C352   H357    1.110   .     S
C352   C353    1.526   .     S
C353   H355    1.111   .     S
C353   H356    1.110   .     S
C353   H354    1.111   .     S
C361   H370    1.110   .     S
C361   H369    1.105   .     S
C361   C362    1.536   .     S
C362   H368    1.112   .     S
C362   C363    1.526   .     S
C362   H367    1.110   .     S
C363   H364    1.110   .     S
C363   H365    1.111   .     S
C363   H442    1.111   .     S
C381   O420    1.292   .     A
C381   O417    1.291   .     A
C381   C390    1.449   .     S
C382   O419    1.291   .     A
C382   O418    1.292   .     A
C382   C389    1.449   .     S
C383   C408    1.404   .     A
C383   F447    1.358   .     S
C383   C1093   1.387   1_554 S
C384   F448    1.358   .     S
C384   C407    1.402   .     A
C384   C1094   1.385   .     S
C385   F449    1.359   .     S
C385   C390    1.403   .     A
C386   C389    1.404   .     A
C386   F450    1.359   .     S
C386   C236    1.383   1_655 S
C387   F451    1.358   .     S
C387   C389    1.403   .     A
C387   C233    1.384   1_655 S
C388   F452    1.358   .     S
C388   C390    1.403   .     A
C391   F453    1.355   .     S
C391   N416    1.368   .     A
C392   F454    1.355   .     S
C392   N415    1.368   .     A
C392   C621    1.417   .     S
C393   F455    1.355   .     S
C393   N416    1.368   .     A
C394   N415    1.368   .     A
C394   F456    1.355   .     S
C394   C619    1.417   .     S
C395   O424    1.291   .     A
C395   C400    1.452   .     S
C395   O421    1.292   .     A
C396   O423    1.290   .     A
C396   O422    1.291   .     A
C396   C399    1.451   .     S
C397   C407    1.394   .     A
C397   F425    1.361   .     S
C397   C399    1.394   .     A
C398   F426    1.362   .     S
C398   C408    1.395   .     A
C398   C400    1.396   .     A
C399   C401    1.414   .     A
C400   C402    1.416   .     A
C401   C403    1.419   .     A
C401   C427    1.529   .     S
C402   C404    1.419   .     A
C402   C437    1.531   .     S
C403   C405    1.422   .     A
C403   C409    1.407   .     A
C404   C406    1.422   .     A
C404   C410    1.408   .     A
C405   C407    1.414   .     A
C405   C1090   1.416   .     S
C406   C408    1.413   .     A
C406   C1089   1.416   1_554 S
C409   H413    1.079   .     S
C409   C1067   1.387   .     S
C410   H414    1.079   .     S
C410   C1068   1.385   1_554 S
Cu411  O423    1.965   .     S
Cu411  Cu412   2.681   .     S
Cu411  O417    1.964   .     S
Cu411  N415    2.015   .     S
Cu411  O421    1.965   .     S
Cu411  O419    1.964   .     S
Cu412  N416    2.015   .     S
Cu412  O418    1.964   .     S
Cu412  O424    1.965   .     S
Cu412  O420    1.964   .     S
Cu412  O422    1.965   .     S
C427   C428    1.536   .     S
C427   H435    1.110   .     S
C427   H436    1.110   .     S
C428   H434    1.111   .     S
C428   H433    1.110   .     S
C428   C429    1.526   .     S
C429   H431    1.111   .     S
C429   H432    1.110   .     S
C429   H430    1.111   .     S
C437   H446    1.110   .     S
C437   H445    1.105   .     S
C437   C438    1.536   .     S
C438   H444    1.112   .     S
C438   C439    1.526   .     S
C438   H443    1.110   .     S
C439   H440    1.110   .     S
C439   H441    1.111   .     S
C439   H290    1.111   1_655 S
C457   O496    1.292   .     A
C457   O493    1.291   .     A
C457   C466    1.449   .     S
C458   O495    1.291   .     A
C458   O494    1.292   .     A
C458   C465    1.449   .     S
C459   C484    1.404   .     A
C459   F523    1.358   .     S
C459   C1169   1.387   1_554 S
C460   F524    1.358   .     S
C460   C483    1.402   .     A
C460   C1170   1.385   .     S
C461   F525    1.359   .     S
C461   C466    1.403   .     A
C461   C615    1.384   1_455 S
C462   C465    1.404   .     A
C462   F526    1.359   .     S
C462   C540    1.383   .     S
C463   F527    1.358   .     S
C463   C465    1.403   .     A
C463   C537    1.384   .     S
C464   F528    1.358   .     S
C464   C466    1.403   .     A
C464   C614    1.383   1_455 S
C467   F529    1.355   .     S
C467   N492    1.368   .     A
C468   F530    1.355   .     S
C468   N491    1.368   .     A
C468   C13     1.417   1_565 S
C469   F531    1.355   .     S
C469   N492    1.368   .     A
C470   N491    1.368   .     A
C470   F532    1.355   .     S
C470   C11     1.417   1_565 S
C471   O500    1.291   .     A
C471   C476    1.452   .     S
C471   O497    1.292   .     A
C472   O499    1.290   .     A
C472   O498    1.291   .     A
C472   C475    1.451   .     S
C473   C483    1.394   .     A
C473   F501    1.361   .     S
C473   C475    1.394   .     A
C474   F502    1.362   .     S
C474   C484    1.395   .     A
C474   C476    1.396   .     A
C475   C477    1.414   .     A
C476   C478    1.416   .     A
C477   C479    1.419   .     A
C477   C503    1.529   .     S
C478   C480    1.419   .     A
C478   C513    1.531   .     S
C479   C481    1.422   .     A
C479   C485    1.407   .     A
C480   C482    1.422   .     A
C480   C486    1.408   .     A
C481   C483    1.414   .     A
C481   C1166   1.416   .     S
C482   C484    1.413   .     A
C482   C1165   1.416   1_554 S
C485   H489    1.079   .     S
C485   C1143   1.387   .     S
C486   H490    1.079   .     S
C486   C1144   1.385   1_554 S
Cu487  O499    1.965   .     S
Cu487  Cu488   2.681   .     S
Cu487  O493    1.964   .     S
Cu487  N491    2.015   .     S
Cu487  O497    1.965   .     S
Cu487  O495    1.964   .     S
Cu488  N492    2.015   .     S
Cu488  O494    1.964   .     S
Cu488  O500    1.965   .     S
Cu488  O496    1.964   .     S
Cu488  O498    1.965   .     S
C503   C504    1.536   .     S
C503   H511    1.110   .     S
C503   H512    1.110   .     S
C504   H510    1.111   .     S
C504   H509    1.110   .     S
C504   C505    1.526   .     S
C505   H507    1.111   .     S
C505   H508    1.110   .     S
C505   H506    1.111   .     S
C513   H522    1.110   .     S
C513   H521    1.105   .     S
C513   C514    1.536   .     S
C514   H520    1.112   .     S
C514   C515    1.526   .     S
C514   H519    1.110   .     S
C515   H516    1.110   .     S
C515   H517    1.111   .     S
C515   H594    1.111   .     S
H518   C667    1.111   1_455 S
C533   O572    1.292   .     A
C533   O569    1.291   .     A
C533   C542    1.449   .     S
C534   O571    1.291   .     A
C534   O570    1.292   .     A
C534   C541    1.449   .     S
C535   C560    1.404   .     A
C535   F599    1.358   .     S
C535   C1245   1.387   1_554 S
C536   F600    1.358   .     S
C536   C559    1.402   .     A
C536   C1246   1.385   .     S
C537   F601    1.359   .     S
C537   C542    1.403   .     A
C538   C541    1.404   .     A
C538   F602    1.359   .     S
C538   C616    1.383   .     S
C539   F603    1.358   .     S
C539   C541    1.403   .     A
C539   C613    1.384   .     S
C540   F604    1.358   .     S
C540   C542    1.403   .     A
C543   F605    1.355   .     S
C543   N568    1.368   .     A
C544   F606    1.355   .     S
C544   N567    1.368   .     A
C544   C89     1.417   1_565 S
C545   F607    1.355   .     S
C545   N568    1.368   .     A
C546   N567    1.368   .     A
C546   F608    1.355   .     S
C546   C87     1.417   1_565 S
C547   O576    1.291   .     A
C547   C552    1.452   .     S
C547   O573    1.292   .     A
C548   O575    1.290   .     A
C548   O574    1.291   .     A
C548   C551    1.451   .     S
C549   C559    1.394   .     A
C549   F577    1.361   .     S
C549   C551    1.394   .     A
C550   F578    1.362   .     S
C550   C560    1.395   .     A
C550   C552    1.396   .     A
C551   C553    1.414   .     A
C552   C554    1.416   .     A
C553   C555    1.419   .     A
C553   C579    1.529   .     S
C554   C556    1.419   .     A
C554   C589    1.531   .     S
C555   C557    1.422   .     A
C555   C561    1.407   .     A
C556   C558    1.422   .     A
C556   C562    1.408   .     A
C557   C559    1.414   .     A
C557   C1242   1.416   .     S
C558   C560    1.413   .     A
C558   C1241   1.416   1_554 S
C561   H565    1.079   .     S
C561   C1219   1.387   .     S
C562   H566    1.079   .     S
C562   C1220   1.385   1_554 S
Cu563  O575    1.965   .     S
Cu563  Cu564   2.681   .     S
Cu563  O569    1.964   .     S
Cu563  N567    2.015   .     S
Cu563  O573    1.965   .     S
Cu563  O571    1.964   .     S
Cu564  N568    2.015   .     S
Cu564  O570    1.964   .     S
Cu564  O576    1.965   .     S
Cu564  O572    1.964   .     S
Cu564  O574    1.965   .     S
C579   C580    1.536   .     S
C579   H587    1.110   .     S
C579   H588    1.110   .     S
C580   H586    1.111   .     S
C580   H585    1.110   .     S
C580   C581    1.526   .     S
C581   H583    1.111   .     S
C581   H584    1.110   .     S
C581   H582    1.111   .     S
C589   H598    1.110   .     S
C589   H597    1.105   .     S
C589   C590    1.536   .     S
C590   H596    1.112   .     S
C590   C591    1.526   .     S
C590   H595    1.110   .     S
C591   H592    1.110   .     S
C591   H593    1.111   .     S
C591   H670    1.111   .     S
C609   O648    1.292   .     A
C609   O645    1.291   .     A
C609   C618    1.449   .     S
C610   O647    1.291   .     A
C610   O646    1.292   .     A
C610   C617    1.449   .     S
C611   C636    1.404   .     A
C611   F675    1.358   .     S
C611   C1321   1.387   1_554 S
C612   F676    1.358   .     S
C612   C635    1.402   .     A
C612   C1322   1.385   .     S
C613   F677    1.359   .     S
C613   C618    1.403   .     A
C614   C617    1.404   .     A
C614   F678    1.359   .     S
C614   C464    1.383   1_655 S
C615   F679    1.358   .     S
C615   C617    1.403   .     A
C615   C461    1.384   1_655 S
C616   F680    1.358   .     S
C616   C618    1.403   .     A
C619   F681    1.355   .     S
C619   N644    1.368   .     A
C620   F682    1.355   .     S
C620   N643    1.368   .     A
C620   C165    1.417   1_565 S
C621   F683    1.355   .     S
C621   N644    1.368   .     A
C622   N643    1.368   .     A
C622   F684    1.355   .     S
C622   C163    1.417   1_565 S
C623   O652    1.291   .     A
C623   C628    1.452   .     S
C623   O649    1.292   .     A
C624   O651    1.290   .     A
C624   O650    1.291   .     A
C624   C627    1.451   .     S
C625   C635    1.394   .     A
C625   F653    1.361   .     S
C625   C627    1.394   .     A
C626   F654    1.362   .     S
C626   C636    1.395   .     A
C626   C628    1.396   .     A
C627   C629    1.414   .     A
C628   C630    1.416   .     A
C629   C631    1.419   .     A
C629   C655    1.529   .     S
C630   C632    1.419   .     A
C630   C665    1.531   .     S
C631   C633    1.422   .     A
C631   C637    1.407   .     A
C632   C634    1.422   .     A
C632   C638    1.408   .     A
C633   C635    1.414   .     A
C633   C1318   1.416   .     S
C634   C636    1.413   .     A
C634   C1317   1.416   1_554 S
C637   H641    1.079   .     S
C637   C1295   1.387   .     S
C638   H642    1.079   .     S
C638   C1296   1.385   1_554 S
Cu639  O651    1.965   .     S
Cu639  Cu640   2.681   .     S
Cu639  O645    1.964   .     S
Cu639  N643    2.015   .     S
Cu639  O649    1.965   .     S
Cu639  O647    1.964   .     S
Cu640  N644    2.015   .     S
Cu640  O646    1.964   .     S
Cu640  O652    1.965   .     S
Cu640  O648    1.964   .     S
Cu640  O650    1.965   .     S
C655   C656    1.536   .     S
C655   H663    1.110   .     S
C655   H664    1.110   .     S
C656   H662    1.111   .     S
C656   H661    1.110   .     S
C656   C657    1.526   .     S
C657   H659    1.111   .     S
C657   H660    1.110   .     S
C657   H658    1.111   .     S
C665   H674    1.110   .     S
C665   H673    1.105   .     S
C665   C666    1.536   .     S
C666   H672    1.112   .     S
C666   C667    1.526   .     S
C666   H671    1.110   .     S
C667   H668    1.110   .     S
C667   H669    1.111   .     S
C667   H518    1.111   1_655 S
C685   O724    1.292   .     A
C685   O721    1.291   .     A
C685   C694    1.449   .     S
C686   O723    1.291   .     A
C686   O722    1.292   .     A
C686   C693    1.449   .     S
C687   C712    1.404   .     A
C687   F751    1.358   .     S
C688   F752    1.358   .     S
C688   C711    1.402   .     A
C688   C30     1.385   1_556 S
C689   F753    1.359   .     S
C689   C694    1.403   .     A
C689   C843    1.384   1_455 S
C690   C693    1.404   .     A
C690   F754    1.359   .     S
C690   C768    1.383   .     S
C691   F755    1.358   .     S
C691   C693    1.403   .     A
C691   C765    1.384   .     S
C692   F756    1.358   .     S
C692   C694    1.403   .     A
C692   C842    1.383   1_455 S
C695   F757    1.355   .     S
C695   N720    1.368   .     A
C695   C1154   1.417   1_545 S
C696   F758    1.355   .     S
C696   N719    1.368   .     A
C696   C925    1.417   .     S
C697   F759    1.355   .     S
C697   N720    1.368   .     A
C697   C1152   1.417   1_545 S
C698   N719    1.368   .     A
C698   F760    1.355   .     S
C698   C923    1.417   .     S
C699   O728    1.291   .     A
C699   C704    1.452   .     S
C699   O725    1.292   .     A
C700   O727    1.290   .     A
C700   O726    1.291   .     A
C700   C703    1.451   .     S
C701   C711    1.394   .     A
C701   F729    1.361   .     S
C701   C703    1.394   .     A
C702   F730    1.362   .     S
C702   C712    1.395   .     A
C702   C704    1.396   .     A
C703   C705    1.414   .     A
C704   C706    1.416   .     A
C705   C707    1.419   .     A
C705   C731    1.529   .     S
C706   C708    1.419   .     A
C706   C741    1.531   .     S
C707   C709    1.422   .     A
C707   C713    1.407   .     A
C708   C710    1.422   .     A
C708   C714    1.408   .     A
C709   C711    1.414   .     A
C709   C26     1.416   1_556 S
C710   C712    1.413   .     A
C713   H717    1.079   .     S
C713   C3      1.387   1_556 S
C714   H718    1.079   .     S
Cu715  O727    1.965   .     S
Cu715  Cu716   2.681   .     S
Cu715  O721    1.964   .     S
Cu715  N719    2.015   .     S
Cu715  O725    1.965   .     S
Cu715  O723    1.964   .     S
Cu716  N720    2.015   .     S
Cu716  O722    1.964   .     S
Cu716  O728    1.965   .     S
Cu716  O724    1.964   .     S
Cu716  O726    1.965   .     S
C731   C732    1.536   .     S
C731   H739    1.110   .     S
C731   H740    1.110   .     S
C732   H738    1.111   .     S
C732   H737    1.110   .     S
C732   C733    1.526   .     S
C733   H735    1.111   .     S
C733   H736    1.110   .     S
C733   H734    1.111   .     S
C741   H750    1.110   .     S
C741   H749    1.105   .     S
C741   C742    1.536   .     S
C742   H748    1.112   .     S
C742   C743    1.526   .     S
C742   H747    1.110   .     S
C743   H744    1.110   .     S
C743   H745    1.111   .     S
C743   H822    1.111   .     S
H746   C895    1.111   1_455 S
C761   O800    1.292   .     A
C761   O797    1.291   .     A
C761   C770    1.449   .     S
C762   O799    1.291   .     A
C762   O798    1.292   .     A
C762   C769    1.449   .     S
C763   C788    1.404   .     A
C763   F827    1.358   .     S
C764   F828    1.358   .     S
C764   C787    1.402   .     A
C764   C106    1.385   1_556 S
C765   F829    1.359   .     S
C765   C770    1.403   .     A
C766   C769    1.404   .     A
C766   F830    1.359   .     S
C766   C844    1.383   .     S
C767   F831    1.358   .     S
C767   C769    1.403   .     A
C767   C841    1.384   .     S
C768   F832    1.358   .     S
C768   C770    1.403   .     A
C771   F833    1.355   .     S
C771   N796    1.368   .     A
C771   C1230   1.417   1_545 S
C772   F834    1.355   .     S
C772   N795    1.368   .     A
C772   C1001   1.417   .     S
C773   F835    1.355   .     S
C773   N796    1.368   .     A
C773   C1228   1.417   1_545 S
C774   N795    1.368   .     A
C774   F836    1.355   .     S
C774   C999    1.417   .     S
C775   O804    1.291   .     A
C775   C780    1.452   .     S
C775   O801    1.292   .     A
C776   O803    1.290   .     A
C776   O802    1.291   .     A
C776   C779    1.451   .     S
C777   C787    1.394   .     A
C777   F805    1.361   .     S
C777   C779    1.394   .     A
C778   F806    1.362   .     S
C778   C788    1.395   .     A
C778   C780    1.396   .     A
C779   C781    1.414   .     A
C780   C782    1.416   .     A
C781   C783    1.419   .     A
C781   C807    1.529   .     S
C782   C784    1.419   .     A
C782   C817    1.531   .     S
C783   C785    1.422   .     A
C783   C789    1.407   .     A
C784   C786    1.422   .     A
C784   C790    1.408   .     A
C785   C787    1.414   .     A
C785   C102    1.416   1_556 S
C786   C788    1.413   .     A
C789   H793    1.079   .     S
C789   C79     1.387   1_556 S
C790   H794    1.079   .     S
Cu791  O803    1.965   .     S
Cu791  Cu792   2.681   .     S
Cu791  O797    1.964   .     S
Cu791  N795    2.015   .     S
Cu791  O801    1.965   .     S
Cu791  O799    1.964   .     S
Cu792  N796    2.015   .     S
Cu792  O798    1.964   .     S
Cu792  O804    1.965   .     S
Cu792  O800    1.964   .     S
Cu792  O802    1.965   .     S
C807   C808    1.536   .     S
C807   H815    1.110   .     S
C807   H816    1.110   .     S
C808   H814    1.111   .     S
C808   H813    1.110   .     S
C808   C809    1.526   .     S
C809   H811    1.111   .     S
C809   H812    1.110   .     S
C809   H810    1.111   .     S
C817   H826    1.110   .     S
C817   H825    1.105   .     S
C817   C818    1.536   .     S
C818   H824    1.112   .     S
C818   C819    1.526   .     S
C818   H823    1.110   .     S
C819   H820    1.110   .     S
C819   H821    1.111   .     S
C819   H898    1.111   .     S
C837   O876    1.292   .     A
C837   O873    1.291   .     A
C837   C846    1.449   .     S
C838   O875    1.291   .     A
C838   O874    1.292   .     A
C838   C845    1.449   .     S
C839   C864    1.404   .     A
C839   F903    1.358   .     S
C840   F904    1.358   .     S
C840   C863    1.402   .     A
C840   C182    1.385   1_556 S
C841   F905    1.359   .     S
C841   C846    1.403   .     A
C842   C845    1.404   .     A
C842   F906    1.359   .     S
C842   C692    1.383   1_655 S
C843   F907    1.358   .     S
C843   C845    1.403   .     A
C843   C689    1.384   1_655 S
C844   F908    1.358   .     S
C844   C846    1.403   .     A
C847   F909    1.355   .     S
C847   N872    1.368   .     A
C847   C1306   1.417   1_545 S
C848   F910    1.355   .     S
C848   N871    1.368   .     A
C848   C1077   1.417   .     S
C849   F911    1.355   .     S
C849   N872    1.368   .     A
C849   C1304   1.417   1_545 S
C850   N871    1.368   .     A
C850   F912    1.355   .     S
C850   C1075   1.417   .     S
C851   O880    1.291   .     A
C851   C856    1.452   .     S
C851   O877    1.292   .     A
C852   O879    1.290   .     A
C852   O878    1.291   .     A
C852   C855    1.451   .     S
C853   C863    1.394   .     A
C853   F881    1.361   .     S
C853   C855    1.394   .     A
C854   F882    1.362   .     S
C854   C864    1.395   .     A
C854   C856    1.396   .     A
C855   C857    1.414   .     A
C856   C858    1.416   .     A
C857   C859    1.419   .     A
C857   C883    1.529   .     S
C858   C860    1.419   .     A
C858   C893    1.531   .     S
C859   C861    1.422   .     A
C859   C865    1.407   .     A
C860   C862    1.422   .     A
C860   C866    1.408   .     A
C861   C863    1.414   .     A
C861   C178    1.416   1_556 S
C862   C864    1.413   .     A
C865   H869    1.079   .     S
C865   C155    1.387   1_556 S
C866   H870    1.079   .     S
Cu867  O879    1.965   .     S
Cu867  Cu868   2.681   .     S
Cu867  O873    1.964   .     S
Cu867  N871    2.015   .     S
Cu867  O877    1.965   .     S
Cu867  O875    1.964   .     S
Cu868  N872    2.015   .     S
Cu868  O874    1.964   .     S
Cu868  O880    1.965   .     S
Cu868  O876    1.964   .     S
Cu868  O878    1.965   .     S
C883   C884    1.536   .     S
C883   H891    1.110   .     S
C883   H892    1.110   .     S
C884   H890    1.111   .     S
C884   H889    1.110   .     S
C884   C885    1.526   .     S
C885   H887    1.111   .     S
C885   H888    1.110   .     S
C885   H886    1.111   .     S
C893   H902    1.110   .     S
C893   H901    1.105   .     S
C893   C894    1.536   .     S
C894   H900    1.112   .     S
C894   C895    1.526   .     S
C894   H899    1.110   .     S
C895   H896    1.110   .     S
C895   H897    1.111   .     S
C895   H746    1.111   1_655 S
C913   O952    1.292   .     A
C913   O949    1.291   .     A
C913   C922    1.449   .     S
C914   O951    1.291   .     A
C914   O950    1.292   .     A
C914   C921    1.449   .     S
C915   C940    1.404   .     A
C915   F979    1.358   .     S
C916   F980    1.358   .     S
C916   C939    1.402   .     A
C916   C258    1.385   1_556 S
C917   F981    1.359   .     S
C917   C922    1.403   .     A
C917   C1071   1.384   1_455 S
C918   C921    1.404   .     A
C918   F982    1.359   .     S
C918   C996    1.383   .     S
C919   F983    1.358   .     S
C919   C921    1.403   .     A
C919   C993    1.384   .     S
C920   F984    1.358   .     S
C920   C922    1.403   .     A
C920   C1070   1.383   1_455 S
C923   F985    1.355   .     S
C923   N948    1.368   .     A
C924   F986    1.355   .     S
C924   N947    1.368   .     A
C924   C1153   1.417   .     S
C925   F987    1.355   .     S
C925   N948    1.368   .     A
C926   N947    1.368   .     A
C926   F988    1.355   .     S
C926   C1151   1.417   .     S
C927   O956    1.291   .     A
C927   C932    1.452   .     S
C927   O953    1.292   .     A
C928   O955    1.290   .     A
C928   O954    1.291   .     A
C928   C931    1.451   .     S
C929   C939    1.394   .     A
C929   F957    1.361   .     S
C929   C931    1.394   .     A
C930   F958    1.362   .     S
C930   C940    1.395   .     A
C930   C932    1.396   .     A
C931   C933    1.414   .     A
C932   C934    1.416   .     A
C933   C935    1.419   .     A
C933   C959    1.529   .     S
C934   C936    1.419   .     A
C934   C969    1.531   .     S
C935   C937    1.422   .     A
C935   C941    1.407   .     A
C936   C938    1.422   .     A
C936   C942    1.408   .     A
C937   C939    1.414   .     A
C937   C254    1.416   1_556 S
C938   C940    1.413   .     A
C941   H945    1.079   .     S
C941   C231    1.387   1_556 S
C942   H946    1.079   .     S
Cu943  O955    1.965   .     S
Cu943  Cu944   2.681   .     S
Cu943  O949    1.964   .     S
Cu943  N947    2.015   .     S
Cu943  O953    1.965   .     S
Cu943  O951    1.964   .     S
Cu944  N948    2.015   .     S
Cu944  O950    1.964   .     S
Cu944  O956    1.965   .     S
Cu944  O952    1.964   .     S
Cu944  O954    1.965   .     S
C959   C960    1.536   .     S
C959   H967    1.110   .     S
C959   H968    1.110   .     S
C960   H966    1.111   .     S
C960   H965    1.110   .     S
C960   C961    1.526   .     S
C961   H963    1.111   .     S
C961   H964    1.110   .     S
C961   H962    1.111   .     S
C969   H978    1.110   .     S
C969   H977    1.105   .     S
C969   C970    1.536   .     S
C970   H976    1.112   .     S
C970   C971    1.526   .     S
C970   H975    1.110   .     S
C971   H972    1.110   .     S
C971   H973    1.111   .     S
C971   H1050   1.111   .     S
H974   C1123   1.111   1_455 S
C989   O1028   1.292   .     A
C989   O1025   1.291   .     A
C989   C998    1.449   .     S
C990   O1027   1.291   .     A
C990   O1026   1.292   .     A
C990   C997    1.449   .     S
C991   C1016   1.404   .     A
C991   F1055   1.358   .     S
C992   F1056   1.358   .     S
C992   C1015   1.402   .     A
C992   C334    1.385   1_556 S
C993   F1057   1.359   .     S
C993   C998    1.403   .     A
C994   C997    1.404   .     A
C994   F1058   1.359   .     S
C994   C1072   1.383   .     S
C995   F1059   1.358   .     S
C995   C997    1.403   .     A
C995   C1069   1.384   .     S
C996   F1060   1.358   .     S
C996   C998    1.403   .     A
C999   F1061   1.355   .     S
C999   N1024   1.368   .     A
C1000  F1062   1.355   .     S
C1000  N1023   1.368   .     A
C1000  C1229   1.417   .     S
C1001  F1063   1.355   .     S
C1001  N1024   1.368   .     A
C1002  N1023   1.368   .     A
C1002  F1064   1.355   .     S
C1002  C1227   1.417   .     S
C1003  O1032   1.291   .     A
C1003  C1008   1.452   .     S
C1003  O1029   1.292   .     A
C1004  O1031   1.290   .     A
C1004  O1030   1.291   .     A
C1004  C1007   1.451   .     S
C1005  C1015   1.394   .     A
C1005  F1033   1.361   .     S
C1005  C1007   1.394   .     A
C1006  F1034   1.362   .     S
C1006  C1016   1.395   .     A
C1006  C1008   1.396   .     A
C1007  C1009   1.414   .     A
C1008  C1010   1.416   .     A
C1009  C1011   1.419   .     A
C1009  C1035   1.529   .     S
C1010  C1012   1.419   .     A
C1010  C1045   1.531   .     S
C1011  C1013   1.422   .     A
C1011  C1017   1.407   .     A
C1012  C1014   1.422   .     A
C1012  C1018   1.408   .     A
C1013  C1015   1.414   .     A
C1013  C330    1.416   1_556 S
C1014  C1016   1.413   .     A
C1017  H1021   1.079   .     S
C1017  C307    1.387   1_556 S
C1018  H1022   1.079   .     S
Cu1019 O1031   1.965   .     S
Cu1019 Cu1020  2.681   .     S
Cu1019 O1025   1.964   .     S
Cu1019 N1023   2.015   .     S
Cu1019 O1029   1.965   .     S
Cu1019 O1027   1.964   .     S
Cu1020 N1024   2.015   .     S
Cu1020 O1026   1.964   .     S
Cu1020 O1032   1.965   .     S
Cu1020 O1028   1.964   .     S
Cu1020 O1030   1.965   .     S
C1035  C1036   1.536   .     S
C1035  H1043   1.110   .     S
C1035  H1044   1.110   .     S
C1036  H1042   1.111   .     S
C1036  H1041   1.110   .     S
C1036  C1037   1.526   .     S
C1037  H1039   1.111   .     S
C1037  H1040   1.110   .     S
C1037  H1038   1.111   .     S
C1045  H1054   1.110   .     S
C1045  H1053   1.105   .     S
C1045  C1046   1.536   .     S
C1046  H1052   1.112   .     S
C1046  C1047   1.526   .     S
C1046  H1051   1.110   .     S
C1047  H1048   1.110   .     S
C1047  H1049   1.111   .     S
C1047  H1126   1.111   .     S
C1065  O1104   1.292   .     A
C1065  O1101   1.291   .     A
C1065  C1074   1.449   .     S
C1066  O1103   1.291   .     A
C1066  O1102   1.292   .     A
C1066  C1073   1.449   .     S
C1067  C1092   1.404   .     A
C1067  F1131   1.358   .     S
C1068  F1132   1.358   .     S
C1068  C1091   1.402   .     A
C1068  C410    1.385   1_556 S
C1069  F1133   1.359   .     S
C1069  C1074   1.403   .     A
C1070  C1073   1.404   .     A
C1070  F1134   1.359   .     S
C1070  C920    1.383   1_655 S
C1071  F1135   1.358   .     S
C1071  C1073   1.403   .     A
C1071  C917    1.384   1_655 S
C1072  F1136   1.358   .     S
C1072  C1074   1.403   .     A
C1075  F1137   1.355   .     S
C1075  N1100   1.368   .     A
C1076  F1138   1.355   .     S
C1076  N1099   1.368   .     A
C1076  C1305   1.417   .     S
C1077  F1139   1.355   .     S
C1077  N1100   1.368   .     A
C1078  N1099   1.368   .     A
C1078  F1140   1.355   .     S
C1078  C1303   1.417   .     S
C1079  O1108   1.291   .     A
C1079  C1084   1.452   .     S
C1079  O1105   1.292   .     A
C1080  O1107   1.290   .     A
C1080  O1106   1.291   .     A
C1080  C1083   1.451   .     S
C1081  C1091   1.394   .     A
C1081  F1109   1.361   .     S
C1081  C1083   1.394   .     A
C1082  F1110   1.362   .     S
C1082  C1092   1.395   .     A
C1082  C1084   1.396   .     A
C1083  C1085   1.414   .     A
C1084  C1086   1.416   .     A
C1085  C1087   1.419   .     A
C1085  C1111   1.529   .     S
C1086  C1088   1.419   .     A
C1086  C1121   1.531   .     S
C1087  C1089   1.422   .     A
C1087  C1093   1.407   .     A
C1088  C1090   1.422   .     A
C1088  C1094   1.408   .     A
C1089  C1091   1.414   .     A
C1089  C406    1.416   1_556 S
C1090  C1092   1.413   .     A
C1093  H1097   1.079   .     S
C1093  C383    1.387   1_556 S
C1094  H1098   1.079   .     S
Cu1095 O1107   1.965   .     S
Cu1095 Cu1096  2.681   .     S
Cu1095 O1101   1.964   .     S
Cu1095 N1099   2.015   .     S
Cu1095 O1105   1.965   .     S
Cu1095 O1103   1.964   .     S
Cu1096 N1100   2.015   .     S
Cu1096 O1102   1.964   .     S
Cu1096 O1108   1.965   .     S
Cu1096 O1104   1.964   .     S
Cu1096 O1106   1.965   .     S
C1111  C1112   1.536   .     S
C1111  H1119   1.110   .     S
C1111  H1120   1.110   .     S
C1112  H1118   1.111   .     S
C1112  H1117   1.110   .     S
C1112  C1113   1.526   .     S
C1113  H1115   1.111   .     S
C1113  H1116   1.110   .     S
C1113  H1114   1.111   .     S
C1121  H1130   1.110   .     S
C1121  H1129   1.105   .     S
C1121  C1122   1.536   .     S
C1122  H1128   1.112   .     S
C1122  C1123   1.526   .     S
C1122  H1127   1.110   .     S
C1123  H1124   1.110   .     S
C1123  H1125   1.111   .     S
C1123  H974    1.111   1_655 S
C1141  O1180   1.292   .     A
C1141  O1177   1.291   .     A
C1141  C1150   1.449   .     S
C1142  O1179   1.291   .     A
C1142  O1178   1.292   .     A
C1142  C1149   1.449   .     S
C1143  C1168   1.404   .     A
C1143  F1207   1.358   .     S
C1144  F1208   1.358   .     S
C1144  C1167   1.402   .     A
C1144  C486    1.385   1_556 S
C1145  F1209   1.359   .     S
C1145  C1150   1.403   .     A
C1145  C1299   1.384   1_455 S
C1146  C1149   1.404   .     A
C1146  F1210   1.359   .     S
C1146  C1224   1.383   .     S
C1147  F1211   1.358   .     S
C1147  C1149   1.403   .     A
C1147  C1221   1.384   .     S
C1148  F1212   1.358   .     S
C1148  C1150   1.403   .     A
C1148  C1298   1.383   1_455 S
C1151  F1213   1.355   .     S
C1151  N1176   1.368   .     A
C1152  F1214   1.355   .     S
C1152  N1175   1.368   .     A
C1152  C697    1.417   1_565 S
C1153  F1215   1.355   .     S
C1153  N1176   1.368   .     A
C1154  N1175   1.368   .     A
C1154  F1216   1.355   .     S
C1154  C695    1.417   1_565 S
C1155  O1184   1.291   .     A
C1155  C1160   1.452   .     S
C1155  O1181   1.292   .     A
C1156  O1183   1.290   .     A
C1156  O1182   1.291   .     A
C1156  C1159   1.451   .     S
C1157  C1167   1.394   .     A
C1157  F1185   1.361   .     S
C1157  C1159   1.394   .     A
C1158  F1186   1.362   .     S
C1158  C1168   1.395   .     A
C1158  C1160   1.396   .     A
C1159  C1161   1.414   .     A
C1160  C1162   1.416   .     A
C1161  C1163   1.419   .     A
C1161  C1187   1.529   .     S
C1162  C1164   1.419   .     A
C1162  C1197   1.531   .     S
C1163  C1165   1.422   .     A
C1163  C1169   1.407   .     A
C1164  C1166   1.422   .     A
C1164  C1170   1.408   .     A
C1165  C1167   1.414   .     A
C1165  C482    1.416   1_556 S
C1166  C1168   1.413   .     A
C1169  H1173   1.079   .     S
C1169  C459    1.387   1_556 S
C1170  H1174   1.079   .     S
Cu1171 O1183   1.965   .     S
Cu1171 Cu1172  2.681   .     S
Cu1171 O1177   1.964   .     S
Cu1171 N1175   2.015   .     S
Cu1171 O1181   1.965   .     S
Cu1171 O1179   1.964   .     S
Cu1172 N1176   2.015   .     S
Cu1172 O1178   1.964   .     S
Cu1172 O1184   1.965   .     S
Cu1172 O1180   1.964   .     S
Cu1172 O1182   1.965   .     S
C1187  C1188   1.536   .     S
C1187  H1195   1.110   .     S
C1187  H1196   1.110   .     S
C1188  H1194   1.111   .     S
C1188  H1193   1.110   .     S
C1188  C1189   1.526   .     S
C1189  H1191   1.111   .     S
C1189  H1192   1.110   .     S
C1189  H1190   1.111   .     S
C1197  H1206   1.110   .     S
C1197  H1205   1.105   .     S
C1197  C1198   1.536   .     S
C1198  H1204   1.112   .     S
C1198  C1199   1.526   .     S
C1198  H1203   1.110   .     S
C1199  H1200   1.110   .     S
C1199  H1201   1.111   .     S
C1199  H1278   1.111   .     S
H1202  C1351   1.111   1_455 S
C1217  O1256   1.292   .     A
C1217  O1253   1.291   .     A
C1217  C1226   1.449   .     S
C1218  O1255   1.291   .     A
C1218  O1254   1.292   .     A
C1218  C1225   1.449   .     S
C1219  C1244   1.404   .     A
C1219  F1283   1.358   .     S
C1220  F1284   1.358   .     S
C1220  C1243   1.402   .     A
C1220  C562    1.385   1_556 S
C1221  F1285   1.359   .     S
C1221  C1226   1.403   .     A
C1222  C1225   1.404   .     A
C1222  F1286   1.359   .     S
C1222  C1300   1.383   .     S
C1223  F1287   1.358   .     S
C1223  C1225   1.403   .     A
C1223  C1297   1.384   .     S
C1224  F1288   1.358   .     S
C1224  C1226   1.403   .     A
C1227  F1289   1.355   .     S
C1227  N1252   1.368   .     A
C1228  F1290   1.355   .     S
C1228  N1251   1.368   .     A
C1228  C773    1.417   1_565 S
C1229  F1291   1.355   .     S
C1229  N1252   1.368   .     A
C1230  N1251   1.368   .     A
C1230  F1292   1.355   .     S
C1230  C771    1.417   1_565 S
C1231  O1260   1.291   .     A
C1231  C1236   1.452   .     S
C1231  O1257   1.292   .     A
C1232  O1259   1.290   .     A
C1232  O1258   1.291   .     A
C1232  C1235   1.451   .     S
C1233  C1243   1.394   .     A
C1233  F1261   1.361   .     S
C1233  C1235   1.394   .     A
C1234  F1262   1.362   .     S
C1234  C1244   1.395   .     A
C1234  C1236   1.396   .     A
C1235  C1237   1.414   .     A
C1236  C1238   1.416   .     A
C1237  C1239   1.419   .     A
C1237  C1263   1.529   .     S
C1238  C1240   1.419   .     A
C1238  C1273   1.531   .     S
C1239  C1241   1.422   .     A
C1239  C1245   1.407   .     A
C1240  C1242   1.422   .     A
C1240  C1246   1.408   .     A
C1241  C1243   1.414   .     A
C1241  C558    1.416   1_556 S
C1242  C1244   1.413   .     A
C1245  H1249   1.079   .     S
C1245  C535    1.387   1_556 S
C1246  H1250   1.079   .     S
Cu1247 O1259   1.965   .     S
Cu1247 Cu1248  2.681   .     S
Cu1247 O1253   1.964   .     S
Cu1247 N1251   2.015   .     S
Cu1247 O1257   1.965   .     S
Cu1247 O1255   1.964   .     S
Cu1248 N1252   2.015   .     S
Cu1248 O1254   1.964   .     S
Cu1248 O1260   1.965   .     S
Cu1248 O1256   1.964   .     S
Cu1248 O1258   1.965   .     S
C1263  C1264   1.536   .     S
C1263  H1271   1.110   .     S
C1263  H1272   1.110   .     S
C1264  H1270   1.111   .     S
C1264  H1269   1.110   .     S
C1264  C1265   1.526   .     S
C1265  H1267   1.111   .     S
C1265  H1268   1.110   .     S
C1265  H1266   1.111   .     S
C1273  H1282   1.110   .     S
C1273  H1281   1.105   .     S
C1273  C1274   1.536   .     S
C1274  H1280   1.112   .     S
C1274  C1275   1.526   .     S
C1274  H1279   1.110   .     S
C1275  H1276   1.110   .     S
C1275  H1277   1.111   .     S
C1275  H1354   1.111   .     S
C1293  O1332   1.292   .     A
C1293  O1329   1.291   .     A
C1293  C1302   1.449   .     S
C1294  O1331   1.291   .     A
C1294  O1330   1.292   .     A
C1294  C1301   1.449   .     S
C1295  C1320   1.404   .     A
C1295  F1359   1.358   .     S
C1296  F1360   1.358   .     S
C1296  C1319   1.402   .     A
C1296  C638    1.385   1_556 S
C1297  F1361   1.359   .     S
C1297  C1302   1.403   .     A
C1298  C1301   1.404   .     A
C1298  F1362   1.359   .     S
C1298  C1148   1.383   1_655 S
C1299  F1363   1.358   .     S
C1299  C1301   1.403   .     A
C1299  C1145   1.384   1_655 S
C1300  F1364   1.358   .     S
C1300  C1302   1.403   .     A
C1303  F1365   1.355   .     S
C1303  N1328   1.368   .     A
C1304  F1366   1.355   .     S
C1304  N1327   1.368   .     A
C1304  C849    1.417   1_565 S
C1305  F1367   1.355   .     S
C1305  N1328   1.368   .     A
C1306  N1327   1.368   .     A
C1306  F1368   1.355   .     S
C1306  C847    1.417   1_565 S
C1307  O1336   1.291   .     A
C1307  C1312   1.452   .     S
C1307  O1333   1.292   .     A
C1308  O1335   1.290   .     A
C1308  O1334   1.291   .     A
C1308  C1311   1.451   .     S
C1309  C1319   1.394   .     A
C1309  F1337   1.361   .     S
C1309  C1311   1.394   .     A
C1310  F1338   1.362   .     S
C1310  C1320   1.395   .     A
C1310  C1312   1.396   .     A
C1311  C1313   1.414   .     A
C1312  C1314   1.416   .     A
C1313  C1315   1.419   .     A
C1313  C1339   1.529   .     S
C1314  C1316   1.419   .     A
C1314  C1349   1.531   .     S
C1315  C1317   1.422   .     A
C1315  C1321   1.407   .     A
C1316  C1318   1.422   .     A
C1316  C1322   1.408   .     A
C1317  C1319   1.414   .     A
C1317  C634    1.416   1_556 S
C1318  C1320   1.413   .     A
C1321  H1325   1.079   .     S
C1321  C611    1.387   1_556 S
C1322  H1326   1.079   .     S
Cu1323 O1335   1.965   .     S
Cu1323 Cu1324  2.681   .     S
Cu1323 O1329   1.964   .     S
Cu1323 N1327   2.015   .     S
Cu1323 O1333   1.965   .     S
Cu1323 O1331   1.964   .     S
Cu1324 N1328   2.015   .     S
Cu1324 O1330   1.964   .     S
Cu1324 O1336   1.965   .     S
Cu1324 O1332   1.964   .     S
Cu1324 O1334   1.965   .     S
C1339  C1340   1.536   .     S
C1339  H1347   1.110   .     S
C1339  H1348   1.110   .     S
C1340  H1346   1.111   .     S
C1340  H1345   1.110   .     S
C1340  C1341   1.526   .     S
C1341  H1343   1.111   .     S
C1341  H1344   1.110   .     S
C1341  H1342   1.111   .     S
C1349  H1358   1.110   .     S
C1349  H1357   1.105   .     S
C1349  C1350   1.536   .     S
C1350  H1356   1.112   .     S
C1350  C1351   1.526   .     S
C1350  H1355   1.110   .     S
C1351  H1352   1.110   .     S
C1351  H1353   1.111   .     S
C1351  H1202   1.111   1_655 S
