data_str_m2_o1_o10_pcu_sym.98
_audit_creation_date              2020-01-03
_audit_creation_method            'Materials Studio'
_symmetry_space_group_name_H-M    'P1'
_symmetry_Int_Tables_number       1
_symmetry_cell_setting            triclinic
loop_
_symmetry_equiv_pos_as_xyz
  x,y,z
_cell_length_a                    26.4330
_cell_length_b                    32.4881
_cell_length_c                    28.6733
_cell_angle_alpha                 89.7978
_cell_angle_beta                  97.4848
_cell_angle_gamma                 91.1421
loop_
_atom_site_label
_atom_site_type_symbol
_atom_site_fract_x
_atom_site_fract_y
_atom_site_fract_z
_atom_site_U_iso_or_equiv
_atom_site_adp_type
_atom_site_occupancy
C1     C     0.16660   0.08740   0.16669   0.00000  Uiso   1.00
C2     C     0.16673   0.24593   0.16664   0.00000  Uiso   1.00
C3     C     0.06822   0.16607   0.15489   0.00000  Uiso   1.00
C4     C     0.26511   0.16726   0.17844   0.00000  Uiso   1.00
C5     C     0.01360   0.16102   0.14925   0.00000  Uiso   1.00
C6     C     0.31973   0.17231   0.18408   0.00000  Uiso   1.00
C7     C     0.16558   0.02142   0.12419   0.00000  Uiso   1.00
C8     C     0.16775   0.31192   0.20914   0.00000  Uiso   1.00
C9     C     0.16566   0.31217   0.12415   0.00000  Uiso   1.00
C10    C     0.16767   0.02117   0.20918   0.00000  Uiso   1.00
C11    C     0.16674   0.29057   0.16662   0.00000  Uiso   1.00
C12    C     0.16659   0.04276   0.16671   0.00000  Uiso   1.00
C13    C     0.13420   0.14090   0.02166   0.00000  Uiso   1.00
C14    C     0.19914   0.19244   0.31167   0.00000  Uiso   1.00
C15    C     0.13427   0.14092   0.30491   0.00000  Uiso   1.00
C16    C     0.19906   0.19241   0.02843   0.00000  Uiso   1.00
Cu17   Cu    0.16667   0.16667   0.21355   0.00000  Uiso   1.00
Cu18   Cu    0.16667   0.16666   0.11978   0.00000  Uiso   1.00
H19    H     0.16469   0.03752   0.09095   0.00000  Uiso   1.00
H20    H     0.16864   0.29582   0.24238   0.00000  Uiso   1.00
H21    H     0.16481   0.29626   0.09091   0.00000  Uiso   1.00
H22    H     0.16852   0.03707   0.24242   0.00000  Uiso   1.00
N23    N     0.16668   0.16668   0.28403   0.00000  Uiso   1.00
N24    N     0.16665   0.16666   0.04931   0.00000  Uiso   1.00
O25    O     0.16666   0.10655   0.20625   0.00000  Uiso   1.00
O26    O     0.16667   0.22678   0.12709   0.00000  Uiso   1.00
O27    O     0.16666   0.10654   0.12706   0.00000  Uiso   1.00
O28    O     0.16667   0.22679   0.20628   0.00000  Uiso   1.00
O29    O     0.09161   0.16667   0.19712   0.00000  Uiso   1.00
O30    O     0.24172   0.16666   0.13621   0.00000  Uiso   1.00
O31    O     0.09161   0.16666   0.11793   0.00000  Uiso   1.00
O32    O     0.24172   0.16667   0.21540   0.00000  Uiso   1.00
C33    C     0.32469   0.13945   0.10682   0.00000  Uiso   1.00
N34    N     0.30719   0.12229   0.07304   0.00000  Uiso   1.00
C35    C     0.00864   0.19388   0.22651   0.00000  Uiso   1.00
N36    N     0.02615   0.21104   0.26030   0.00000  Uiso   1.00
O37    O     0.10227   0.11544   0.04391   0.00000  Uiso   1.00
H38    H     0.07998   0.09847   0.02088   0.00000  Uiso   1.00
O39    O     0.23106   0.21789   0.28942   0.00000  Uiso   1.00
H40    H     0.25335   0.23486   0.31245   0.00000  Uiso   1.00
C41    C     0.10015   0.11350   0.27581   0.00000  Uiso   1.00
N42    N     0.07257   0.09137   0.25282   0.00000  Uiso   1.00
C43    C     0.23318   0.21983   0.05752   0.00000  Uiso   1.00
N44    N     0.26076   0.24197   0.08052   0.00000  Uiso   1.00
C45    C     0.49993   0.08740   0.16669   0.00000  Uiso   1.00
C46    C     0.50007   0.24593   0.16664   0.00000  Uiso   1.00
C47    C     0.40155   0.16607   0.15489   0.00000  Uiso   1.00
C48    C     0.59845   0.16726   0.17844   0.00000  Uiso   1.00
C49    C     0.34694   0.16102   0.14925   0.00000  Uiso   1.00
C50    C     0.65306   0.17231   0.18408   0.00000  Uiso   1.00
C51    C     0.49891   0.02142   0.12419   0.00000  Uiso   1.00
C52    C     0.50109   0.31192   0.20914   0.00000  Uiso   1.00
C53    C     0.49899   0.31217   0.12415   0.00000  Uiso   1.00
C54    C     0.50101   0.02117   0.20918   0.00000  Uiso   1.00
C55    C     0.50007   0.29057   0.16662   0.00000  Uiso   1.00
C56    C     0.49993   0.04276   0.16671   0.00000  Uiso   1.00
C57    C     0.46753   0.14090   0.02166   0.00000  Uiso   1.00
C58    C     0.53247   0.19244   0.31167   0.00000  Uiso   1.00
C59    C     0.46760   0.14092   0.30491   0.00000  Uiso   1.00
C60    C     0.53240   0.19241   0.02843   0.00000  Uiso   1.00
Cu61   Cu    0.50000   0.16667   0.21355   0.00000  Uiso   1.00
Cu62   Cu    0.50000   0.16666   0.11978   0.00000  Uiso   1.00
H63    H     0.49803   0.03752   0.09095   0.00000  Uiso   1.00
H64    H     0.50197   0.29582   0.24238   0.00000  Uiso   1.00
H65    H     0.49815   0.29626   0.09091   0.00000  Uiso   1.00
H66    H     0.50185   0.03707   0.24242   0.00000  Uiso   1.00
N67    N     0.50001   0.16668   0.28403   0.00000  Uiso   1.00
N68    N     0.49999   0.16666   0.04931   0.00000  Uiso   1.00
O69    O     0.50000   0.10655   0.20625   0.00000  Uiso   1.00
O70    O     0.50000   0.22678   0.12709   0.00000  Uiso   1.00
O71    O     0.50000   0.10654   0.12706   0.00000  Uiso   1.00
O72    O     0.50000   0.22679   0.20628   0.00000  Uiso   1.00
O73    O     0.42495   0.16667   0.19712   0.00000  Uiso   1.00
O74    O     0.57505   0.16666   0.13621   0.00000  Uiso   1.00
O75    O     0.42494   0.16666   0.11793   0.00000  Uiso   1.00
O76    O     0.57506   0.16667   0.21540   0.00000  Uiso   1.00
C77    C     0.65802   0.13945   0.10682   0.00000  Uiso   1.00
N78    N     0.64052   0.12229   0.07304   0.00000  Uiso   1.00
C79    C     0.34198   0.19388   0.22651   0.00000  Uiso   1.00
N80    N     0.35948   0.21104   0.26030   0.00000  Uiso   1.00
O81    O     0.43561   0.11544   0.04391   0.00000  Uiso   1.00
H82    H     0.41332   0.09847   0.02088   0.00000  Uiso   1.00
O83    O     0.56439   0.21789   0.28942   0.00000  Uiso   1.00
H84    H     0.58668   0.23486   0.31245   0.00000  Uiso   1.00
C85    C     0.43348   0.11350   0.27581   0.00000  Uiso   1.00
N86    N     0.40590   0.09137   0.25282   0.00000  Uiso   1.00
C87    C     0.56652   0.21983   0.05752   0.00000  Uiso   1.00
N88    N     0.59410   0.24197   0.08052   0.00000  Uiso   1.00
C89    C     0.83327   0.08740   0.16669   0.00000  Uiso   1.00
C90    C     0.83340   0.24593   0.16664   0.00000  Uiso   1.00
C91    C     0.73489   0.16607   0.15489   0.00000  Uiso   1.00
C92    C     0.93178   0.16726   0.17844   0.00000  Uiso   1.00
C93    C     0.68027   0.16102   0.14925   0.00000  Uiso   1.00
C94    C     0.98640   0.17231   0.18408   0.00000  Uiso   1.00
C95    C     0.83225   0.02142   0.12419   0.00000  Uiso   1.00
C96    C     0.83442   0.31192   0.20914   0.00000  Uiso   1.00
C97    C     0.83233   0.31217   0.12415   0.00000  Uiso   1.00
C98    C     0.83434   0.02117   0.20918   0.00000  Uiso   1.00
C99    C     0.83341   0.29057   0.16662   0.00000  Uiso   1.00
C100   C     0.83326   0.04276   0.16671   0.00000  Uiso   1.00
C101   C     0.80086   0.14090   0.02166   0.00000  Uiso   1.00
C102   C     0.86580   0.19244   0.31167   0.00000  Uiso   1.00
C103   C     0.80094   0.14092   0.30491   0.00000  Uiso   1.00
C104   C     0.86573   0.19241   0.02843   0.00000  Uiso   1.00
Cu105  Cu    0.83333   0.16667   0.21355   0.00000  Uiso   1.00
Cu106  Cu    0.83333   0.16666   0.11978   0.00000  Uiso   1.00
H107   H     0.83136   0.03752   0.09095   0.00000  Uiso   1.00
H108   H     0.83531   0.29582   0.24238   0.00000  Uiso   1.00
H109   H     0.83148   0.29626   0.09091   0.00000  Uiso   1.00
H110   H     0.83519   0.03707   0.24242   0.00000  Uiso   1.00
N111   N     0.83335   0.16668   0.28403   0.00000  Uiso   1.00
N112   N     0.83332   0.16666   0.04931   0.00000  Uiso   1.00
O113   O     0.83333   0.10655   0.20625   0.00000  Uiso   1.00
O114   O     0.83334   0.22678   0.12709   0.00000  Uiso   1.00
O115   O     0.83333   0.10654   0.12706   0.00000  Uiso   1.00
O116   O     0.83334   0.22679   0.20628   0.00000  Uiso   1.00
O117   O     0.75828   0.16667   0.19712   0.00000  Uiso   1.00
O118   O     0.90839   0.16666   0.13621   0.00000  Uiso   1.00
O119   O     0.75828   0.16666   0.11793   0.00000  Uiso   1.00
O120   O     0.90839   0.16667   0.21540   0.00000  Uiso   1.00
C121   C     0.99136   0.13945   0.10682   0.00000  Uiso   1.00
N122   N     0.97385   0.12229   0.07304   0.00000  Uiso   1.00
C123   C     0.67531   0.19388   0.22651   0.00000  Uiso   1.00
N124   N     0.69281   0.21104   0.26030   0.00000  Uiso   1.00
O125   O     0.76894   0.11544   0.04391   0.00000  Uiso   1.00
H126   H     0.74665   0.09847   0.02088   0.00000  Uiso   1.00
O127   O     0.89773   0.21789   0.28942   0.00000  Uiso   1.00
H128   H     0.92002   0.23486   0.31245   0.00000  Uiso   1.00
C129   C     0.76682   0.11350   0.27581   0.00000  Uiso   1.00
N130   N     0.73924   0.09137   0.25282   0.00000  Uiso   1.00
C131   C     0.89985   0.21983   0.05752   0.00000  Uiso   1.00
N132   N     0.92743   0.24197   0.08052   0.00000  Uiso   1.00
C133   C     0.16660   0.42073   0.16669   0.00000  Uiso   1.00
C134   C     0.16673   0.57927   0.16664   0.00000  Uiso   1.00
C135   C     0.06822   0.49941   0.15489   0.00000  Uiso   1.00
C136   C     0.26511   0.50059   0.17844   0.00000  Uiso   1.00
C137   C     0.01360   0.49435   0.14925   0.00000  Uiso   1.00
C138   C     0.31973   0.50565   0.18408   0.00000  Uiso   1.00
C139   C     0.16558   0.35475   0.12419   0.00000  Uiso   1.00
C140   C     0.16775   0.64525   0.20914   0.00000  Uiso   1.00
C141   C     0.16566   0.64550   0.12415   0.00000  Uiso   1.00
C142   C     0.16767   0.35450   0.20918   0.00000  Uiso   1.00
C143   C     0.16674   0.62391   0.16662   0.00000  Uiso   1.00
C144   C     0.16659   0.37609   0.16671   0.00000  Uiso   1.00
C145   C     0.13420   0.47423   0.02166   0.00000  Uiso   1.00
C146   C     0.19914   0.52577   0.31167   0.00000  Uiso   1.00
C147   C     0.13427   0.47425   0.30491   0.00000  Uiso   1.00
C148   C     0.19906   0.52575   0.02843   0.00000  Uiso   1.00
Cu149  Cu    0.16667   0.50001   0.21355   0.00000  Uiso   1.00
Cu150  Cu    0.16667   0.49999   0.11978   0.00000  Uiso   1.00
H151   H     0.16469   0.37085   0.09095   0.00000  Uiso   1.00
H152   H     0.16864   0.62915   0.24238   0.00000  Uiso   1.00
H153   H     0.16481   0.62960   0.09091   0.00000  Uiso   1.00
H154   H     0.16852   0.37040   0.24242   0.00000  Uiso   1.00
N155   N     0.16668   0.50001   0.28403   0.00000  Uiso   1.00
N156   N     0.16665   0.49999   0.04931   0.00000  Uiso   1.00
O157   O     0.16666   0.43989   0.20625   0.00000  Uiso   1.00
O158   O     0.16667   0.56011   0.12709   0.00000  Uiso   1.00
O159   O     0.16666   0.43988   0.12706   0.00000  Uiso   1.00
O160   O     0.16667   0.56012   0.20628   0.00000  Uiso   1.00
O161   O     0.09161   0.50000   0.19712   0.00000  Uiso   1.00
O162   O     0.24172   0.50000   0.13621   0.00000  Uiso   1.00
O163   O     0.09161   0.49999   0.11793   0.00000  Uiso   1.00
O164   O     0.24172   0.50001   0.21540   0.00000  Uiso   1.00
C165   C     0.32469   0.47279   0.10682   0.00000  Uiso   1.00
N166   N     0.30719   0.45562   0.07304   0.00000  Uiso   1.00
C167   C     0.00864   0.52721   0.22651   0.00000  Uiso   1.00
N168   N     0.02615   0.54438   0.26030   0.00000  Uiso   1.00
O169   O     0.10227   0.44877   0.04391   0.00000  Uiso   1.00
H170   H     0.07998   0.43181   0.02088   0.00000  Uiso   1.00
O171   O     0.23106   0.55123   0.28942   0.00000  Uiso   1.00
H172   H     0.25335   0.56819   0.31245   0.00000  Uiso   1.00
C173   C     0.10015   0.44684   0.27581   0.00000  Uiso   1.00
N174   N     0.07257   0.42470   0.25282   0.00000  Uiso   1.00
C175   C     0.23318   0.55316   0.05752   0.00000  Uiso   1.00
N176   N     0.26076   0.57530   0.08052   0.00000  Uiso   1.00
C177   C     0.49993   0.42073   0.16669   0.00000  Uiso   1.00
C178   C     0.50007   0.57927   0.16664   0.00000  Uiso   1.00
C179   C     0.40155   0.49941   0.15489   0.00000  Uiso   1.00
C180   C     0.59845   0.50059   0.17844   0.00000  Uiso   1.00
C181   C     0.34694   0.49435   0.14925   0.00000  Uiso   1.00
C182   C     0.65306   0.50565   0.18408   0.00000  Uiso   1.00
C183   C     0.49891   0.35475   0.12419   0.00000  Uiso   1.00
C184   C     0.50109   0.64525   0.20914   0.00000  Uiso   1.00
C185   C     0.49899   0.64550   0.12415   0.00000  Uiso   1.00
C186   C     0.50101   0.35450   0.20918   0.00000  Uiso   1.00
C187   C     0.50007   0.62391   0.16662   0.00000  Uiso   1.00
C188   C     0.49993   0.37609   0.16671   0.00000  Uiso   1.00
C189   C     0.46753   0.47423   0.02166   0.00000  Uiso   1.00
C190   C     0.53247   0.52577   0.31167   0.00000  Uiso   1.00
C191   C     0.46760   0.47425   0.30491   0.00000  Uiso   1.00
C192   C     0.53240   0.52575   0.02843   0.00000  Uiso   1.00
Cu193  Cu    0.50000   0.50001   0.21355   0.00000  Uiso   1.00
Cu194  Cu    0.50000   0.49999   0.11978   0.00000  Uiso   1.00
H195   H     0.49803   0.37085   0.09095   0.00000  Uiso   1.00
H196   H     0.50197   0.62915   0.24238   0.00000  Uiso   1.00
H197   H     0.49815   0.62960   0.09091   0.00000  Uiso   1.00
H198   H     0.50185   0.37040   0.24242   0.00000  Uiso   1.00
N199   N     0.50001   0.50001   0.28403   0.00000  Uiso   1.00
N200   N     0.49999   0.49999   0.04931   0.00000  Uiso   1.00
O201   O     0.50000   0.43989   0.20625   0.00000  Uiso   1.00
O202   O     0.50000   0.56011   0.12709   0.00000  Uiso   1.00
O203   O     0.50000   0.43988   0.12706   0.00000  Uiso   1.00
O204   O     0.50000   0.56012   0.20628   0.00000  Uiso   1.00
O205   O     0.42495   0.50000   0.19712   0.00000  Uiso   1.00
O206   O     0.57505   0.50000   0.13621   0.00000  Uiso   1.00
O207   O     0.42494   0.49999   0.11793   0.00000  Uiso   1.00
O208   O     0.57506   0.50001   0.21540   0.00000  Uiso   1.00
C209   C     0.65802   0.47279   0.10682   0.00000  Uiso   1.00
N210   N     0.64052   0.45562   0.07304   0.00000  Uiso   1.00
C211   C     0.34198   0.52721   0.22651   0.00000  Uiso   1.00
N212   N     0.35948   0.54438   0.26030   0.00000  Uiso   1.00
O213   O     0.43561   0.44877   0.04391   0.00000  Uiso   1.00
H214   H     0.41332   0.43181   0.02088   0.00000  Uiso   1.00
O215   O     0.56439   0.55123   0.28942   0.00000  Uiso   1.00
H216   H     0.58668   0.56819   0.31245   0.00000  Uiso   1.00
C217   C     0.43348   0.44684   0.27581   0.00000  Uiso   1.00
N218   N     0.40590   0.42470   0.25282   0.00000  Uiso   1.00
C219   C     0.56652   0.55316   0.05752   0.00000  Uiso   1.00
N220   N     0.59410   0.57530   0.08052   0.00000  Uiso   1.00
C221   C     0.83327   0.42073   0.16669   0.00000  Uiso   1.00
C222   C     0.83340   0.57927   0.16664   0.00000  Uiso   1.00
C223   C     0.73489   0.49941   0.15489   0.00000  Uiso   1.00
C224   C     0.93178   0.50059   0.17844   0.00000  Uiso   1.00
C225   C     0.68027   0.49435   0.14925   0.00000  Uiso   1.00
C226   C     0.98640   0.50565   0.18408   0.00000  Uiso   1.00
C227   C     0.83225   0.35475   0.12419   0.00000  Uiso   1.00
C228   C     0.83442   0.64525   0.20914   0.00000  Uiso   1.00
C229   C     0.83233   0.64550   0.12415   0.00000  Uiso   1.00
C230   C     0.83434   0.35450   0.20918   0.00000  Uiso   1.00
C231   C     0.83341   0.62391   0.16662   0.00000  Uiso   1.00
C232   C     0.83326   0.37609   0.16671   0.00000  Uiso   1.00
C233   C     0.80086   0.47423   0.02166   0.00000  Uiso   1.00
C234   C     0.86580   0.52577   0.31167   0.00000  Uiso   1.00
C235   C     0.80094   0.47425   0.30491   0.00000  Uiso   1.00
C236   C     0.86573   0.52575   0.02843   0.00000  Uiso   1.00
Cu237  Cu    0.83333   0.50001   0.21355   0.00000  Uiso   1.00
Cu238  Cu    0.83333   0.49999   0.11978   0.00000  Uiso   1.00
H239   H     0.83136   0.37085   0.09095   0.00000  Uiso   1.00
H240   H     0.83531   0.62915   0.24238   0.00000  Uiso   1.00
H241   H     0.83148   0.62960   0.09091   0.00000  Uiso   1.00
H242   H     0.83519   0.37040   0.24242   0.00000  Uiso   1.00
N243   N     0.83335   0.50001   0.28403   0.00000  Uiso   1.00
N244   N     0.83332   0.49999   0.04931   0.00000  Uiso   1.00
O245   O     0.83333   0.43989   0.20625   0.00000  Uiso   1.00
O246   O     0.83334   0.56011   0.12709   0.00000  Uiso   1.00
O247   O     0.83333   0.43988   0.12706   0.00000  Uiso   1.00
O248   O     0.83334   0.56012   0.20628   0.00000  Uiso   1.00
O249   O     0.75828   0.50000   0.19712   0.00000  Uiso   1.00
O250   O     0.90839   0.50000   0.13621   0.00000  Uiso   1.00
O251   O     0.75828   0.49999   0.11793   0.00000  Uiso   1.00
O252   O     0.90839   0.50001   0.21540   0.00000  Uiso   1.00
C253   C     0.99136   0.47279   0.10682   0.00000  Uiso   1.00
N254   N     0.97385   0.45562   0.07304   0.00000  Uiso   1.00
C255   C     0.67531   0.52721   0.22651   0.00000  Uiso   1.00
N256   N     0.69281   0.54438   0.26030   0.00000  Uiso   1.00
O257   O     0.76894   0.44877   0.04391   0.00000  Uiso   1.00
H258   H     0.74665   0.43181   0.02088   0.00000  Uiso   1.00
O259   O     0.89773   0.55123   0.28942   0.00000  Uiso   1.00
H260   H     0.92002   0.56819   0.31245   0.00000  Uiso   1.00
C261   C     0.76682   0.44684   0.27581   0.00000  Uiso   1.00
N262   N     0.73924   0.42470   0.25282   0.00000  Uiso   1.00
C263   C     0.89985   0.55316   0.05752   0.00000  Uiso   1.00
N264   N     0.92743   0.57530   0.08052   0.00000  Uiso   1.00
C265   C     0.16660   0.75407   0.16669   0.00000  Uiso   1.00
C266   C     0.16673   0.91260   0.16664   0.00000  Uiso   1.00
C267   C     0.06822   0.83274   0.15489   0.00000  Uiso   1.00
C268   C     0.26511   0.83393   0.17844   0.00000  Uiso   1.00
C269   C     0.01360   0.82769   0.14925   0.00000  Uiso   1.00
C270   C     0.31973   0.83898   0.18408   0.00000  Uiso   1.00
C271   C     0.16558   0.68808   0.12419   0.00000  Uiso   1.00
C272   C     0.16775   0.97858   0.20914   0.00000  Uiso   1.00
C273   C     0.16566   0.97883   0.12415   0.00000  Uiso   1.00
C274   C     0.16767   0.68783   0.20918   0.00000  Uiso   1.00
C275   C     0.16674   0.95724   0.16662   0.00000  Uiso   1.00
C276   C     0.16659   0.70943   0.16671   0.00000  Uiso   1.00
C277   C     0.13420   0.80756   0.02166   0.00000  Uiso   1.00
C278   C     0.19914   0.85910   0.31167   0.00000  Uiso   1.00
C279   C     0.13427   0.80759   0.30491   0.00000  Uiso   1.00
C280   C     0.19906   0.85908   0.02843   0.00000  Uiso   1.00
Cu281  Cu    0.16667   0.83334   0.21355   0.00000  Uiso   1.00
Cu282  Cu    0.16667   0.83333   0.11978   0.00000  Uiso   1.00
H283   H     0.16469   0.70418   0.09095   0.00000  Uiso   1.00
H284   H     0.16864   0.96248   0.24238   0.00000  Uiso   1.00
H285   H     0.16481   0.96293   0.09091   0.00000  Uiso   1.00
H286   H     0.16852   0.70374   0.24242   0.00000  Uiso   1.00
N287   N     0.16668   0.83334   0.28403   0.00000  Uiso   1.00
N288   N     0.16665   0.83332   0.04931   0.00000  Uiso   1.00
O289   O     0.16666   0.77322   0.20625   0.00000  Uiso   1.00
O290   O     0.16667   0.89345   0.12709   0.00000  Uiso   1.00
O291   O     0.16666   0.77321   0.12706   0.00000  Uiso   1.00
O292   O     0.16667   0.89346   0.20628   0.00000  Uiso   1.00
O293   O     0.09161   0.83334   0.19712   0.00000  Uiso   1.00
O294   O     0.24172   0.83333   0.13621   0.00000  Uiso   1.00
O295   O     0.09161   0.83333   0.11793   0.00000  Uiso   1.00
O296   O     0.24172   0.83334   0.21540   0.00000  Uiso   1.00
C297   C     0.32469   0.80612   0.10682   0.00000  Uiso   1.00
N298   N     0.30719   0.78896   0.07304   0.00000  Uiso   1.00
C299   C     0.00864   0.86054   0.22651   0.00000  Uiso   1.00
N300   N     0.02615   0.87771   0.26030   0.00000  Uiso   1.00
O301   O     0.10227   0.78211   0.04391   0.00000  Uiso   1.00
H302   H     0.07998   0.76514   0.02088   0.00000  Uiso   1.00
O303   O     0.23106   0.88456   0.28942   0.00000  Uiso   1.00
H304   H     0.25335   0.90153   0.31245   0.00000  Uiso   1.00
C305   C     0.10015   0.78017   0.27581   0.00000  Uiso   1.00
N306   N     0.07257   0.75803   0.25282   0.00000  Uiso   1.00
C307   C     0.23318   0.88650   0.05752   0.00000  Uiso   1.00
N308   N     0.26076   0.90863   0.08052   0.00000  Uiso   1.00
C309   C     0.49993   0.75407   0.16669   0.00000  Uiso   1.00
C310   C     0.50007   0.91260   0.16664   0.00000  Uiso   1.00
C311   C     0.40155   0.83274   0.15489   0.00000  Uiso   1.00
C312   C     0.59845   0.83393   0.17844   0.00000  Uiso   1.00
C313   C     0.34694   0.82769   0.14925   0.00000  Uiso   1.00
C314   C     0.65306   0.83898   0.18408   0.00000  Uiso   1.00
C315   C     0.49891   0.68808   0.12419   0.00000  Uiso   1.00
C316   C     0.50109   0.97858   0.20914   0.00000  Uiso   1.00
C317   C     0.49899   0.97883   0.12415   0.00000  Uiso   1.00
C318   C     0.50101   0.68783   0.20918   0.00000  Uiso   1.00
C319   C     0.50007   0.95724   0.16662   0.00000  Uiso   1.00
C320   C     0.49993   0.70943   0.16671   0.00000  Uiso   1.00
C321   C     0.46753   0.80756   0.02166   0.00000  Uiso   1.00
C322   C     0.53247   0.85910   0.31167   0.00000  Uiso   1.00
C323   C     0.46760   0.80759   0.30491   0.00000  Uiso   1.00
C324   C     0.53240   0.85908   0.02843   0.00000  Uiso   1.00
Cu325  Cu    0.50000   0.83334   0.21355   0.00000  Uiso   1.00
Cu326  Cu    0.50000   0.83333   0.11978   0.00000  Uiso   1.00
H327   H     0.49803   0.70418   0.09095   0.00000  Uiso   1.00
H328   H     0.50197   0.96248   0.24238   0.00000  Uiso   1.00
H329   H     0.49815   0.96293   0.09091   0.00000  Uiso   1.00
H330   H     0.50185   0.70374   0.24242   0.00000  Uiso   1.00
N331   N     0.50001   0.83334   0.28403   0.00000  Uiso   1.00
N332   N     0.49999   0.83332   0.04931   0.00000  Uiso   1.00
O333   O     0.50000   0.77322   0.20625   0.00000  Uiso   1.00
O334   O     0.50000   0.89345   0.12709   0.00000  Uiso   1.00
O335   O     0.50000   0.77321   0.12706   0.00000  Uiso   1.00
O336   O     0.50000   0.89346   0.20628   0.00000  Uiso   1.00
O337   O     0.42495   0.83334   0.19712   0.00000  Uiso   1.00
O338   O     0.57505   0.83333   0.13621   0.00000  Uiso   1.00
O339   O     0.42494   0.83333   0.11793   0.00000  Uiso   1.00
O340   O     0.57506   0.83334   0.21540   0.00000  Uiso   1.00
C341   C     0.65802   0.80612   0.10682   0.00000  Uiso   1.00
N342   N     0.64052   0.78896   0.07304   0.00000  Uiso   1.00
C343   C     0.34198   0.86054   0.22651   0.00000  Uiso   1.00
N344   N     0.35948   0.87771   0.26030   0.00000  Uiso   1.00
O345   O     0.43561   0.78211   0.04391   0.00000  Uiso   1.00
H346   H     0.41332   0.76514   0.02088   0.00000  Uiso   1.00
O347   O     0.56439   0.88456   0.28942   0.00000  Uiso   1.00
H348   H     0.58668   0.90153   0.31245   0.00000  Uiso   1.00
C349   C     0.43348   0.78017   0.27581   0.00000  Uiso   1.00
N350   N     0.40590   0.75803   0.25282   0.00000  Uiso   1.00
C351   C     0.56652   0.88650   0.05752   0.00000  Uiso   1.00
N352   N     0.59410   0.90863   0.08052   0.00000  Uiso   1.00
C353   C     0.83327   0.75407   0.16669   0.00000  Uiso   1.00
C354   C     0.83340   0.91260   0.16664   0.00000  Uiso   1.00
C355   C     0.73489   0.83274   0.15489   0.00000  Uiso   1.00
C356   C     0.93178   0.83393   0.17844   0.00000  Uiso   1.00
C357   C     0.68027   0.82769   0.14925   0.00000  Uiso   1.00
C358   C     0.98640   0.83898   0.18408   0.00000  Uiso   1.00
C359   C     0.83225   0.68808   0.12419   0.00000  Uiso   1.00
C360   C     0.83442   0.97858   0.20914   0.00000  Uiso   1.00
C361   C     0.83233   0.97883   0.12415   0.00000  Uiso   1.00
C362   C     0.83434   0.68783   0.20918   0.00000  Uiso   1.00
C363   C     0.83341   0.95724   0.16662   0.00000  Uiso   1.00
C364   C     0.83326   0.70943   0.16671   0.00000  Uiso   1.00
C365   C     0.80086   0.80756   0.02166   0.00000  Uiso   1.00
C366   C     0.86580   0.85910   0.31167   0.00000  Uiso   1.00
C367   C     0.80094   0.80759   0.30491   0.00000  Uiso   1.00
C368   C     0.86573   0.85908   0.02843   0.00000  Uiso   1.00
Cu369  Cu    0.83333   0.83334   0.21355   0.00000  Uiso   1.00
Cu370  Cu    0.83333   0.83333   0.11978   0.00000  Uiso   1.00
H371   H     0.83136   0.70418   0.09095   0.00000  Uiso   1.00
H372   H     0.83531   0.96248   0.24238   0.00000  Uiso   1.00
H373   H     0.83148   0.96293   0.09091   0.00000  Uiso   1.00
H374   H     0.83519   0.70374   0.24242   0.00000  Uiso   1.00
N375   N     0.83335   0.83334   0.28403   0.00000  Uiso   1.00
N376   N     0.83332   0.83332   0.04931   0.00000  Uiso   1.00
O377   O     0.83333   0.77322   0.20625   0.00000  Uiso   1.00
O378   O     0.83334   0.89345   0.12709   0.00000  Uiso   1.00
O379   O     0.83333   0.77321   0.12706   0.00000  Uiso   1.00
O380   O     0.83334   0.89346   0.20628   0.00000  Uiso   1.00
O381   O     0.75828   0.83334   0.19712   0.00000  Uiso   1.00
O382   O     0.90839   0.83333   0.13621   0.00000  Uiso   1.00
O383   O     0.75828   0.83333   0.11793   0.00000  Uiso   1.00
O384   O     0.90839   0.83334   0.21540   0.00000  Uiso   1.00
C385   C     0.99136   0.80612   0.10682   0.00000  Uiso   1.00
N386   N     0.97385   0.78896   0.07304   0.00000  Uiso   1.00
C387   C     0.67531   0.86054   0.22651   0.00000  Uiso   1.00
N388   N     0.69281   0.87771   0.26030   0.00000  Uiso   1.00
O389   O     0.76894   0.78211   0.04391   0.00000  Uiso   1.00
H390   H     0.74665   0.76514   0.02088   0.00000  Uiso   1.00
O391   O     0.89773   0.88456   0.28942   0.00000  Uiso   1.00
H392   H     0.92002   0.90153   0.31245   0.00000  Uiso   1.00
C393   C     0.76682   0.78017   0.27581   0.00000  Uiso   1.00
N394   N     0.73924   0.75803   0.25282   0.00000  Uiso   1.00
C395   C     0.89985   0.88650   0.05752   0.00000  Uiso   1.00
N396   N     0.92743   0.90863   0.08052   0.00000  Uiso   1.00
C397   C     0.16660   0.08740   0.50003   0.00000  Uiso   1.00
C398   C     0.16673   0.24593   0.49997   0.00000  Uiso   1.00
C399   C     0.06822   0.16607   0.48822   0.00000  Uiso   1.00
C400   C     0.26511   0.16726   0.51178   0.00000  Uiso   1.00
C401   C     0.01360   0.16102   0.48258   0.00000  Uiso   1.00
C402   C     0.31973   0.17231   0.51742   0.00000  Uiso   1.00
C403   C     0.16558   0.02142   0.45752   0.00000  Uiso   1.00
C404   C     0.16775   0.31192   0.54248   0.00000  Uiso   1.00
C405   C     0.16566   0.31217   0.45748   0.00000  Uiso   1.00
C406   C     0.16767   0.02117   0.54252   0.00000  Uiso   1.00
C407   C     0.16674   0.29057   0.49996   0.00000  Uiso   1.00
C408   C     0.16659   0.04276   0.50004   0.00000  Uiso   1.00
C409   C     0.13420   0.14090   0.35499   0.00000  Uiso   1.00
C410   C     0.19914   0.19244   0.64501   0.00000  Uiso   1.00
C411   C     0.13427   0.14092   0.63824   0.00000  Uiso   1.00
C412   C     0.19906   0.19241   0.36176   0.00000  Uiso   1.00
Cu413  Cu    0.16667   0.16667   0.54689   0.00000  Uiso   1.00
Cu414  Cu    0.16667   0.16666   0.45311   0.00000  Uiso   1.00
H415   H     0.16469   0.03752   0.42429   0.00000  Uiso   1.00
H416   H     0.16864   0.29582   0.57571   0.00000  Uiso   1.00
H417   H     0.16481   0.29626   0.42424   0.00000  Uiso   1.00
H418   H     0.16852   0.03707   0.57576   0.00000  Uiso   1.00
N419   N     0.16668   0.16668   0.61736   0.00000  Uiso   1.00
N420   N     0.16665   0.16666   0.38264   0.00000  Uiso   1.00
O421   O     0.16666   0.10655   0.53958   0.00000  Uiso   1.00
O422   O     0.16667   0.22678   0.46042   0.00000  Uiso   1.00
O423   O     0.16666   0.10654   0.46039   0.00000  Uiso   1.00
O424   O     0.16667   0.22679   0.53961   0.00000  Uiso   1.00
O425   O     0.09161   0.16667   0.53046   0.00000  Uiso   1.00
O426   O     0.24172   0.16666   0.46954   0.00000  Uiso   1.00
O427   O     0.09161   0.16666   0.45127   0.00000  Uiso   1.00
O428   O     0.24172   0.16667   0.54873   0.00000  Uiso   1.00
C429   C     0.32469   0.13945   0.44015   0.00000  Uiso   1.00
N430   N     0.30719   0.12229   0.40637   0.00000  Uiso   1.00
C431   C     0.00864   0.19388   0.55985   0.00000  Uiso   1.00
N432   N     0.02615   0.21104   0.59363   0.00000  Uiso   1.00
O433   O     0.10227   0.11544   0.37724   0.00000  Uiso   1.00
H434   H     0.07998   0.09847   0.35422   0.00000  Uiso   1.00
O435   O     0.23106   0.21789   0.62276   0.00000  Uiso   1.00
H436   H     0.25335   0.23486   0.64578   0.00000  Uiso   1.00
C437   C     0.10015   0.11350   0.60914   0.00000  Uiso   1.00
N438   N     0.07257   0.09137   0.58615   0.00000  Uiso   1.00
C439   C     0.23318   0.21983   0.39086   0.00000  Uiso   1.00
N440   N     0.26076   0.24197   0.41385   0.00000  Uiso   1.00
C441   C     0.49993   0.08740   0.50003   0.00000  Uiso   1.00
C442   C     0.50007   0.24593   0.49997   0.00000  Uiso   1.00
C443   C     0.40155   0.16607   0.48822   0.00000  Uiso   1.00
C444   C     0.59845   0.16726   0.51178   0.00000  Uiso   1.00
C445   C     0.34694   0.16102   0.48258   0.00000  Uiso   1.00
C446   C     0.65306   0.17231   0.51742   0.00000  Uiso   1.00
C447   C     0.49891   0.02142   0.45752   0.00000  Uiso   1.00
C448   C     0.50109   0.31192   0.54248   0.00000  Uiso   1.00
C449   C     0.49899   0.31217   0.45748   0.00000  Uiso   1.00
C450   C     0.50101   0.02117   0.54252   0.00000  Uiso   1.00
C451   C     0.50007   0.29057   0.49996   0.00000  Uiso   1.00
C452   C     0.49993   0.04276   0.50004   0.00000  Uiso   1.00
C453   C     0.46753   0.14090   0.35499   0.00000  Uiso   1.00
C454   C     0.53247   0.19244   0.64501   0.00000  Uiso   1.00
C455   C     0.46760   0.14092   0.63824   0.00000  Uiso   1.00
C456   C     0.53240   0.19241   0.36176   0.00000  Uiso   1.00
Cu457  Cu    0.50000   0.16667   0.54689   0.00000  Uiso   1.00
Cu458  Cu    0.50000   0.16666   0.45311   0.00000  Uiso   1.00
H459   H     0.49803   0.03752   0.42429   0.00000  Uiso   1.00
H460   H     0.50197   0.29582   0.57571   0.00000  Uiso   1.00
H461   H     0.49815   0.29626   0.42424   0.00000  Uiso   1.00
H462   H     0.50185   0.03707   0.57576   0.00000  Uiso   1.00
N463   N     0.50001   0.16668   0.61736   0.00000  Uiso   1.00
N464   N     0.49999   0.16666   0.38264   0.00000  Uiso   1.00
O465   O     0.50000   0.10655   0.53958   0.00000  Uiso   1.00
O466   O     0.50000   0.22678   0.46042   0.00000  Uiso   1.00
O467   O     0.50000   0.10654   0.46039   0.00000  Uiso   1.00
O468   O     0.50000   0.22679   0.53961   0.00000  Uiso   1.00
O469   O     0.42495   0.16667   0.53046   0.00000  Uiso   1.00
O470   O     0.57505   0.16666   0.46954   0.00000  Uiso   1.00
O471   O     0.42494   0.16666   0.45127   0.00000  Uiso   1.00
O472   O     0.57506   0.16667   0.54873   0.00000  Uiso   1.00
C473   C     0.65802   0.13945   0.44015   0.00000  Uiso   1.00
N474   N     0.64052   0.12229   0.40637   0.00000  Uiso   1.00
C475   C     0.34198   0.19388   0.55985   0.00000  Uiso   1.00
N476   N     0.35948   0.21104   0.59363   0.00000  Uiso   1.00
O477   O     0.43561   0.11544   0.37724   0.00000  Uiso   1.00
H478   H     0.41332   0.09847   0.35422   0.00000  Uiso   1.00
O479   O     0.56439   0.21789   0.62276   0.00000  Uiso   1.00
H480   H     0.58668   0.23486   0.64578   0.00000  Uiso   1.00
C481   C     0.43348   0.11350   0.60914   0.00000  Uiso   1.00
N482   N     0.40590   0.09137   0.58615   0.00000  Uiso   1.00
C483   C     0.56652   0.21983   0.39086   0.00000  Uiso   1.00
N484   N     0.59410   0.24197   0.41385   0.00000  Uiso   1.00
C485   C     0.83327   0.08740   0.50003   0.00000  Uiso   1.00
C486   C     0.83340   0.24593   0.49997   0.00000  Uiso   1.00
C487   C     0.73489   0.16607   0.48822   0.00000  Uiso   1.00
C488   C     0.93178   0.16726   0.51178   0.00000  Uiso   1.00
C489   C     0.68027   0.16102   0.48258   0.00000  Uiso   1.00
C490   C     0.98640   0.17231   0.51742   0.00000  Uiso   1.00
C491   C     0.83225   0.02142   0.45752   0.00000  Uiso   1.00
C492   C     0.83442   0.31192   0.54248   0.00000  Uiso   1.00
C493   C     0.83233   0.31217   0.45748   0.00000  Uiso   1.00
C494   C     0.83434   0.02117   0.54252   0.00000  Uiso   1.00
C495   C     0.83341   0.29057   0.49996   0.00000  Uiso   1.00
C496   C     0.83326   0.04276   0.50004   0.00000  Uiso   1.00
C497   C     0.80086   0.14090   0.35499   0.00000  Uiso   1.00
C498   C     0.86580   0.19244   0.64501   0.00000  Uiso   1.00
C499   C     0.80094   0.14092   0.63824   0.00000  Uiso   1.00
C500   C     0.86573   0.19241   0.36176   0.00000  Uiso   1.00
Cu501  Cu    0.83333   0.16667   0.54689   0.00000  Uiso   1.00
Cu502  Cu    0.83333   0.16666   0.45311   0.00000  Uiso   1.00
H503   H     0.83136   0.03752   0.42429   0.00000  Uiso   1.00
H504   H     0.83531   0.29582   0.57571   0.00000  Uiso   1.00
H505   H     0.83148   0.29626   0.42424   0.00000  Uiso   1.00
H506   H     0.83519   0.03707   0.57576   0.00000  Uiso   1.00
N507   N     0.83335   0.16668   0.61736   0.00000  Uiso   1.00
N508   N     0.83332   0.16666   0.38264   0.00000  Uiso   1.00
O509   O     0.83333   0.10655   0.53958   0.00000  Uiso   1.00
O510   O     0.83334   0.22678   0.46042   0.00000  Uiso   1.00
O511   O     0.83333   0.10654   0.46039   0.00000  Uiso   1.00
O512   O     0.83334   0.22679   0.53961   0.00000  Uiso   1.00
O513   O     0.75828   0.16667   0.53046   0.00000  Uiso   1.00
O514   O     0.90839   0.16666   0.46954   0.00000  Uiso   1.00
O515   O     0.75828   0.16666   0.45127   0.00000  Uiso   1.00
O516   O     0.90839   0.16667   0.54873   0.00000  Uiso   1.00
C517   C     0.99136   0.13945   0.44015   0.00000  Uiso   1.00
N518   N     0.97385   0.12229   0.40637   0.00000  Uiso   1.00
C519   C     0.67531   0.19388   0.55985   0.00000  Uiso   1.00
N520   N     0.69281   0.21104   0.59363   0.00000  Uiso   1.00
O521   O     0.76894   0.11544   0.37724   0.00000  Uiso   1.00
H522   H     0.74665   0.09847   0.35422   0.00000  Uiso   1.00
O523   O     0.89773   0.21789   0.62276   0.00000  Uiso   1.00
H524   H     0.92002   0.23486   0.64578   0.00000  Uiso   1.00
C525   C     0.76682   0.11350   0.60914   0.00000  Uiso   1.00
N526   N     0.73924   0.09137   0.58615   0.00000  Uiso   1.00
C527   C     0.89985   0.21983   0.39086   0.00000  Uiso   1.00
N528   N     0.92743   0.24197   0.41385   0.00000  Uiso   1.00
C529   C     0.16660   0.42073   0.50003   0.00000  Uiso   1.00
C530   C     0.16673   0.57927   0.49997   0.00000  Uiso   1.00
C531   C     0.06822   0.49941   0.48822   0.00000  Uiso   1.00
C532   C     0.26511   0.50059   0.51178   0.00000  Uiso   1.00
C533   C     0.01360   0.49435   0.48258   0.00000  Uiso   1.00
C534   C     0.31973   0.50565   0.51742   0.00000  Uiso   1.00
C535   C     0.16558   0.35475   0.45752   0.00000  Uiso   1.00
C536   C     0.16775   0.64525   0.54248   0.00000  Uiso   1.00
C537   C     0.16566   0.64550   0.45748   0.00000  Uiso   1.00
C538   C     0.16767   0.35450   0.54252   0.00000  Uiso   1.00
C539   C     0.16674   0.62391   0.49996   0.00000  Uiso   1.00
C540   C     0.16659   0.37609   0.50004   0.00000  Uiso   1.00
C541   C     0.13420   0.47423   0.35499   0.00000  Uiso   1.00
C542   C     0.19914   0.52577   0.64501   0.00000  Uiso   1.00
C543   C     0.13427   0.47425   0.63824   0.00000  Uiso   1.00
C544   C     0.19906   0.52575   0.36176   0.00000  Uiso   1.00
Cu545  Cu    0.16667   0.50001   0.54689   0.00000  Uiso   1.00
Cu546  Cu    0.16667   0.49999   0.45311   0.00000  Uiso   1.00
H547   H     0.16469   0.37085   0.42429   0.00000  Uiso   1.00
H548   H     0.16864   0.62915   0.57571   0.00000  Uiso   1.00
H549   H     0.16481   0.62960   0.42424   0.00000  Uiso   1.00
H550   H     0.16852   0.37040   0.57576   0.00000  Uiso   1.00
N551   N     0.16668   0.50001   0.61736   0.00000  Uiso   1.00
N552   N     0.16665   0.49999   0.38264   0.00000  Uiso   1.00
O553   O     0.16666   0.43989   0.53958   0.00000  Uiso   1.00
O554   O     0.16667   0.56011   0.46042   0.00000  Uiso   1.00
O555   O     0.16666   0.43988   0.46039   0.00000  Uiso   1.00
O556   O     0.16667   0.56012   0.53961   0.00000  Uiso   1.00
O557   O     0.09161   0.50000   0.53046   0.00000  Uiso   1.00
O558   O     0.24172   0.50000   0.46954   0.00000  Uiso   1.00
O559   O     0.09161   0.49999   0.45127   0.00000  Uiso   1.00
O560   O     0.24172   0.50001   0.54873   0.00000  Uiso   1.00
C561   C     0.32469   0.47279   0.44015   0.00000  Uiso   1.00
N562   N     0.30719   0.45562   0.40637   0.00000  Uiso   1.00
C563   C     0.00864   0.52721   0.55985   0.00000  Uiso   1.00
N564   N     0.02615   0.54438   0.59363   0.00000  Uiso   1.00
O565   O     0.10227   0.44877   0.37724   0.00000  Uiso   1.00
H566   H     0.07998   0.43181   0.35422   0.00000  Uiso   1.00
O567   O     0.23106   0.55123   0.62276   0.00000  Uiso   1.00
H568   H     0.25335   0.56819   0.64578   0.00000  Uiso   1.00
C569   C     0.10015   0.44684   0.60914   0.00000  Uiso   1.00
N570   N     0.07257   0.42470   0.58615   0.00000  Uiso   1.00
C571   C     0.23318   0.55316   0.39086   0.00000  Uiso   1.00
N572   N     0.26076   0.57530   0.41385   0.00000  Uiso   1.00
C573   C     0.49993   0.42073   0.50003   0.00000  Uiso   1.00
C574   C     0.50007   0.57927   0.49997   0.00000  Uiso   1.00
C575   C     0.40155   0.49941   0.48822   0.00000  Uiso   1.00
C576   C     0.59845   0.50059   0.51178   0.00000  Uiso   1.00
C577   C     0.34694   0.49435   0.48258   0.00000  Uiso   1.00
C578   C     0.65306   0.50565   0.51742   0.00000  Uiso   1.00
C579   C     0.49891   0.35475   0.45752   0.00000  Uiso   1.00
C580   C     0.50109   0.64525   0.54248   0.00000  Uiso   1.00
C581   C     0.49899   0.64550   0.45748   0.00000  Uiso   1.00
C582   C     0.50101   0.35450   0.54252   0.00000  Uiso   1.00
C583   C     0.50007   0.62391   0.49996   0.00000  Uiso   1.00
C584   C     0.49993   0.37609   0.50004   0.00000  Uiso   1.00
C585   C     0.46753   0.47423   0.35499   0.00000  Uiso   1.00
C586   C     0.53247   0.52577   0.64501   0.00000  Uiso   1.00
C587   C     0.46760   0.47425   0.63824   0.00000  Uiso   1.00
C588   C     0.53240   0.52575   0.36176   0.00000  Uiso   1.00
Cu589  Cu    0.50000   0.50001   0.54689   0.00000  Uiso   1.00
Cu590  Cu    0.50000   0.49999   0.45311   0.00000  Uiso   1.00
H591   H     0.49803   0.37085   0.42429   0.00000  Uiso   1.00
H592   H     0.50197   0.62915   0.57571   0.00000  Uiso   1.00
H593   H     0.49815   0.62960   0.42424   0.00000  Uiso   1.00
H594   H     0.50185   0.37040   0.57576   0.00000  Uiso   1.00
N595   N     0.50001   0.50001   0.61736   0.00000  Uiso   1.00
N596   N     0.49999   0.49999   0.38264   0.00000  Uiso   1.00
O597   O     0.50000   0.43989   0.53958   0.00000  Uiso   1.00
O598   O     0.50000   0.56011   0.46042   0.00000  Uiso   1.00
O599   O     0.50000   0.43988   0.46039   0.00000  Uiso   1.00
O600   O     0.50000   0.56012   0.53961   0.00000  Uiso   1.00
O601   O     0.42495   0.50000   0.53046   0.00000  Uiso   1.00
O602   O     0.57505   0.50000   0.46954   0.00000  Uiso   1.00
O603   O     0.42494   0.49999   0.45127   0.00000  Uiso   1.00
O604   O     0.57506   0.50001   0.54873   0.00000  Uiso   1.00
C605   C     0.65802   0.47279   0.44015   0.00000  Uiso   1.00
N606   N     0.64052   0.45562   0.40637   0.00000  Uiso   1.00
C607   C     0.34198   0.52721   0.55985   0.00000  Uiso   1.00
N608   N     0.35948   0.54438   0.59363   0.00000  Uiso   1.00
O609   O     0.43561   0.44877   0.37724   0.00000  Uiso   1.00
H610   H     0.41332   0.43181   0.35422   0.00000  Uiso   1.00
O611   O     0.56439   0.55123   0.62276   0.00000  Uiso   1.00
H612   H     0.58668   0.56819   0.64578   0.00000  Uiso   1.00
C613   C     0.43348   0.44684   0.60914   0.00000  Uiso   1.00
N614   N     0.40590   0.42470   0.58615   0.00000  Uiso   1.00
C615   C     0.56652   0.55316   0.39086   0.00000  Uiso   1.00
N616   N     0.59410   0.57530   0.41385   0.00000  Uiso   1.00
C617   C     0.83327   0.42073   0.50003   0.00000  Uiso   1.00
C618   C     0.83340   0.57927   0.49997   0.00000  Uiso   1.00
C619   C     0.73489   0.49941   0.48822   0.00000  Uiso   1.00
C620   C     0.93178   0.50059   0.51178   0.00000  Uiso   1.00
C621   C     0.68027   0.49435   0.48258   0.00000  Uiso   1.00
C622   C     0.98640   0.50565   0.51742   0.00000  Uiso   1.00
C623   C     0.83225   0.35475   0.45752   0.00000  Uiso   1.00
C624   C     0.83442   0.64525   0.54248   0.00000  Uiso   1.00
C625   C     0.83233   0.64550   0.45748   0.00000  Uiso   1.00
C626   C     0.83434   0.35450   0.54252   0.00000  Uiso   1.00
C627   C     0.83341   0.62391   0.49996   0.00000  Uiso   1.00
C628   C     0.83326   0.37609   0.50004   0.00000  Uiso   1.00
C629   C     0.80086   0.47423   0.35499   0.00000  Uiso   1.00
C630   C     0.86580   0.52577   0.64501   0.00000  Uiso   1.00
C631   C     0.80094   0.47425   0.63824   0.00000  Uiso   1.00
C632   C     0.86573   0.52575   0.36176   0.00000  Uiso   1.00
Cu633  Cu    0.83333   0.50001   0.54689   0.00000  Uiso   1.00
Cu634  Cu    0.83333   0.49999   0.45311   0.00000  Uiso   1.00
H635   H     0.83136   0.37085   0.42429   0.00000  Uiso   1.00
H636   H     0.83531   0.62915   0.57571   0.00000  Uiso   1.00
H637   H     0.83148   0.62960   0.42424   0.00000  Uiso   1.00
H638   H     0.83519   0.37040   0.57576   0.00000  Uiso   1.00
N639   N     0.83335   0.50001   0.61736   0.00000  Uiso   1.00
N640   N     0.83332   0.49999   0.38264   0.00000  Uiso   1.00
O641   O     0.83333   0.43989   0.53958   0.00000  Uiso   1.00
O642   O     0.83334   0.56011   0.46042   0.00000  Uiso   1.00
O643   O     0.83333   0.43988   0.46039   0.00000  Uiso   1.00
O644   O     0.83334   0.56012   0.53961   0.00000  Uiso   1.00
O645   O     0.75828   0.50000   0.53046   0.00000  Uiso   1.00
O646   O     0.90839   0.50000   0.46954   0.00000  Uiso   1.00
O647   O     0.75828   0.49999   0.45127   0.00000  Uiso   1.00
O648   O     0.90839   0.50001   0.54873   0.00000  Uiso   1.00
C649   C     0.99136   0.47279   0.44015   0.00000  Uiso   1.00
N650   N     0.97385   0.45562   0.40637   0.00000  Uiso   1.00
C651   C     0.67531   0.52721   0.55985   0.00000  Uiso   1.00
N652   N     0.69281   0.54438   0.59363   0.00000  Uiso   1.00
O653   O     0.76894   0.44877   0.37724   0.00000  Uiso   1.00
H654   H     0.74665   0.43181   0.35422   0.00000  Uiso   1.00
O655   O     0.89773   0.55123   0.62276   0.00000  Uiso   1.00
H656   H     0.92002   0.56819   0.64578   0.00000  Uiso   1.00
C657   C     0.76682   0.44684   0.60914   0.00000  Uiso   1.00
N658   N     0.73924   0.42470   0.58615   0.00000  Uiso   1.00
C659   C     0.89985   0.55316   0.39086   0.00000  Uiso   1.00
N660   N     0.92743   0.57530   0.41385   0.00000  Uiso   1.00
C661   C     0.16660   0.75407   0.50003   0.00000  Uiso   1.00
C662   C     0.16673   0.91260   0.49997   0.00000  Uiso   1.00
C663   C     0.06822   0.83274   0.48822   0.00000  Uiso   1.00
C664   C     0.26511   0.83393   0.51178   0.00000  Uiso   1.00
C665   C     0.01360   0.82769   0.48258   0.00000  Uiso   1.00
C666   C     0.31973   0.83898   0.51742   0.00000  Uiso   1.00
C667   C     0.16558   0.68808   0.45752   0.00000  Uiso   1.00
C668   C     0.16775   0.97858   0.54248   0.00000  Uiso   1.00
C669   C     0.16566   0.97883   0.45748   0.00000  Uiso   1.00
C670   C     0.16767   0.68783   0.54252   0.00000  Uiso   1.00
C671   C     0.16674   0.95724   0.49996   0.00000  Uiso   1.00
C672   C     0.16659   0.70943   0.50004   0.00000  Uiso   1.00
C673   C     0.13420   0.80756   0.35499   0.00000  Uiso   1.00
C674   C     0.19914   0.85910   0.64501   0.00000  Uiso   1.00
C675   C     0.13427   0.80759   0.63824   0.00000  Uiso   1.00
C676   C     0.19906   0.85908   0.36176   0.00000  Uiso   1.00
Cu677  Cu    0.16667   0.83334   0.54689   0.00000  Uiso   1.00
Cu678  Cu    0.16667   0.83333   0.45311   0.00000  Uiso   1.00
H679   H     0.16469   0.70418   0.42429   0.00000  Uiso   1.00
H680   H     0.16864   0.96248   0.57571   0.00000  Uiso   1.00
H681   H     0.16481   0.96293   0.42424   0.00000  Uiso   1.00
H682   H     0.16852   0.70374   0.57576   0.00000  Uiso   1.00
N683   N     0.16668   0.83334   0.61736   0.00000  Uiso   1.00
N684   N     0.16665   0.83332   0.38264   0.00000  Uiso   1.00
O685   O     0.16666   0.77322   0.53958   0.00000  Uiso   1.00
O686   O     0.16667   0.89345   0.46042   0.00000  Uiso   1.00
O687   O     0.16666   0.77321   0.46039   0.00000  Uiso   1.00
O688   O     0.16667   0.89346   0.53961   0.00000  Uiso   1.00
O689   O     0.09161   0.83334   0.53046   0.00000  Uiso   1.00
O690   O     0.24172   0.83333   0.46954   0.00000  Uiso   1.00
O691   O     0.09161   0.83333   0.45127   0.00000  Uiso   1.00
O692   O     0.24172   0.83334   0.54873   0.00000  Uiso   1.00
C693   C     0.32469   0.80612   0.44015   0.00000  Uiso   1.00
N694   N     0.30719   0.78896   0.40637   0.00000  Uiso   1.00
C695   C     0.00864   0.86054   0.55985   0.00000  Uiso   1.00
N696   N     0.02615   0.87771   0.59363   0.00000  Uiso   1.00
O697   O     0.10227   0.78211   0.37724   0.00000  Uiso   1.00
H698   H     0.07998   0.76514   0.35422   0.00000  Uiso   1.00
O699   O     0.23106   0.88456   0.62276   0.00000  Uiso   1.00
H700   H     0.25335   0.90153   0.64578   0.00000  Uiso   1.00
C701   C     0.10015   0.78017   0.60914   0.00000  Uiso   1.00
N702   N     0.07257   0.75803   0.58615   0.00000  Uiso   1.00
C703   C     0.23318   0.88650   0.39086   0.00000  Uiso   1.00
N704   N     0.26076   0.90863   0.41385   0.00000  Uiso   1.00
C705   C     0.49993   0.75407   0.50003   0.00000  Uiso   1.00
C706   C     0.50007   0.91260   0.49997   0.00000  Uiso   1.00
C707   C     0.40155   0.83274   0.48822   0.00000  Uiso   1.00
C708   C     0.59845   0.83393   0.51178   0.00000  Uiso   1.00
C709   C     0.34694   0.82769   0.48258   0.00000  Uiso   1.00
C710   C     0.65306   0.83898   0.51742   0.00000  Uiso   1.00
C711   C     0.49891   0.68808   0.45752   0.00000  Uiso   1.00
C712   C     0.50109   0.97858   0.54248   0.00000  Uiso   1.00
C713   C     0.49899   0.97883   0.45748   0.00000  Uiso   1.00
C714   C     0.50101   0.68783   0.54252   0.00000  Uiso   1.00
C715   C     0.50007   0.95724   0.49996   0.00000  Uiso   1.00
C716   C     0.49993   0.70943   0.50004   0.00000  Uiso   1.00
C717   C     0.46753   0.80756   0.35499   0.00000  Uiso   1.00
C718   C     0.53247   0.85910   0.64501   0.00000  Uiso   1.00
C719   C     0.46760   0.80759   0.63824   0.00000  Uiso   1.00
C720   C     0.53240   0.85908   0.36176   0.00000  Uiso   1.00
Cu721  Cu    0.50000   0.83334   0.54689   0.00000  Uiso   1.00
Cu722  Cu    0.50000   0.83333   0.45311   0.00000  Uiso   1.00
H723   H     0.49803   0.70418   0.42429   0.00000  Uiso   1.00
H724   H     0.50197   0.96248   0.57571   0.00000  Uiso   1.00
H725   H     0.49815   0.96293   0.42424   0.00000  Uiso   1.00
H726   H     0.50185   0.70374   0.57576   0.00000  Uiso   1.00
N727   N     0.50001   0.83334   0.61736   0.00000  Uiso   1.00
N728   N     0.49999   0.83332   0.38264   0.00000  Uiso   1.00
O729   O     0.50000   0.77322   0.53958   0.00000  Uiso   1.00
O730   O     0.50000   0.89345   0.46042   0.00000  Uiso   1.00
O731   O     0.50000   0.77321   0.46039   0.00000  Uiso   1.00
O732   O     0.50000   0.89346   0.53961   0.00000  Uiso   1.00
O733   O     0.42495   0.83334   0.53046   0.00000  Uiso   1.00
O734   O     0.57505   0.83333   0.46954   0.00000  Uiso   1.00
O735   O     0.42494   0.83333   0.45127   0.00000  Uiso   1.00
O736   O     0.57506   0.83334   0.54873   0.00000  Uiso   1.00
C737   C     0.65802   0.80612   0.44015   0.00000  Uiso   1.00
N738   N     0.64052   0.78896   0.40637   0.00000  Uiso   1.00
C739   C     0.34198   0.86054   0.55985   0.00000  Uiso   1.00
N740   N     0.35948   0.87771   0.59363   0.00000  Uiso   1.00
O741   O     0.43561   0.78211   0.37724   0.00000  Uiso   1.00
H742   H     0.41332   0.76514   0.35422   0.00000  Uiso   1.00
O743   O     0.56439   0.88456   0.62276   0.00000  Uiso   1.00
H744   H     0.58668   0.90153   0.64578   0.00000  Uiso   1.00
C745   C     0.43348   0.78017   0.60914   0.00000  Uiso   1.00
N746   N     0.40590   0.75803   0.58615   0.00000  Uiso   1.00
C747   C     0.56652   0.88650   0.39086   0.00000  Uiso   1.00
N748   N     0.59410   0.90863   0.41385   0.00000  Uiso   1.00
C749   C     0.83327   0.75407   0.50003   0.00000  Uiso   1.00
C750   C     0.83340   0.91260   0.49997   0.00000  Uiso   1.00
C751   C     0.73489   0.83274   0.48822   0.00000  Uiso   1.00
C752   C     0.93178   0.83393   0.51178   0.00000  Uiso   1.00
C753   C     0.68027   0.82769   0.48258   0.00000  Uiso   1.00
C754   C     0.98640   0.83898   0.51742   0.00000  Uiso   1.00
C755   C     0.83225   0.68808   0.45752   0.00000  Uiso   1.00
C756   C     0.83442   0.97858   0.54248   0.00000  Uiso   1.00
C757   C     0.83233   0.97883   0.45748   0.00000  Uiso   1.00
C758   C     0.83434   0.68783   0.54252   0.00000  Uiso   1.00
C759   C     0.83341   0.95724   0.49996   0.00000  Uiso   1.00
C760   C     0.83326   0.70943   0.50004   0.00000  Uiso   1.00
C761   C     0.80086   0.80756   0.35499   0.00000  Uiso   1.00
C762   C     0.86580   0.85910   0.64501   0.00000  Uiso   1.00
C763   C     0.80094   0.80759   0.63824   0.00000  Uiso   1.00
C764   C     0.86573   0.85908   0.36176   0.00000  Uiso   1.00
Cu765  Cu    0.83333   0.83334   0.54689   0.00000  Uiso   1.00
Cu766  Cu    0.83333   0.83333   0.45311   0.00000  Uiso   1.00
H767   H     0.83136   0.70418   0.42429   0.00000  Uiso   1.00
H768   H     0.83531   0.96248   0.57571   0.00000  Uiso   1.00
H769   H     0.83148   0.96293   0.42424   0.00000  Uiso   1.00
H770   H     0.83519   0.70374   0.57576   0.00000  Uiso   1.00
N771   N     0.83335   0.83334   0.61736   0.00000  Uiso   1.00
N772   N     0.83332   0.83332   0.38264   0.00000  Uiso   1.00
O773   O     0.83333   0.77322   0.53958   0.00000  Uiso   1.00
O774   O     0.83334   0.89345   0.46042   0.00000  Uiso   1.00
O775   O     0.83333   0.77321   0.46039   0.00000  Uiso   1.00
O776   O     0.83334   0.89346   0.53961   0.00000  Uiso   1.00
O777   O     0.75828   0.83334   0.53046   0.00000  Uiso   1.00
O778   O     0.90839   0.83333   0.46954   0.00000  Uiso   1.00
O779   O     0.75828   0.83333   0.45127   0.00000  Uiso   1.00
O780   O     0.90839   0.83334   0.54873   0.00000  Uiso   1.00
C781   C     0.99136   0.80612   0.44015   0.00000  Uiso   1.00
N782   N     0.97385   0.78896   0.40637   0.00000  Uiso   1.00
C783   C     0.67531   0.86054   0.55985   0.00000  Uiso   1.00
N784   N     0.69281   0.87771   0.59363   0.00000  Uiso   1.00
O785   O     0.76894   0.78211   0.37724   0.00000  Uiso   1.00
H786   H     0.74665   0.76514   0.35422   0.00000  Uiso   1.00
O787   O     0.89773   0.88456   0.62276   0.00000  Uiso   1.00
H788   H     0.92002   0.90153   0.64578   0.00000  Uiso   1.00
C789   C     0.76682   0.78017   0.60914   0.00000  Uiso   1.00
N790   N     0.73924   0.75803   0.58615   0.00000  Uiso   1.00
C791   C     0.89985   0.88650   0.39086   0.00000  Uiso   1.00
N792   N     0.92743   0.90863   0.41385   0.00000  Uiso   1.00
C793   C     0.16660   0.08740   0.83336   0.00000  Uiso   1.00
C794   C     0.16673   0.24593   0.83331   0.00000  Uiso   1.00
C795   C     0.06822   0.16607   0.82156   0.00000  Uiso   1.00
C796   C     0.26511   0.16726   0.84511   0.00000  Uiso   1.00
C797   C     0.01360   0.16102   0.81591   0.00000  Uiso   1.00
C798   C     0.31973   0.17231   0.85075   0.00000  Uiso   1.00
C799   C     0.16558   0.02142   0.79086   0.00000  Uiso   1.00
C800   C     0.16775   0.31192   0.87581   0.00000  Uiso   1.00
C801   C     0.16566   0.31217   0.79082   0.00000  Uiso   1.00
C802   C     0.16767   0.02117   0.87585   0.00000  Uiso   1.00
C803   C     0.16674   0.29057   0.83329   0.00000  Uiso   1.00
C804   C     0.16659   0.04276   0.83338   0.00000  Uiso   1.00
C805   C     0.13420   0.14090   0.68833   0.00000  Uiso   1.00
C806   C     0.19914   0.19244   0.97834   0.00000  Uiso   1.00
C807   C     0.13427   0.14092   0.97157   0.00000  Uiso   1.00
C808   C     0.19906   0.19241   0.69509   0.00000  Uiso   1.00
Cu809  Cu    0.16667   0.16667   0.88022   0.00000  Uiso   1.00
Cu810  Cu    0.16667   0.16666   0.78645   0.00000  Uiso   1.00
H811   H     0.16469   0.03752   0.75762   0.00000  Uiso   1.00
H812   H     0.16864   0.29582   0.90905   0.00000  Uiso   1.00
H813   H     0.16481   0.29626   0.75758   0.00000  Uiso   1.00
H814   H     0.16852   0.03707   0.90909   0.00000  Uiso   1.00
N815   N     0.16668   0.16668   0.95069   0.00000  Uiso   1.00
N816   N     0.16665   0.16666   0.71597   0.00000  Uiso   1.00
O817   O     0.16666   0.10655   0.87291   0.00000  Uiso   1.00
O818   O     0.16667   0.22678   0.79375   0.00000  Uiso   1.00
O819   O     0.16666   0.10654   0.79372   0.00000  Uiso   1.00
O820   O     0.16667   0.22679   0.87294   0.00000  Uiso   1.00
O821   O     0.09161   0.16667   0.86379   0.00000  Uiso   1.00
O822   O     0.24172   0.16666   0.80288   0.00000  Uiso   1.00
O823   O     0.09161   0.16666   0.78460   0.00000  Uiso   1.00
O824   O     0.24172   0.16667   0.88207   0.00000  Uiso   1.00
C825   C     0.32469   0.13945   0.77349   0.00000  Uiso   1.00
N826   N     0.30719   0.12229   0.73970   0.00000  Uiso   1.00
C827   C     0.00864   0.19388   0.89318   0.00000  Uiso   1.00
N828   N     0.02615   0.21104   0.92696   0.00000  Uiso   1.00
O829   O     0.10227   0.11544   0.71058   0.00000  Uiso   1.00
H830   H     0.07998   0.09847   0.68755   0.00000  Uiso   1.00
O831   O     0.23106   0.21789   0.95609   0.00000  Uiso   1.00
H832   H     0.25335   0.23486   0.97912   0.00000  Uiso   1.00
C833   C     0.10015   0.11350   0.94248   0.00000  Uiso   1.00
N834   N     0.07257   0.09137   0.91948   0.00000  Uiso   1.00
C835   C     0.23318   0.21983   0.72419   0.00000  Uiso   1.00
N836   N     0.26076   0.24197   0.74718   0.00000  Uiso   1.00
C837   C     0.49993   0.08740   0.83336   0.00000  Uiso   1.00
C838   C     0.50007   0.24593   0.83331   0.00000  Uiso   1.00
C839   C     0.40155   0.16607   0.82156   0.00000  Uiso   1.00
C840   C     0.59845   0.16726   0.84511   0.00000  Uiso   1.00
C841   C     0.34694   0.16102   0.81591   0.00000  Uiso   1.00
C842   C     0.65306   0.17231   0.85075   0.00000  Uiso   1.00
C843   C     0.49891   0.02142   0.79086   0.00000  Uiso   1.00
C844   C     0.50109   0.31192   0.87581   0.00000  Uiso   1.00
C845   C     0.49899   0.31217   0.79082   0.00000  Uiso   1.00
C846   C     0.50101   0.02117   0.87585   0.00000  Uiso   1.00
C847   C     0.50007   0.29057   0.83329   0.00000  Uiso   1.00
C848   C     0.49993   0.04276   0.83338   0.00000  Uiso   1.00
C849   C     0.46753   0.14090   0.68833   0.00000  Uiso   1.00
C850   C     0.53247   0.19244   0.97834   0.00000  Uiso   1.00
C851   C     0.46760   0.14092   0.97157   0.00000  Uiso   1.00
C852   C     0.53240   0.19241   0.69509   0.00000  Uiso   1.00
Cu853  Cu    0.50000   0.16667   0.88022   0.00000  Uiso   1.00
Cu854  Cu    0.50000   0.16666   0.78645   0.00000  Uiso   1.00
H855   H     0.49803   0.03752   0.75762   0.00000  Uiso   1.00
H856   H     0.50197   0.29582   0.90905   0.00000  Uiso   1.00
H857   H     0.49815   0.29626   0.75758   0.00000  Uiso   1.00
H858   H     0.50185   0.03707   0.90909   0.00000  Uiso   1.00
N859   N     0.50001   0.16668   0.95069   0.00000  Uiso   1.00
N860   N     0.49999   0.16666   0.71597   0.00000  Uiso   1.00
O861   O     0.50000   0.10655   0.87291   0.00000  Uiso   1.00
O862   O     0.50000   0.22678   0.79375   0.00000  Uiso   1.00
O863   O     0.50000   0.10654   0.79372   0.00000  Uiso   1.00
O864   O     0.50000   0.22679   0.87294   0.00000  Uiso   1.00
O865   O     0.42495   0.16667   0.86379   0.00000  Uiso   1.00
O866   O     0.57505   0.16666   0.80288   0.00000  Uiso   1.00
O867   O     0.42494   0.16666   0.78460   0.00000  Uiso   1.00
O868   O     0.57506   0.16667   0.88207   0.00000  Uiso   1.00
C869   C     0.65802   0.13945   0.77349   0.00000  Uiso   1.00
N870   N     0.64052   0.12229   0.73970   0.00000  Uiso   1.00
C871   C     0.34198   0.19388   0.89318   0.00000  Uiso   1.00
N872   N     0.35948   0.21104   0.92696   0.00000  Uiso   1.00
O873   O     0.43561   0.11544   0.71058   0.00000  Uiso   1.00
H874   H     0.41332   0.09847   0.68755   0.00000  Uiso   1.00
O875   O     0.56439   0.21789   0.95609   0.00000  Uiso   1.00
H876   H     0.58668   0.23486   0.97912   0.00000  Uiso   1.00
C877   C     0.43348   0.11350   0.94248   0.00000  Uiso   1.00
N878   N     0.40590   0.09137   0.91948   0.00000  Uiso   1.00
C879   C     0.56652   0.21983   0.72419   0.00000  Uiso   1.00
N880   N     0.59410   0.24197   0.74718   0.00000  Uiso   1.00
C881   C     0.83327   0.08740   0.83336   0.00000  Uiso   1.00
C882   C     0.83340   0.24593   0.83331   0.00000  Uiso   1.00
C883   C     0.73489   0.16607   0.82156   0.00000  Uiso   1.00
C884   C     0.93178   0.16726   0.84511   0.00000  Uiso   1.00
C885   C     0.68027   0.16102   0.81591   0.00000  Uiso   1.00
C886   C     0.98640   0.17231   0.85075   0.00000  Uiso   1.00
C887   C     0.83225   0.02142   0.79086   0.00000  Uiso   1.00
C888   C     0.83442   0.31192   0.87581   0.00000  Uiso   1.00
C889   C     0.83233   0.31217   0.79082   0.00000  Uiso   1.00
C890   C     0.83434   0.02117   0.87585   0.00000  Uiso   1.00
C891   C     0.83341   0.29057   0.83329   0.00000  Uiso   1.00
C892   C     0.83326   0.04276   0.83338   0.00000  Uiso   1.00
C893   C     0.80086   0.14090   0.68833   0.00000  Uiso   1.00
C894   C     0.86580   0.19244   0.97834   0.00000  Uiso   1.00
C895   C     0.80094   0.14092   0.97157   0.00000  Uiso   1.00
C896   C     0.86573   0.19241   0.69509   0.00000  Uiso   1.00
Cu897  Cu    0.83333   0.16667   0.88022   0.00000  Uiso   1.00
Cu898  Cu    0.83333   0.16666   0.78645   0.00000  Uiso   1.00
H899   H     0.83136   0.03752   0.75762   0.00000  Uiso   1.00
H900   H     0.83531   0.29582   0.90905   0.00000  Uiso   1.00
H901   H     0.83148   0.29626   0.75758   0.00000  Uiso   1.00
H902   H     0.83519   0.03707   0.90909   0.00000  Uiso   1.00
N903   N     0.83335   0.16668   0.95069   0.00000  Uiso   1.00
N904   N     0.83332   0.16666   0.71597   0.00000  Uiso   1.00
O905   O     0.83333   0.10655   0.87291   0.00000  Uiso   1.00
O906   O     0.83334   0.22678   0.79375   0.00000  Uiso   1.00
O907   O     0.83333   0.10654   0.79372   0.00000  Uiso   1.00
O908   O     0.83334   0.22679   0.87294   0.00000  Uiso   1.00
O909   O     0.75828   0.16667   0.86379   0.00000  Uiso   1.00
O910   O     0.90839   0.16666   0.80288   0.00000  Uiso   1.00
O911   O     0.75828   0.16666   0.78460   0.00000  Uiso   1.00
O912   O     0.90839   0.16667   0.88207   0.00000  Uiso   1.00
C913   C     0.99136   0.13945   0.77349   0.00000  Uiso   1.00
N914   N     0.97385   0.12229   0.73970   0.00000  Uiso   1.00
C915   C     0.67531   0.19388   0.89318   0.00000  Uiso   1.00
N916   N     0.69281   0.21104   0.92696   0.00000  Uiso   1.00
O917   O     0.76894   0.11544   0.71058   0.00000  Uiso   1.00
H918   H     0.74665   0.09847   0.68755   0.00000  Uiso   1.00
O919   O     0.89773   0.21789   0.95609   0.00000  Uiso   1.00
H920   H     0.92002   0.23486   0.97912   0.00000  Uiso   1.00
C921   C     0.76682   0.11350   0.94248   0.00000  Uiso   1.00
N922   N     0.73924   0.09137   0.91948   0.00000  Uiso   1.00
C923   C     0.89985   0.21983   0.72419   0.00000  Uiso   1.00
N924   N     0.92743   0.24197   0.74718   0.00000  Uiso   1.00
C925   C     0.16660   0.42073   0.83336   0.00000  Uiso   1.00
C926   C     0.16673   0.57927   0.83331   0.00000  Uiso   1.00
C927   C     0.06822   0.49941   0.82156   0.00000  Uiso   1.00
C928   C     0.26511   0.50059   0.84511   0.00000  Uiso   1.00
C929   C     0.01360   0.49435   0.81591   0.00000  Uiso   1.00
C930   C     0.31973   0.50565   0.85075   0.00000  Uiso   1.00
C931   C     0.16558   0.35475   0.79086   0.00000  Uiso   1.00
C932   C     0.16775   0.64525   0.87581   0.00000  Uiso   1.00
C933   C     0.16566   0.64550   0.79082   0.00000  Uiso   1.00
C934   C     0.16767   0.35450   0.87585   0.00000  Uiso   1.00
C935   C     0.16674   0.62391   0.83329   0.00000  Uiso   1.00
C936   C     0.16659   0.37609   0.83338   0.00000  Uiso   1.00
C937   C     0.13420   0.47423   0.68833   0.00000  Uiso   1.00
C938   C     0.19914   0.52577   0.97834   0.00000  Uiso   1.00
C939   C     0.13427   0.47425   0.97157   0.00000  Uiso   1.00
C940   C     0.19906   0.52575   0.69509   0.00000  Uiso   1.00
Cu941  Cu    0.16667   0.50001   0.88022   0.00000  Uiso   1.00
Cu942  Cu    0.16667   0.49999   0.78645   0.00000  Uiso   1.00
H943   H     0.16469   0.37085   0.75762   0.00000  Uiso   1.00
H944   H     0.16864   0.62915   0.90905   0.00000  Uiso   1.00
H945   H     0.16481   0.62960   0.75758   0.00000  Uiso   1.00
H946   H     0.16852   0.37040   0.90909   0.00000  Uiso   1.00
N947   N     0.16668   0.50001   0.95069   0.00000  Uiso   1.00
N948   N     0.16665   0.49999   0.71597   0.00000  Uiso   1.00
O949   O     0.16666   0.43989   0.87291   0.00000  Uiso   1.00
O950   O     0.16667   0.56011   0.79375   0.00000  Uiso   1.00
O951   O     0.16666   0.43988   0.79372   0.00000  Uiso   1.00
O952   O     0.16667   0.56012   0.87294   0.00000  Uiso   1.00
O953   O     0.09161   0.50000   0.86379   0.00000  Uiso   1.00
O954   O     0.24172   0.50000   0.80288   0.00000  Uiso   1.00
O955   O     0.09161   0.49999   0.78460   0.00000  Uiso   1.00
O956   O     0.24172   0.50001   0.88207   0.00000  Uiso   1.00
C957   C     0.32469   0.47279   0.77349   0.00000  Uiso   1.00
N958   N     0.30719   0.45562   0.73970   0.00000  Uiso   1.00
C959   C     0.00864   0.52721   0.89318   0.00000  Uiso   1.00
N960   N     0.02615   0.54438   0.92696   0.00000  Uiso   1.00
O961   O     0.10227   0.44877   0.71058   0.00000  Uiso   1.00
H962   H     0.07998   0.43181   0.68755   0.00000  Uiso   1.00
O963   O     0.23106   0.55123   0.95609   0.00000  Uiso   1.00
H964   H     0.25335   0.56819   0.97912   0.00000  Uiso   1.00
C965   C     0.10015   0.44684   0.94248   0.00000  Uiso   1.00
N966   N     0.07257   0.42470   0.91948   0.00000  Uiso   1.00
C967   C     0.23318   0.55316   0.72419   0.00000  Uiso   1.00
N968   N     0.26076   0.57530   0.74718   0.00000  Uiso   1.00
C969   C     0.49993   0.42073   0.83336   0.00000  Uiso   1.00
C970   C     0.50007   0.57927   0.83331   0.00000  Uiso   1.00
C971   C     0.40155   0.49941   0.82156   0.00000  Uiso   1.00
C972   C     0.59845   0.50059   0.84511   0.00000  Uiso   1.00
C973   C     0.34694   0.49435   0.81591   0.00000  Uiso   1.00
C974   C     0.65306   0.50565   0.85075   0.00000  Uiso   1.00
C975   C     0.49891   0.35475   0.79086   0.00000  Uiso   1.00
C976   C     0.50109   0.64525   0.87581   0.00000  Uiso   1.00
C977   C     0.49899   0.64550   0.79082   0.00000  Uiso   1.00
C978   C     0.50101   0.35450   0.87585   0.00000  Uiso   1.00
C979   C     0.50007   0.62391   0.83329   0.00000  Uiso   1.00
C980   C     0.49993   0.37609   0.83338   0.00000  Uiso   1.00
C981   C     0.46753   0.47423   0.68833   0.00000  Uiso   1.00
C982   C     0.53247   0.52577   0.97834   0.00000  Uiso   1.00
C983   C     0.46760   0.47425   0.97157   0.00000  Uiso   1.00
C984   C     0.53240   0.52575   0.69509   0.00000  Uiso   1.00
Cu985  Cu    0.50000   0.50001   0.88022   0.00000  Uiso   1.00
Cu986  Cu    0.50000   0.49999   0.78645   0.00000  Uiso   1.00
H987   H     0.49803   0.37085   0.75762   0.00000  Uiso   1.00
H988   H     0.50197   0.62915   0.90905   0.00000  Uiso   1.00
H989   H     0.49815   0.62960   0.75758   0.00000  Uiso   1.00
H990   H     0.50185   0.37040   0.90909   0.00000  Uiso   1.00
N991   N     0.50001   0.50001   0.95069   0.00000  Uiso   1.00
N992   N     0.49999   0.49999   0.71597   0.00000  Uiso   1.00
O993   O     0.50000   0.43989   0.87291   0.00000  Uiso   1.00
O994   O     0.50000   0.56011   0.79375   0.00000  Uiso   1.00
O995   O     0.50000   0.43988   0.79372   0.00000  Uiso   1.00
O996   O     0.50000   0.56012   0.87294   0.00000  Uiso   1.00
O997   O     0.42495   0.50000   0.86379   0.00000  Uiso   1.00
O998   O     0.57505   0.50000   0.80288   0.00000  Uiso   1.00
O999   O     0.42494   0.49999   0.78460   0.00000  Uiso   1.00
O1000  O     0.57506   0.50001   0.88207   0.00000  Uiso   1.00
C1001  C     0.65802   0.47279   0.77349   0.00000  Uiso   1.00
N1002  N     0.64052   0.45562   0.73970   0.00000  Uiso   1.00
C1003  C     0.34198   0.52721   0.89318   0.00000  Uiso   1.00
N1004  N     0.35948   0.54438   0.92696   0.00000  Uiso   1.00
O1005  O     0.43561   0.44877   0.71058   0.00000  Uiso   1.00
H1006  H     0.41332   0.43181   0.68755   0.00000  Uiso   1.00
O1007  O     0.56439   0.55123   0.95609   0.00000  Uiso   1.00
H1008  H     0.58668   0.56819   0.97912   0.00000  Uiso   1.00
C1009  C     0.43348   0.44684   0.94248   0.00000  Uiso   1.00
N1010  N     0.40590   0.42470   0.91948   0.00000  Uiso   1.00
C1011  C     0.56652   0.55316   0.72419   0.00000  Uiso   1.00
N1012  N     0.59410   0.57530   0.74718   0.00000  Uiso   1.00
C1013  C     0.83327   0.42073   0.83336   0.00000  Uiso   1.00
C1014  C     0.83340   0.57927   0.83331   0.00000  Uiso   1.00
C1015  C     0.73489   0.49941   0.82156   0.00000  Uiso   1.00
C1016  C     0.93178   0.50059   0.84511   0.00000  Uiso   1.00
C1017  C     0.68027   0.49435   0.81591   0.00000  Uiso   1.00
C1018  C     0.98640   0.50565   0.85075   0.00000  Uiso   1.00
C1019  C     0.83225   0.35475   0.79086   0.00000  Uiso   1.00
C1020  C     0.83442   0.64525   0.87581   0.00000  Uiso   1.00
C1021  C     0.83233   0.64550   0.79082   0.00000  Uiso   1.00
C1022  C     0.83434   0.35450   0.87585   0.00000  Uiso   1.00
C1023  C     0.83341   0.62391   0.83329   0.00000  Uiso   1.00
C1024  C     0.83326   0.37609   0.83338   0.00000  Uiso   1.00
C1025  C     0.80086   0.47423   0.68833   0.00000  Uiso   1.00
C1026  C     0.86580   0.52577   0.97834   0.00000  Uiso   1.00
C1027  C     0.80094   0.47425   0.97157   0.00000  Uiso   1.00
C1028  C     0.86573   0.52575   0.69509   0.00000  Uiso   1.00
Cu1029 Cu    0.83333   0.50001   0.88022   0.00000  Uiso   1.00
Cu1030 Cu    0.83333   0.49999   0.78645   0.00000  Uiso   1.00
H1031  H     0.83136   0.37085   0.75762   0.00000  Uiso   1.00
H1032  H     0.83531   0.62915   0.90905   0.00000  Uiso   1.00
H1033  H     0.83148   0.62960   0.75758   0.00000  Uiso   1.00
H1034  H     0.83519   0.37040   0.90909   0.00000  Uiso   1.00
N1035  N     0.83335   0.50001   0.95069   0.00000  Uiso   1.00
N1036  N     0.83332   0.49999   0.71597   0.00000  Uiso   1.00
O1037  O     0.83333   0.43989   0.87291   0.00000  Uiso   1.00
O1038  O     0.83334   0.56011   0.79375   0.00000  Uiso   1.00
O1039  O     0.83333   0.43988   0.79372   0.00000  Uiso   1.00
O1040  O     0.83334   0.56012   0.87294   0.00000  Uiso   1.00
O1041  O     0.75828   0.50000   0.86379   0.00000  Uiso   1.00
O1042  O     0.90839   0.50000   0.80288   0.00000  Uiso   1.00
O1043  O     0.75828   0.49999   0.78460   0.00000  Uiso   1.00
O1044  O     0.90839   0.50001   0.88207   0.00000  Uiso   1.00
C1045  C     0.99136   0.47279   0.77349   0.00000  Uiso   1.00
N1046  N     0.97385   0.45562   0.73970   0.00000  Uiso   1.00
C1047  C     0.67531   0.52721   0.89318   0.00000  Uiso   1.00
N1048  N     0.69281   0.54438   0.92696   0.00000  Uiso   1.00
O1049  O     0.76894   0.44877   0.71058   0.00000  Uiso   1.00
H1050  H     0.74665   0.43181   0.68755   0.00000  Uiso   1.00
O1051  O     0.89773   0.55123   0.95609   0.00000  Uiso   1.00
H1052  H     0.92002   0.56819   0.97912   0.00000  Uiso   1.00
C1053  C     0.76682   0.44684   0.94248   0.00000  Uiso   1.00
N1054  N     0.73924   0.42470   0.91948   0.00000  Uiso   1.00
C1055  C     0.89985   0.55316   0.72419   0.00000  Uiso   1.00
N1056  N     0.92743   0.57530   0.74718   0.00000  Uiso   1.00
C1057  C     0.16660   0.75407   0.83336   0.00000  Uiso   1.00
C1058  C     0.16673   0.91260   0.83331   0.00000  Uiso   1.00
C1059  C     0.06822   0.83274   0.82156   0.00000  Uiso   1.00
C1060  C     0.26511   0.83393   0.84511   0.00000  Uiso   1.00
C1061  C     0.01360   0.82769   0.81591   0.00000  Uiso   1.00
C1062  C     0.31973   0.83898   0.85075   0.00000  Uiso   1.00
C1063  C     0.16558   0.68808   0.79086   0.00000  Uiso   1.00
C1064  C     0.16775   0.97858   0.87581   0.00000  Uiso   1.00
C1065  C     0.16566   0.97883   0.79082   0.00000  Uiso   1.00
C1066  C     0.16767   0.68783   0.87585   0.00000  Uiso   1.00
C1067  C     0.16674   0.95724   0.83329   0.00000  Uiso   1.00
C1068  C     0.16659   0.70943   0.83338   0.00000  Uiso   1.00
C1069  C     0.13420   0.80756   0.68833   0.00000  Uiso   1.00
C1070  C     0.19914   0.85910   0.97834   0.00000  Uiso   1.00
C1071  C     0.13427   0.80759   0.97157   0.00000  Uiso   1.00
C1072  C     0.19906   0.85908   0.69509   0.00000  Uiso   1.00
Cu1073 Cu    0.16667   0.83334   0.88022   0.00000  Uiso   1.00
Cu1074 Cu    0.16667   0.83333   0.78645   0.00000  Uiso   1.00
H1075  H     0.16469   0.70418   0.75762   0.00000  Uiso   1.00
H1076  H     0.16864   0.96248   0.90905   0.00000  Uiso   1.00
H1077  H     0.16481   0.96293   0.75758   0.00000  Uiso   1.00
H1078  H     0.16852   0.70374   0.90909   0.00000  Uiso   1.00
N1079  N     0.16668   0.83334   0.95069   0.00000  Uiso   1.00
N1080  N     0.16665   0.83332   0.71597   0.00000  Uiso   1.00
O1081  O     0.16666   0.77322   0.87291   0.00000  Uiso   1.00
O1082  O     0.16667   0.89345   0.79375   0.00000  Uiso   1.00
O1083  O     0.16666   0.77321   0.79372   0.00000  Uiso   1.00
O1084  O     0.16667   0.89346   0.87294   0.00000  Uiso   1.00
O1085  O     0.09161   0.83334   0.86379   0.00000  Uiso   1.00
O1086  O     0.24172   0.83333   0.80288   0.00000  Uiso   1.00
O1087  O     0.09161   0.83333   0.78460   0.00000  Uiso   1.00
O1088  O     0.24172   0.83334   0.88207   0.00000  Uiso   1.00
C1089  C     0.32469   0.80612   0.77349   0.00000  Uiso   1.00
N1090  N     0.30719   0.78896   0.73970   0.00000  Uiso   1.00
C1091  C     0.00864   0.86054   0.89318   0.00000  Uiso   1.00
N1092  N     0.02615   0.87771   0.92696   0.00000  Uiso   1.00
O1093  O     0.10227   0.78211   0.71058   0.00000  Uiso   1.00
H1094  H     0.07998   0.76514   0.68755   0.00000  Uiso   1.00
O1095  O     0.23106   0.88456   0.95609   0.00000  Uiso   1.00
H1096  H     0.25335   0.90153   0.97912   0.00000  Uiso   1.00
C1097  C     0.10015   0.78017   0.94248   0.00000  Uiso   1.00
N1098  N     0.07257   0.75803   0.91948   0.00000  Uiso   1.00
C1099  C     0.23318   0.88650   0.72419   0.00000  Uiso   1.00
N1100  N     0.26076   0.90863   0.74718   0.00000  Uiso   1.00
C1101  C     0.49993   0.75407   0.83336   0.00000  Uiso   1.00
C1102  C     0.50007   0.91260   0.83331   0.00000  Uiso   1.00
C1103  C     0.40155   0.83274   0.82156   0.00000  Uiso   1.00
C1104  C     0.59845   0.83393   0.84511   0.00000  Uiso   1.00
C1105  C     0.34694   0.82769   0.81591   0.00000  Uiso   1.00
C1106  C     0.65306   0.83898   0.85075   0.00000  Uiso   1.00
C1107  C     0.49891   0.68808   0.79086   0.00000  Uiso   1.00
C1108  C     0.50109   0.97858   0.87581   0.00000  Uiso   1.00
C1109  C     0.49899   0.97883   0.79082   0.00000  Uiso   1.00
C1110  C     0.50101   0.68783   0.87585   0.00000  Uiso   1.00
C1111  C     0.50007   0.95724   0.83329   0.00000  Uiso   1.00
C1112  C     0.49993   0.70943   0.83338   0.00000  Uiso   1.00
C1113  C     0.46753   0.80756   0.68833   0.00000  Uiso   1.00
C1114  C     0.53247   0.85910   0.97834   0.00000  Uiso   1.00
C1115  C     0.46760   0.80759   0.97157   0.00000  Uiso   1.00
C1116  C     0.53240   0.85908   0.69509   0.00000  Uiso   1.00
Cu1117 Cu    0.50000   0.83334   0.88022   0.00000  Uiso   1.00
Cu1118 Cu    0.50000   0.83333   0.78645   0.00000  Uiso   1.00
H1119  H     0.49803   0.70418   0.75762   0.00000  Uiso   1.00
H1120  H     0.50197   0.96248   0.90905   0.00000  Uiso   1.00
H1121  H     0.49815   0.96293   0.75758   0.00000  Uiso   1.00
H1122  H     0.50185   0.70374   0.90909   0.00000  Uiso   1.00
N1123  N     0.50001   0.83334   0.95069   0.00000  Uiso   1.00
N1124  N     0.49999   0.83332   0.71597   0.00000  Uiso   1.00
O1125  O     0.50000   0.77322   0.87291   0.00000  Uiso   1.00
O1126  O     0.50000   0.89345   0.79375   0.00000  Uiso   1.00
O1127  O     0.50000   0.77321   0.79372   0.00000  Uiso   1.00
O1128  O     0.50000   0.89346   0.87294   0.00000  Uiso   1.00
O1129  O     0.42495   0.83334   0.86379   0.00000  Uiso   1.00
O1130  O     0.57505   0.83333   0.80288   0.00000  Uiso   1.00
O1131  O     0.42494   0.83333   0.78460   0.00000  Uiso   1.00
O1132  O     0.57506   0.83334   0.88207   0.00000  Uiso   1.00
C1133  C     0.65802   0.80612   0.77349   0.00000  Uiso   1.00
N1134  N     0.64052   0.78896   0.73970   0.00000  Uiso   1.00
C1135  C     0.34198   0.86054   0.89318   0.00000  Uiso   1.00
N1136  N     0.35948   0.87771   0.92696   0.00000  Uiso   1.00
O1137  O     0.43561   0.78211   0.71058   0.00000  Uiso   1.00
H1138  H     0.41332   0.76514   0.68755   0.00000  Uiso   1.00
O1139  O     0.56439   0.88456   0.95609   0.00000  Uiso   1.00
H1140  H     0.58668   0.90153   0.97912   0.00000  Uiso   1.00
C1141  C     0.43348   0.78017   0.94248   0.00000  Uiso   1.00
N1142  N     0.40590   0.75803   0.91948   0.00000  Uiso   1.00
C1143  C     0.56652   0.88650   0.72419   0.00000  Uiso   1.00
N1144  N     0.59410   0.90863   0.74718   0.00000  Uiso   1.00
C1145  C     0.83327   0.75407   0.83336   0.00000  Uiso   1.00
C1146  C     0.83340   0.91260   0.83331   0.00000  Uiso   1.00
C1147  C     0.73489   0.83274   0.82156   0.00000  Uiso   1.00
C1148  C     0.93178   0.83393   0.84511   0.00000  Uiso   1.00
C1149  C     0.68027   0.82769   0.81591   0.00000  Uiso   1.00
C1150  C     0.98640   0.83898   0.85075   0.00000  Uiso   1.00
C1151  C     0.83225   0.68808   0.79086   0.00000  Uiso   1.00
C1152  C     0.83442   0.97858   0.87581   0.00000  Uiso   1.00
C1153  C     0.83233   0.97883   0.79082   0.00000  Uiso   1.00
C1154  C     0.83434   0.68783   0.87585   0.00000  Uiso   1.00
C1155  C     0.83341   0.95724   0.83329   0.00000  Uiso   1.00
C1156  C     0.83326   0.70943   0.83338   0.00000  Uiso   1.00
C1157  C     0.80086   0.80756   0.68833   0.00000  Uiso   1.00
C1158  C     0.86580   0.85910   0.97834   0.00000  Uiso   1.00
C1159  C     0.80094   0.80759   0.97157   0.00000  Uiso   1.00
C1160  C     0.86573   0.85908   0.69509   0.00000  Uiso   1.00
Cu1161 Cu    0.83333   0.83334   0.88022   0.00000  Uiso   1.00
Cu1162 Cu    0.83333   0.83333   0.78645   0.00000  Uiso   1.00
H1163  H     0.83136   0.70418   0.75762   0.00000  Uiso   1.00
H1164  H     0.83531   0.96248   0.90905   0.00000  Uiso   1.00
H1165  H     0.83148   0.96293   0.75758   0.00000  Uiso   1.00
H1166  H     0.83519   0.70374   0.90909   0.00000  Uiso   1.00
N1167  N     0.83335   0.83334   0.95069   0.00000  Uiso   1.00
N1168  N     0.83332   0.83332   0.71597   0.00000  Uiso   1.00
O1169  O     0.83333   0.77322   0.87291   0.00000  Uiso   1.00
O1170  O     0.83334   0.89345   0.79375   0.00000  Uiso   1.00
O1171  O     0.83333   0.77321   0.79372   0.00000  Uiso   1.00
O1172  O     0.83334   0.89346   0.87294   0.00000  Uiso   1.00
O1173  O     0.75828   0.83334   0.86379   0.00000  Uiso   1.00
O1174  O     0.90839   0.83333   0.80288   0.00000  Uiso   1.00
O1175  O     0.75828   0.83333   0.78460   0.00000  Uiso   1.00
O1176  O     0.90839   0.83334   0.88207   0.00000  Uiso   1.00
C1177  C     0.99136   0.80612   0.77349   0.00000  Uiso   1.00
N1178  N     0.97385   0.78896   0.73970   0.00000  Uiso   1.00
C1179  C     0.67531   0.86054   0.89318   0.00000  Uiso   1.00
N1180  N     0.69281   0.87771   0.92696   0.00000  Uiso   1.00
O1181  O     0.76894   0.78211   0.71058   0.00000  Uiso   1.00
H1182  H     0.74665   0.76514   0.68755   0.00000  Uiso   1.00
O1183  O     0.89773   0.88456   0.95609   0.00000  Uiso   1.00
H1184  H     0.92002   0.90153   0.97912   0.00000  Uiso   1.00
C1185  C     0.76682   0.78017   0.94248   0.00000  Uiso   1.00
N1186  N     0.73924   0.75803   0.91948   0.00000  Uiso   1.00
C1187  C     0.89985   0.88650   0.72419   0.00000  Uiso   1.00
N1188  N     0.92743   0.90863   0.74718   0.00000  Uiso   1.00
loop_
_geom_bond_atom_site_label_1
_geom_bond_atom_site_label_2
_geom_bond_distance
_geom_bond_site_symmetry_2
_ccdc_geom_bond_type
C1     O25     1.295   .     A
C1     C12     1.450   .     S
C1     O27     1.294   .     A
C2     C11     1.450   .     S
C2     O26     1.295   .     A
C2     O28     1.294   .     A
C3     O31     1.294   .     A
C3     O29     1.286   .     A
C3     C5      1.438   .     S
C4     O32     1.294   .     A
C4     C6      1.438   .     S
C4     O30     1.286   .     A
C5     C94     1.360   1_455 S
C5     C121    1.456   1_455 S
C6     C49     1.360   .     S
C6     C79     1.456   .     S
C7     H19     1.083   .     S
C7     C12     1.402   .     A
C7     C273    1.383   1_545 S
C8     H20     1.083   .     S
C8     C11     1.402   .     A
C8     C142    1.383   .     S
C9     C11     1.401   .     A
C9     H21     1.083   .     S
C9     C139    1.383   .     S
C10    H22     1.083   .     S
C10    C12     1.401   .     A
C10    C272    1.383   1_545 S
C13    O37     1.383   .     S
C13    N24     1.365   .     A
C13    C807    1.436   1_554 S
C14    N23     1.365   .     A
C14    O39     1.383   .     S
C14    C412    1.436   .     S
C15    N23     1.376   .     A
C15    C41     1.442   .     S
C15    C409    1.436   .     S
C16    N24     1.376   .     A
C16    C43     1.442   .     S
C16    C806    1.436   1_554 S
Cu17   O29     1.978   .     S
Cu17   O25     1.965   .     S
Cu17   Cu18    2.689   .     S
Cu17   N23     2.021   .     S
Cu17   O32     1.978   .     S
Cu17   O28     1.963   .     S
Cu18   O30     1.978   .     S
Cu18   O26     1.965   .     S
Cu18   N24     2.021   .     S
Cu18   O31     1.978   .     S
Cu18   O27     1.963   .     S
C33    N34     1.158   .     T
C33    C49     1.456   .     S
C35    N36     1.158   .     T
C35    C94     1.456   1_455 S
O37    H38     0.988   .     S
O39    H40     0.988   .     S
C41    N42     1.158   .     T
C43    N44     1.158   .     T
C45    O69     1.295   .     A
C45    C56     1.450   .     S
C45    O71     1.294   .     A
C46    C55     1.450   .     S
C46    O70     1.295   .     A
C46    O72     1.294   .     A
C47    O75     1.294   .     A
C47    O73     1.286   .     A
C47    C49     1.438   .     S
C48    O76     1.294   .     A
C48    C50     1.438   .     S
C48    O74     1.286   .     A
C50    C93     1.360   .     S
C50    C123    1.456   .     S
C51    H63     1.083   .     S
C51    C56     1.402   .     A
C51    C317    1.383   1_545 S
C52    H64     1.083   .     S
C52    C55     1.402   .     A
C52    C186    1.383   .     S
C53    C55     1.401   .     A
C53    H65     1.083   .     S
C53    C183    1.383   .     S
C54    H66     1.083   .     S
C54    C56     1.401   .     A
C54    C316    1.383   1_545 S
C57    O81     1.383   .     S
C57    N68     1.365   .     A
C57    C851    1.436   1_554 S
C58    N67     1.365   .     A
C58    O83     1.383   .     S
C58    C456    1.436   .     S
C59    N67     1.376   .     A
C59    C85     1.442   .     S
C59    C453    1.436   .     S
C60    N68     1.376   .     A
C60    C87     1.442   .     S
C60    C850    1.436   1_554 S
Cu61   O73     1.978   .     S
Cu61   O69     1.965   .     S
Cu61   Cu62    2.689   .     S
Cu61   N67     2.021   .     S
Cu61   O76     1.978   .     S
Cu61   O72     1.963   .     S
Cu62   O74     1.978   .     S
Cu62   O70     1.965   .     S
Cu62   N68     2.021   .     S
Cu62   O75     1.978   .     S
Cu62   O71     1.963   .     S
C77    N78     1.158   .     T
C77    C93     1.456   .     S
C79    N80     1.158   .     T
O81    H82     0.988   .     S
O83    H84     0.988   .     S
C85    N86     1.158   .     T
C87    N88     1.158   .     T
C89    O113    1.295   .     A
C89    C100    1.450   .     S
C89    O115    1.294   .     A
C90    C99     1.450   .     S
C90    O114    1.295   .     A
C90    O116    1.294   .     A
C91    O119    1.294   .     A
C91    O117    1.286   .     A
C91    C93     1.438   .     S
C92    O120    1.294   .     A
C92    C94     1.438   .     S
C92    O118    1.286   .     A
C94    C5      1.360   1_655 S
C94    C35     1.456   1_655 S
C95    H107    1.083   .     S
C95    C100    1.402   .     A
C95    C361    1.383   1_545 S
C96    H108    1.083   .     S
C96    C99     1.402   .     A
C96    C230    1.383   .     S
C97    C99     1.401   .     A
C97    H109    1.083   .     S
C97    C227    1.383   .     S
C98    H110    1.083   .     S
C98    C100    1.401   .     A
C98    C360    1.383   1_545 S
C101   O125    1.383   .     S
C101   N112    1.365   .     A
C101   C895    1.436   1_554 S
C102   N111    1.365   .     A
C102   O127    1.383   .     S
C102   C500    1.436   .     S
C103   N111    1.376   .     A
C103   C129    1.442   .     S
C103   C497    1.436   .     S
C104   N112    1.376   .     A
C104   C131    1.442   .     S
C104   C894    1.436   1_554 S
Cu105  O117    1.978   .     S
Cu105  O113    1.965   .     S
Cu105  Cu106   2.689   .     S
Cu105  N111    2.021   .     S
Cu105  O120    1.978   .     S
Cu105  O116    1.963   .     S
Cu106  O118    1.978   .     S
Cu106  O114    1.965   .     S
Cu106  N112    2.021   .     S
Cu106  O119    1.978   .     S
Cu106  O115    1.963   .     S
C121   N122    1.158   .     T
C121   C5      1.456   1_655 S
C123   N124    1.158   .     T
O125   H126    0.988   .     S
O127   H128    0.988   .     S
C129   N130    1.158   .     T
C131   N132    1.158   .     T
C133   O157    1.295   .     A
C133   C144    1.450   .     S
C133   O159    1.294   .     A
C134   C143    1.450   .     S
C134   O158    1.295   .     A
C134   O160    1.294   .     A
C135   O163    1.294   .     A
C135   O161    1.286   .     A
C135   C137    1.438   .     S
C136   O164    1.294   .     A
C136   C138    1.438   .     S
C136   O162    1.286   .     A
C137   C226    1.360   1_455 S
C137   C253    1.456   1_455 S
C138   C181    1.360   .     S
C138   C211    1.456   .     S
C139   H151    1.083   .     S
C139   C144    1.402   .     A
C140   H152    1.083   .     S
C140   C143    1.402   .     A
C140   C274    1.383   .     S
C141   C143    1.401   .     A
C141   H153    1.083   .     S
C141   C271    1.383   .     S
C142   H154    1.083   .     S
C142   C144    1.401   .     A
C145   O169    1.383   .     S
C145   N156    1.365   .     A
C145   C939    1.436   1_554 S
C146   N155    1.365   .     A
C146   O171    1.383   .     S
C146   C544    1.436   .     S
C147   N155    1.376   .     A
C147   C173    1.442   .     S
C147   C541    1.436   .     S
C148   N156    1.376   .     A
C148   C175    1.442   .     S
C148   C938    1.436   1_554 S
Cu149  O161    1.978   .     S
Cu149  O157    1.965   .     S
Cu149  Cu150   2.689   .     S
Cu149  N155    2.021   .     S
Cu149  O164    1.978   .     S
Cu149  O160    1.963   .     S
Cu150  O162    1.978   .     S
Cu150  O158    1.965   .     S
Cu150  N156    2.021   .     S
Cu150  O163    1.978   .     S
Cu150  O159    1.963   .     S
C165   N166    1.158   .     T
C165   C181    1.456   .     S
C167   N168    1.158   .     T
C167   C226    1.456   1_455 S
O169   H170    0.988   .     S
O171   H172    0.988   .     S
C173   N174    1.158   .     T
C175   N176    1.158   .     T
C177   O201    1.295   .     A
C177   C188    1.450   .     S
C177   O203    1.294   .     A
C178   C187    1.450   .     S
C178   O202    1.295   .     A
C178   O204    1.294   .     A
C179   O207    1.294   .     A
C179   O205    1.286   .     A
C179   C181    1.438   .     S
C180   O208    1.294   .     A
C180   C182    1.438   .     S
C180   O206    1.286   .     A
C182   C225    1.360   .     S
C182   C255    1.456   .     S
C183   H195    1.083   .     S
C183   C188    1.402   .     A
C184   H196    1.083   .     S
C184   C187    1.402   .     A
C184   C318    1.383   .     S
C185   C187    1.401   .     A
C185   H197    1.083   .     S
C185   C315    1.383   .     S
C186   H198    1.083   .     S
C186   C188    1.401   .     A
C189   O213    1.383   .     S
C189   N200    1.365   .     A
C189   C983    1.436   1_554 S
C190   N199    1.365   .     A
C190   O215    1.383   .     S
C190   C588    1.436   .     S
C191   N199    1.376   .     A
C191   C217    1.442   .     S
C191   C585    1.436   .     S
C192   N200    1.376   .     A
C192   C219    1.442   .     S
C192   C982    1.436   1_554 S
Cu193  O205    1.978   .     S
Cu193  O201    1.965   .     S
Cu193  Cu194   2.689   .     S
Cu193  N199    2.021   .     S
Cu193  O208    1.978   .     S
Cu193  O204    1.963   .     S
Cu194  O206    1.978   .     S
Cu194  O202    1.965   .     S
Cu194  N200    2.021   .     S
Cu194  O207    1.978   .     S
Cu194  O203    1.963   .     S
C209   N210    1.158   .     T
C209   C225    1.456   .     S
C211   N212    1.158   .     T
O213   H214    0.988   .     S
O215   H216    0.988   .     S
C217   N218    1.158   .     T
C219   N220    1.158   .     T
C221   O245    1.295   .     A
C221   C232    1.450   .     S
C221   O247    1.294   .     A
C222   C231    1.450   .     S
C222   O246    1.295   .     A
C222   O248    1.294   .     A
C223   O251    1.294   .     A
C223   O249    1.286   .     A
C223   C225    1.438   .     S
C224   O252    1.294   .     A
C224   C226    1.438   .     S
C224   O250    1.286   .     A
C226   C137    1.360   1_655 S
C226   C167    1.456   1_655 S
C227   H239    1.083   .     S
C227   C232    1.402   .     A
C228   H240    1.083   .     S
C228   C231    1.402   .     A
C228   C362    1.383   .     S
C229   C231    1.401   .     A
C229   H241    1.083   .     S
C229   C359    1.383   .     S
C230   H242    1.083   .     S
C230   C232    1.401   .     A
C233   O257    1.383   .     S
C233   N244    1.365   .     A
C233   C1027   1.436   1_554 S
C234   N243    1.365   .     A
C234   O259    1.383   .     S
C234   C632    1.436   .     S
C235   N243    1.376   .     A
C235   C261    1.442   .     S
C235   C629    1.436   .     S
C236   N244    1.376   .     A
C236   C263    1.442   .     S
C236   C1026   1.436   1_554 S
Cu237  O249    1.978   .     S
Cu237  O245    1.965   .     S
Cu237  Cu238   2.689   .     S
Cu237  N243    2.021   .     S
Cu237  O252    1.978   .     S
Cu237  O248    1.963   .     S
Cu238  O250    1.978   .     S
Cu238  O246    1.965   .     S
Cu238  N244    2.021   .     S
Cu238  O251    1.978   .     S
Cu238  O247    1.963   .     S
C253   N254    1.158   .     T
C253   C137    1.456   1_655 S
C255   N256    1.158   .     T
O257   H258    0.988   .     S
O259   H260    0.988   .     S
C261   N262    1.158   .     T
C263   N264    1.158   .     T
C265   O289    1.295   .     A
C265   C276    1.450   .     S
C265   O291    1.294   .     A
C266   C275    1.450   .     S
C266   O290    1.295   .     A
C266   O292    1.294   .     A
C267   O295    1.294   .     A
C267   O293    1.286   .     A
C267   C269    1.438   .     S
C268   O296    1.294   .     A
C268   C270    1.438   .     S
C268   O294    1.286   .     A
C269   C358    1.360   1_455 S
C269   C385    1.456   1_455 S
C270   C313    1.360   .     S
C270   C343    1.456   .     S
C271   H283    1.083   .     S
C271   C276    1.402   .     A
C272   H284    1.083   .     S
C272   C275    1.402   .     A
C272   C10     1.383   1_565 S
C273   C275    1.401   .     A
C273   H285    1.083   .     S
C273   C7      1.383   1_565 S
C274   H286    1.083   .     S
C274   C276    1.401   .     A
C277   O301    1.383   .     S
C277   N288    1.365   .     A
C277   C1071   1.436   1_554 S
C278   N287    1.365   .     A
C278   O303    1.383   .     S
C278   C676    1.436   .     S
C279   N287    1.376   .     A
C279   C305    1.442   .     S
C279   C673    1.436   .     S
C280   N288    1.376   .     A
C280   C307    1.442   .     S
C280   C1070   1.436   1_554 S
Cu281  O293    1.978   .     S
Cu281  O289    1.965   .     S
Cu281  Cu282   2.689   .     S
Cu281  N287    2.021   .     S
Cu281  O296    1.978   .     S
Cu281  O292    1.963   .     S
Cu282  O294    1.978   .     S
Cu282  O290    1.965   .     S
Cu282  N288    2.021   .     S
Cu282  O295    1.978   .     S
Cu282  O291    1.963   .     S
C297   N298    1.158   .     T
C297   C313    1.456   .     S
C299   N300    1.158   .     T
C299   C358    1.456   1_455 S
O301   H302    0.988   .     S
O303   H304    0.988   .     S
C305   N306    1.158   .     T
C307   N308    1.158   .     T
C309   O333    1.295   .     A
C309   C320    1.450   .     S
C309   O335    1.294   .     A
C310   C319    1.450   .     S
C310   O334    1.295   .     A
C310   O336    1.294   .     A
C311   O339    1.294   .     A
C311   O337    1.286   .     A
C311   C313    1.438   .     S
C312   O340    1.294   .     A
C312   C314    1.438   .     S
C312   O338    1.286   .     A
C314   C357    1.360   .     S
C314   C387    1.456   .     S
C315   H327    1.083   .     S
C315   C320    1.402   .     A
C316   H328    1.083   .     S
C316   C319    1.402   .     A
C316   C54     1.383   1_565 S
C317   C319    1.401   .     A
C317   H329    1.083   .     S
C317   C51     1.383   1_565 S
C318   H330    1.083   .     S
C318   C320    1.401   .     A
C321   O345    1.383   .     S
C321   N332    1.365   .     A
C321   C1115   1.436   1_554 S
C322   N331    1.365   .     A
C322   O347    1.383   .     S
C322   C720    1.436   .     S
C323   N331    1.376   .     A
C323   C349    1.442   .     S
C323   C717    1.436   .     S
C324   N332    1.376   .     A
C324   C351    1.442   .     S
C324   C1114   1.436   1_554 S
Cu325  O337    1.978   .     S
Cu325  O333    1.965   .     S
Cu325  Cu326   2.689   .     S
Cu325  N331    2.021   .     S
Cu325  O340    1.978   .     S
Cu325  O336    1.963   .     S
Cu326  O338    1.978   .     S
Cu326  O334    1.965   .     S
Cu326  N332    2.021   .     S
Cu326  O339    1.978   .     S
Cu326  O335    1.963   .     S
C341   N342    1.158   .     T
C341   C357    1.456   .     S
C343   N344    1.158   .     T
O345   H346    0.988   .     S
O347   H348    0.988   .     S
C349   N350    1.158   .     T
C351   N352    1.158   .     T
C353   O377    1.295   .     A
C353   C364    1.450   .     S
C353   O379    1.294   .     A
C354   C363    1.450   .     S
C354   O378    1.295   .     A
C354   O380    1.294   .     A
C355   O383    1.294   .     A
C355   O381    1.286   .     A
C355   C357    1.438   .     S
C356   O384    1.294   .     A
C356   C358    1.438   .     S
C356   O382    1.286   .     A
C358   C269    1.360   1_655 S
C358   C299    1.456   1_655 S
C359   H371    1.083   .     S
C359   C364    1.402   .     A
C360   H372    1.083   .     S
C360   C363    1.402   .     A
C360   C98     1.383   1_565 S
C361   C363    1.401   .     A
C361   H373    1.083   .     S
C361   C95     1.383   1_565 S
C362   H374    1.083   .     S
C362   C364    1.401   .     A
C365   O389    1.383   .     S
C365   N376    1.365   .     A
C365   C1159   1.436   1_554 S
C366   N375    1.365   .     A
C366   O391    1.383   .     S
C366   C764    1.436   .     S
C367   N375    1.376   .     A
C367   C393    1.442   .     S
C367   C761    1.436   .     S
C368   N376    1.376   .     A
C368   C395    1.442   .     S
C368   C1158   1.436   1_554 S
Cu369  O381    1.978   .     S
Cu369  O377    1.965   .     S
Cu369  Cu370   2.689   .     S
Cu369  N375    2.021   .     S
Cu369  O384    1.978   .     S
Cu369  O380    1.963   .     S
Cu370  O382    1.978   .     S
Cu370  O378    1.965   .     S
Cu370  N376    2.021   .     S
Cu370  O383    1.978   .     S
Cu370  O379    1.963   .     S
C385   N386    1.158   .     T
C385   C269    1.456   1_655 S
C387   N388    1.158   .     T
O389   H390    0.988   .     S
O391   H392    0.988   .     S
C393   N394    1.158   .     T
C395   N396    1.158   .     T
C397   O421    1.295   .     A
C397   C408    1.450   .     S
C397   O423    1.294   .     A
C398   C407    1.450   .     S
C398   O422    1.295   .     A
C398   O424    1.294   .     A
C399   O427    1.294   .     A
C399   O425    1.286   .     A
C399   C401    1.438   .     S
C400   O428    1.294   .     A
C400   C402    1.438   .     S
C400   O426    1.286   .     A
C401   C490    1.360   1_455 S
C401   C517    1.456   1_455 S
C402   C445    1.360   .     S
C402   C475    1.456   .     S
C403   H415    1.083   .     S
C403   C408    1.402   .     A
C403   C669    1.383   1_545 S
C404   H416    1.083   .     S
C404   C407    1.402   .     A
C404   C538    1.383   .     S
C405   C407    1.401   .     A
C405   H417    1.083   .     S
C405   C535    1.383   .     S
C406   H418    1.083   .     S
C406   C408    1.401   .     A
C406   C668    1.383   1_545 S
C409   O433    1.383   .     S
C409   N420    1.365   .     A
C410   N419    1.365   .     A
C410   O435    1.383   .     S
C410   C808    1.436   .     S
C411   N419    1.376   .     A
C411   C437    1.442   .     S
C411   C805    1.436   .     S
C412   N420    1.376   .     A
C412   C439    1.442   .     S
Cu413  O425    1.978   .     S
Cu413  O421    1.965   .     S
Cu413  Cu414   2.689   .     S
Cu413  N419    2.021   .     S
Cu413  O428    1.978   .     S
Cu413  O424    1.963   .     S
Cu414  O426    1.978   .     S
Cu414  O422    1.965   .     S
Cu414  N420    2.021   .     S
Cu414  O427    1.978   .     S
Cu414  O423    1.963   .     S
C429   N430    1.158   .     T
C429   C445    1.456   .     S
C431   N432    1.158   .     T
C431   C490    1.456   1_455 S
O433   H434    0.988   .     S
O435   H436    0.988   .     S
C437   N438    1.158   .     T
C439   N440    1.158   .     T
C441   O465    1.295   .     A
C441   C452    1.450   .     S
C441   O467    1.294   .     A
C442   C451    1.450   .     S
C442   O466    1.295   .     A
C442   O468    1.294   .     A
C443   O471    1.294   .     A
C443   O469    1.286   .     A
C443   C445    1.438   .     S
C444   O472    1.294   .     A
C444   C446    1.438   .     S
C444   O470    1.286   .     A
C446   C489    1.360   .     S
C446   C519    1.456   .     S
C447   H459    1.083   .     S
C447   C452    1.402   .     A
C447   C713    1.383   1_545 S
C448   H460    1.083   .     S
C448   C451    1.402   .     A
C448   C582    1.383   .     S
C449   C451    1.401   .     A
C449   H461    1.083   .     S
C449   C579    1.383   .     S
C450   H462    1.083   .     S
C450   C452    1.401   .     A
C450   C712    1.383   1_545 S
C453   O477    1.383   .     S
C453   N464    1.365   .     A
C454   N463    1.365   .     A
C454   O479    1.383   .     S
C454   C852    1.436   .     S
C455   N463    1.376   .     A
C455   C481    1.442   .     S
C455   C849    1.436   .     S
C456   N464    1.376   .     A
C456   C483    1.442   .     S
Cu457  O469    1.978   .     S
Cu457  O465    1.965   .     S
Cu457  Cu458   2.689   .     S
Cu457  N463    2.021   .     S
Cu457  O472    1.978   .     S
Cu457  O468    1.963   .     S
Cu458  O470    1.978   .     S
Cu458  O466    1.965   .     S
Cu458  N464    2.021   .     S
Cu458  O471    1.978   .     S
Cu458  O467    1.963   .     S
C473   N474    1.158   .     T
C473   C489    1.456   .     S
C475   N476    1.158   .     T
O477   H478    0.988   .     S
O479   H480    0.988   .     S
C481   N482    1.158   .     T
C483   N484    1.158   .     T
C485   O509    1.295   .     A
C485   C496    1.450   .     S
C485   O511    1.294   .     A
C486   C495    1.450   .     S
C486   O510    1.295   .     A
C486   O512    1.294   .     A
C487   O515    1.294   .     A
C487   O513    1.286   .     A
C487   C489    1.438   .     S
C488   O516    1.294   .     A
C488   C490    1.438   .     S
C488   O514    1.286   .     A
C490   C401    1.360   1_655 S
C490   C431    1.456   1_655 S
C491   H503    1.083   .     S
C491   C496    1.402   .     A
C491   C757    1.383   1_545 S
C492   H504    1.083   .     S
C492   C495    1.402   .     A
C492   C626    1.383   .     S
C493   C495    1.401   .     A
C493   H505    1.083   .     S
C493   C623    1.383   .     S
C494   H506    1.083   .     S
C494   C496    1.401   .     A
C494   C756    1.383   1_545 S
C497   O521    1.383   .     S
C497   N508    1.365   .     A
C498   N507    1.365   .     A
C498   O523    1.383   .     S
C498   C896    1.436   .     S
C499   N507    1.376   .     A
C499   C525    1.442   .     S
C499   C893    1.436   .     S
C500   N508    1.376   .     A
C500   C527    1.442   .     S
Cu501  O513    1.978   .     S
Cu501  O509    1.965   .     S
Cu501  Cu502   2.689   .     S
Cu501  N507    2.021   .     S
Cu501  O516    1.978   .     S
Cu501  O512    1.963   .     S
Cu502  O514    1.978   .     S
Cu502  O510    1.965   .     S
Cu502  N508    2.021   .     S
Cu502  O515    1.978   .     S
Cu502  O511    1.963   .     S
C517   N518    1.158   .     T
C517   C401    1.456   1_655 S
C519   N520    1.158   .     T
O521   H522    0.988   .     S
O523   H524    0.988   .     S
C525   N526    1.158   .     T
C527   N528    1.158   .     T
C529   O553    1.295   .     A
C529   C540    1.450   .     S
C529   O555    1.294   .     A
C530   C539    1.450   .     S
C530   O554    1.295   .     A
C530   O556    1.294   .     A
C531   O559    1.294   .     A
C531   O557    1.286   .     A
C531   C533    1.438   .     S
C532   O560    1.294   .     A
C532   C534    1.438   .     S
C532   O558    1.286   .     A
C533   C622    1.360   1_455 S
C533   C649    1.456   1_455 S
C534   C577    1.360   .     S
C534   C607    1.456   .     S
C535   H547    1.083   .     S
C535   C540    1.402   .     A
C536   H548    1.083   .     S
C536   C539    1.402   .     A
C536   C670    1.383   .     S
C537   C539    1.401   .     A
C537   H549    1.083   .     S
C537   C667    1.383   .     S
C538   H550    1.083   .     S
C538   C540    1.401   .     A
C541   O565    1.383   .     S
C541   N552    1.365   .     A
C542   N551    1.365   .     A
C542   O567    1.383   .     S
C542   C940    1.436   .     S
C543   N551    1.376   .     A
C543   C569    1.442   .     S
C543   C937    1.436   .     S
C544   N552    1.376   .     A
C544   C571    1.442   .     S
Cu545  O557    1.978   .     S
Cu545  O553    1.965   .     S
Cu545  Cu546   2.689   .     S
Cu545  N551    2.021   .     S
Cu545  O560    1.978   .     S
Cu545  O556    1.963   .     S
Cu546  O558    1.978   .     S
Cu546  O554    1.965   .     S
Cu546  N552    2.021   .     S
Cu546  O559    1.978   .     S
Cu546  O555    1.963   .     S
C561   N562    1.158   .     T
C561   C577    1.456   .     S
C563   N564    1.158   .     T
C563   C622    1.456   1_455 S
O565   H566    0.988   .     S
O567   H568    0.988   .     S
C569   N570    1.158   .     T
C571   N572    1.158   .     T
C573   O597    1.295   .     A
C573   C584    1.450   .     S
C573   O599    1.294   .     A
C574   C583    1.450   .     S
C574   O598    1.295   .     A
C574   O600    1.294   .     A
C575   O603    1.294   .     A
C575   O601    1.286   .     A
C575   C577    1.438   .     S
C576   O604    1.294   .     A
C576   C578    1.438   .     S
C576   O602    1.286   .     A
C578   C621    1.360   .     S
C578   C651    1.456   .     S
C579   H591    1.083   .     S
C579   C584    1.402   .     A
C580   H592    1.083   .     S
C580   C583    1.402   .     A
C580   C714    1.383   .     S
C581   C583    1.401   .     A
C581   H593    1.083   .     S
C581   C711    1.383   .     S
C582   H594    1.083   .     S
C582   C584    1.401   .     A
C585   O609    1.383   .     S
C585   N596    1.365   .     A
C586   N595    1.365   .     A
C586   O611    1.383   .     S
C586   C984    1.436   .     S
C587   N595    1.376   .     A
C587   C613    1.442   .     S
C587   C981    1.436   .     S
C588   N596    1.376   .     A
C588   C615    1.442   .     S
Cu589  O601    1.978   .     S
Cu589  O597    1.965   .     S
Cu589  Cu590   2.689   .     S
Cu589  N595    2.021   .     S
Cu589  O604    1.978   .     S
Cu589  O600    1.963   .     S
Cu590  O602    1.978   .     S
Cu590  O598    1.965   .     S
Cu590  N596    2.021   .     S
Cu590  O603    1.978   .     S
Cu590  O599    1.963   .     S
C605   N606    1.158   .     T
C605   C621    1.456   .     S
C607   N608    1.158   .     T
O609   H610    0.988   .     S
O611   H612    0.988   .     S
C613   N614    1.158   .     T
C615   N616    1.158   .     T
C617   O641    1.295   .     A
C617   C628    1.450   .     S
C617   O643    1.294   .     A
C618   C627    1.450   .     S
C618   O642    1.295   .     A
C618   O644    1.294   .     A
C619   O647    1.294   .     A
C619   O645    1.286   .     A
C619   C621    1.438   .     S
C620   O648    1.294   .     A
C620   C622    1.438   .     S
C620   O646    1.286   .     A
C622   C533    1.360   1_655 S
C622   C563    1.456   1_655 S
C623   H635    1.083   .     S
C623   C628    1.402   .     A
C624   H636    1.083   .     S
C624   C627    1.402   .     A
C624   C758    1.383   .     S
C625   C627    1.401   .     A
C625   H637    1.083   .     S
C625   C755    1.383   .     S
C626   H638    1.083   .     S
C626   C628    1.401   .     A
C629   O653    1.383   .     S
C629   N640    1.365   .     A
C630   N639    1.365   .     A
C630   O655    1.383   .     S
C630   C1028   1.436   .     S
C631   N639    1.376   .     A
C631   C657    1.442   .     S
C631   C1025   1.436   .     S
C632   N640    1.376   .     A
C632   C659    1.442   .     S
Cu633  O645    1.978   .     S
Cu633  O641    1.965   .     S
Cu633  Cu634   2.689   .     S
Cu633  N639    2.021   .     S
Cu633  O648    1.978   .     S
Cu633  O644    1.963   .     S
Cu634  O646    1.978   .     S
Cu634  O642    1.965   .     S
Cu634  N640    2.021   .     S
Cu634  O647    1.978   .     S
Cu634  O643    1.963   .     S
C649   N650    1.158   .     T
C649   C533    1.456   1_655 S
C651   N652    1.158   .     T
O653   H654    0.988   .     S
O655   H656    0.988   .     S
C657   N658    1.158   .     T
C659   N660    1.158   .     T
C661   O685    1.295   .     A
C661   C672    1.450   .     S
C661   O687    1.294   .     A
C662   C671    1.450   .     S
C662   O686    1.295   .     A
C662   O688    1.294   .     A
C663   O691    1.294   .     A
C663   O689    1.286   .     A
C663   C665    1.438   .     S
C664   O692    1.294   .     A
C664   C666    1.438   .     S
C664   O690    1.286   .     A
C665   C754    1.360   1_455 S
C665   C781    1.456   1_455 S
C666   C709    1.360   .     S
C666   C739    1.456   .     S
C667   H679    1.083   .     S
C667   C672    1.402   .     A
C668   H680    1.083   .     S
C668   C671    1.402   .     A
C668   C406    1.383   1_565 S
C669   C671    1.401   .     A
C669   H681    1.083   .     S
C669   C403    1.383   1_565 S
C670   H682    1.083   .     S
C670   C672    1.401   .     A
C673   O697    1.383   .     S
C673   N684    1.365   .     A
C674   N683    1.365   .     A
C674   O699    1.383   .     S
C674   C1072   1.436   .     S
C675   N683    1.376   .     A
C675   C701    1.442   .     S
C675   C1069   1.436   .     S
C676   N684    1.376   .     A
C676   C703    1.442   .     S
Cu677  O689    1.978   .     S
Cu677  O685    1.965   .     S
Cu677  Cu678   2.689   .     S
Cu677  N683    2.021   .     S
Cu677  O692    1.978   .     S
Cu677  O688    1.963   .     S
Cu678  O690    1.978   .     S
Cu678  O686    1.965   .     S
Cu678  N684    2.021   .     S
Cu678  O691    1.978   .     S
Cu678  O687    1.963   .     S
C693   N694    1.158   .     T
C693   C709    1.456   .     S
C695   N696    1.158   .     T
C695   C754    1.456   1_455 S
O697   H698    0.988   .     S
O699   H700    0.988   .     S
C701   N702    1.158   .     T
C703   N704    1.158   .     T
C705   O729    1.295   .     A
C705   C716    1.450   .     S
C705   O731    1.294   .     A
C706   C715    1.450   .     S
C706   O730    1.295   .     A
C706   O732    1.294   .     A
C707   O735    1.294   .     A
C707   O733    1.286   .     A
C707   C709    1.438   .     S
C708   O736    1.294   .     A
C708   C710    1.438   .     S
C708   O734    1.286   .     A
C710   C753    1.360   .     S
C710   C783    1.456   .     S
C711   H723    1.083   .     S
C711   C716    1.402   .     A
C712   H724    1.083   .     S
C712   C715    1.402   .     A
C712   C450    1.383   1_565 S
C713   C715    1.401   .     A
C713   H725    1.083   .     S
C713   C447    1.383   1_565 S
C714   H726    1.083   .     S
C714   C716    1.401   .     A
C717   O741    1.383   .     S
C717   N728    1.365   .     A
C718   N727    1.365   .     A
C718   O743    1.383   .     S
C718   C1116   1.436   .     S
C719   N727    1.376   .     A
C719   C745    1.442   .     S
C719   C1113   1.436   .     S
C720   N728    1.376   .     A
C720   C747    1.442   .     S
Cu721  O733    1.978   .     S
Cu721  O729    1.965   .     S
Cu721  Cu722   2.689   .     S
Cu721  N727    2.021   .     S
Cu721  O736    1.978   .     S
Cu721  O732    1.963   .     S
Cu722  O734    1.978   .     S
Cu722  O730    1.965   .     S
Cu722  N728    2.021   .     S
Cu722  O735    1.978   .     S
Cu722  O731    1.963   .     S
C737   N738    1.158   .     T
C737   C753    1.456   .     S
C739   N740    1.158   .     T
O741   H742    0.988   .     S
O743   H744    0.988   .     S
C745   N746    1.158   .     T
C747   N748    1.158   .     T
C749   O773    1.295   .     A
C749   C760    1.450   .     S
C749   O775    1.294   .     A
C750   C759    1.450   .     S
C750   O774    1.295   .     A
C750   O776    1.294   .     A
C751   O779    1.294   .     A
C751   O777    1.286   .     A
C751   C753    1.438   .     S
C752   O780    1.294   .     A
C752   C754    1.438   .     S
C752   O778    1.286   .     A
C754   C665    1.360   1_655 S
C754   C695    1.456   1_655 S
C755   H767    1.083   .     S
C755   C760    1.402   .     A
C756   H768    1.083   .     S
C756   C759    1.402   .     A
C756   C494    1.383   1_565 S
C757   C759    1.401   .     A
C757   H769    1.083   .     S
C757   C491    1.383   1_565 S
C758   H770    1.083   .     S
C758   C760    1.401   .     A
C761   O785    1.383   .     S
C761   N772    1.365   .     A
C762   N771    1.365   .     A
C762   O787    1.383   .     S
C762   C1160   1.436   .     S
C763   N771    1.376   .     A
C763   C789    1.442   .     S
C763   C1157   1.436   .     S
C764   N772    1.376   .     A
C764   C791    1.442   .     S
Cu765  O777    1.978   .     S
Cu765  O773    1.965   .     S
Cu765  Cu766   2.689   .     S
Cu765  N771    2.021   .     S
Cu765  O780    1.978   .     S
Cu765  O776    1.963   .     S
Cu766  O778    1.978   .     S
Cu766  O774    1.965   .     S
Cu766  N772    2.021   .     S
Cu766  O779    1.978   .     S
Cu766  O775    1.963   .     S
C781   N782    1.158   .     T
C781   C665    1.456   1_655 S
C783   N784    1.158   .     T
O785   H786    0.988   .     S
O787   H788    0.988   .     S
C789   N790    1.158   .     T
C791   N792    1.158   .     T
C793   O817    1.295   .     A
C793   C804    1.450   .     S
C793   O819    1.294   .     A
C794   C803    1.450   .     S
C794   O818    1.295   .     A
C794   O820    1.294   .     A
C795   O823    1.294   .     A
C795   O821    1.286   .     A
C795   C797    1.438   .     S
C796   O824    1.294   .     A
C796   C798    1.438   .     S
C796   O822    1.286   .     A
C797   C886    1.360   1_455 S
C797   C913    1.456   1_455 S
C798   C841    1.360   .     S
C798   C871    1.456   .     S
C799   H811    1.083   .     S
C799   C804    1.402   .     A
C799   C1065   1.383   1_545 S
C800   H812    1.083   .     S
C800   C803    1.402   .     A
C800   C934    1.383   .     S
C801   C803    1.401   .     A
C801   H813    1.083   .     S
C801   C931    1.383   .     S
C802   H814    1.083   .     S
C802   C804    1.401   .     A
C802   C1064   1.383   1_545 S
C805   O829    1.383   .     S
C805   N816    1.365   .     A
C806   N815    1.365   .     A
C806   O831    1.383   .     S
C806   C16     1.436   1_556 S
C807   N815    1.376   .     A
C807   C833    1.442   .     S
C807   C13     1.436   1_556 S
C808   N816    1.376   .     A
C808   C835    1.442   .     S
Cu809  O821    1.978   .     S
Cu809  O817    1.965   .     S
Cu809  Cu810   2.689   .     S
Cu809  N815    2.021   .     S
Cu809  O824    1.978   .     S
Cu809  O820    1.963   .     S
Cu810  O822    1.978   .     S
Cu810  O818    1.965   .     S
Cu810  N816    2.021   .     S
Cu810  O823    1.978   .     S
Cu810  O819    1.963   .     S
C825   N826    1.158   .     T
C825   C841    1.456   .     S
C827   N828    1.158   .     T
C827   C886    1.456   1_455 S
O829   H830    0.988   .     S
O831   H832    0.988   .     S
C833   N834    1.158   .     T
C835   N836    1.158   .     T
C837   O861    1.295   .     A
C837   C848    1.450   .     S
C837   O863    1.294   .     A
C838   C847    1.450   .     S
C838   O862    1.295   .     A
C838   O864    1.294   .     A
C839   O867    1.294   .     A
C839   O865    1.286   .     A
C839   C841    1.438   .     S
C840   O868    1.294   .     A
C840   C842    1.438   .     S
C840   O866    1.286   .     A
C842   C885    1.360   .     S
C842   C915    1.456   .     S
C843   H855    1.083   .     S
C843   C848    1.402   .     A
C843   C1109   1.383   1_545 S
C844   H856    1.083   .     S
C844   C847    1.402   .     A
C844   C978    1.383   .     S
C845   C847    1.401   .     A
C845   H857    1.083   .     S
C845   C975    1.383   .     S
C846   H858    1.083   .     S
C846   C848    1.401   .     A
C846   C1108   1.383   1_545 S
C849   O873    1.383   .     S
C849   N860    1.365   .     A
C850   N859    1.365   .     A
C850   O875    1.383   .     S
C850   C60     1.436   1_556 S
C851   N859    1.376   .     A
C851   C877    1.442   .     S
C851   C57     1.436   1_556 S
C852   N860    1.376   .     A
C852   C879    1.442   .     S
Cu853  O865    1.978   .     S
Cu853  O861    1.965   .     S
Cu853  Cu854   2.689   .     S
Cu853  N859    2.021   .     S
Cu853  O868    1.978   .     S
Cu853  O864    1.963   .     S
Cu854  O866    1.978   .     S
Cu854  O862    1.965   .     S
Cu854  N860    2.021   .     S
Cu854  O867    1.978   .     S
Cu854  O863    1.963   .     S
C869   N870    1.158   .     T
C869   C885    1.456   .     S
C871   N872    1.158   .     T
O873   H874    0.988   .     S
O875   H876    0.988   .     S
C877   N878    1.158   .     T
C879   N880    1.158   .     T
C881   O905    1.295   .     A
C881   C892    1.450   .     S
C881   O907    1.294   .     A
C882   C891    1.450   .     S
C882   O906    1.295   .     A
C882   O908    1.294   .     A
C883   O911    1.294   .     A
C883   O909    1.286   .     A
C883   C885    1.438   .     S
C884   O912    1.294   .     A
C884   C886    1.438   .     S
C884   O910    1.286   .     A
C886   C797    1.360   1_655 S
C886   C827    1.456   1_655 S
C887   H899    1.083   .     S
C887   C892    1.402   .     A
C887   C1153   1.383   1_545 S
C888   H900    1.083   .     S
C888   C891    1.402   .     A
C888   C1022   1.383   .     S
C889   C891    1.401   .     A
C889   H901    1.083   .     S
C889   C1019   1.383   .     S
C890   H902    1.083   .     S
C890   C892    1.401   .     A
C890   C1152   1.383   1_545 S
C893   O917    1.383   .     S
C893   N904    1.365   .     A
C894   N903    1.365   .     A
C894   O919    1.383   .     S
C894   C104    1.436   1_556 S
C895   N903    1.376   .     A
C895   C921    1.442   .     S
C895   C101    1.436   1_556 S
C896   N904    1.376   .     A
C896   C923    1.442   .     S
Cu897  O909    1.978   .     S
Cu897  O905    1.965   .     S
Cu897  Cu898   2.689   .     S
Cu897  N903    2.021   .     S
Cu897  O912    1.978   .     S
Cu897  O908    1.963   .     S
Cu898  O910    1.978   .     S
Cu898  O906    1.965   .     S
Cu898  N904    2.021   .     S
Cu898  O911    1.978   .     S
Cu898  O907    1.963   .     S
C913   N914    1.158   .     T
C913   C797    1.456   1_655 S
C915   N916    1.158   .     T
O917   H918    0.988   .     S
O919   H920    0.988   .     S
C921   N922    1.158   .     T
C923   N924    1.158   .     T
C925   O949    1.295   .     A
C925   C936    1.450   .     S
C925   O951    1.294   .     A
C926   C935    1.450   .     S
C926   O950    1.295   .     A
C926   O952    1.294   .     A
C927   O955    1.294   .     A
C927   O953    1.286   .     A
C927   C929    1.438   .     S
C928   O956    1.294   .     A
C928   C930    1.438   .     S
C928   O954    1.286   .     A
C929   C1018   1.360   1_455 S
C929   C1045   1.456   1_455 S
C930   C973    1.360   .     S
C930   C1003   1.456   .     S
C931   H943    1.083   .     S
C931   C936    1.402   .     A
C932   H944    1.083   .     S
C932   C935    1.402   .     A
C932   C1066   1.383   .     S
C933   C935    1.401   .     A
C933   H945    1.083   .     S
C933   C1063   1.383   .     S
C934   H946    1.083   .     S
C934   C936    1.401   .     A
C937   O961    1.383   .     S
C937   N948    1.365   .     A
C938   N947    1.365   .     A
C938   O963    1.383   .     S
C938   C148    1.436   1_556 S
C939   N947    1.376   .     A
C939   C965    1.442   .     S
C939   C145    1.436   1_556 S
C940   N948    1.376   .     A
C940   C967    1.442   .     S
Cu941  O953    1.978   .     S
Cu941  O949    1.965   .     S
Cu941  Cu942   2.689   .     S
Cu941  N947    2.021   .     S
Cu941  O956    1.978   .     S
Cu941  O952    1.963   .     S
Cu942  O954    1.978   .     S
Cu942  O950    1.965   .     S
Cu942  N948    2.021   .     S
Cu942  O955    1.978   .     S
Cu942  O951    1.963   .     S
C957   N958    1.158   .     T
C957   C973    1.456   .     S
C959   N960    1.158   .     T
C959   C1018   1.456   1_455 S
O961   H962    0.988   .     S
O963   H964    0.988   .     S
C965   N966    1.158   .     T
C967   N968    1.158   .     T
C969   O993    1.295   .     A
C969   C980    1.450   .     S
C969   O995    1.294   .     A
C970   C979    1.450   .     S
C970   O994    1.295   .     A
C970   O996    1.294   .     A
C971   O999    1.294   .     A
C971   O997    1.286   .     A
C971   C973    1.438   .     S
C972   O1000   1.294   .     A
C972   C974    1.438   .     S
C972   O998    1.286   .     A
C974   C1017   1.360   .     S
C974   C1047   1.456   .     S
C975   H987    1.083   .     S
C975   C980    1.402   .     A
C976   H988    1.083   .     S
C976   C979    1.402   .     A
C976   C1110   1.383   .     S
C977   C979    1.401   .     A
C977   H989    1.083   .     S
C977   C1107   1.383   .     S
C978   H990    1.083   .     S
C978   C980    1.401   .     A
C981   O1005   1.383   .     S
C981   N992    1.365   .     A
C982   N991    1.365   .     A
C982   O1007   1.383   .     S
C982   C192    1.436   1_556 S
C983   N991    1.376   .     A
C983   C1009   1.442   .     S
C983   C189    1.436   1_556 S
C984   N992    1.376   .     A
C984   C1011   1.442   .     S
Cu985  O997    1.978   .     S
Cu985  O993    1.965   .     S
Cu985  Cu986   2.689   .     S
Cu985  N991    2.021   .     S
Cu985  O1000   1.978   .     S
Cu985  O996    1.963   .     S
Cu986  O998    1.978   .     S
Cu986  O994    1.965   .     S
Cu986  N992    2.021   .     S
Cu986  O999    1.978   .     S
Cu986  O995    1.963   .     S
C1001  N1002   1.158   .     T
C1001  C1017   1.456   .     S
C1003  N1004   1.158   .     T
O1005  H1006   0.988   .     S
O1007  H1008   0.988   .     S
C1009  N1010   1.158   .     T
C1011  N1012   1.158   .     T
C1013  O1037   1.295   .     A
C1013  C1024   1.450   .     S
C1013  O1039   1.294   .     A
C1014  C1023   1.450   .     S
C1014  O1038   1.295   .     A
C1014  O1040   1.294   .     A
C1015  O1043   1.294   .     A
C1015  O1041   1.286   .     A
C1015  C1017   1.438   .     S
C1016  O1044   1.294   .     A
C1016  C1018   1.438   .     S
C1016  O1042   1.286   .     A
C1018  C929    1.360   1_655 S
C1018  C959    1.456   1_655 S
C1019  H1031   1.083   .     S
C1019  C1024   1.402   .     A
C1020  H1032   1.083   .     S
C1020  C1023   1.402   .     A
C1020  C1154   1.383   .     S
C1021  C1023   1.401   .     A
C1021  H1033   1.083   .     S
C1021  C1151   1.383   .     S
C1022  H1034   1.083   .     S
C1022  C1024   1.401   .     A
C1025  O1049   1.383   .     S
C1025  N1036   1.365   .     A
C1026  N1035   1.365   .     A
C1026  O1051   1.383   .     S
C1026  C236    1.436   1_556 S
C1027  N1035   1.376   .     A
C1027  C1053   1.442   .     S
C1027  C233    1.436   1_556 S
C1028  N1036   1.376   .     A
C1028  C1055   1.442   .     S
Cu1029 O1041   1.978   .     S
Cu1029 O1037   1.965   .     S
Cu1029 Cu1030  2.689   .     S
Cu1029 N1035   2.021   .     S
Cu1029 O1044   1.978   .     S
Cu1029 O1040   1.963   .     S
Cu1030 O1042   1.978   .     S
Cu1030 O1038   1.965   .     S
Cu1030 N1036   2.021   .     S
Cu1030 O1043   1.978   .     S
Cu1030 O1039   1.963   .     S
C1045  N1046   1.158   .     T
C1045  C929    1.456   1_655 S
C1047  N1048   1.158   .     T
O1049  H1050   0.988   .     S
O1051  H1052   0.988   .     S
C1053  N1054   1.158   .     T
C1055  N1056   1.158   .     T
C1057  O1081   1.295   .     A
C1057  C1068   1.450   .     S
C1057  O1083   1.294   .     A
C1058  C1067   1.450   .     S
C1058  O1082   1.295   .     A
C1058  O1084   1.294   .     A
C1059  O1087   1.294   .     A
C1059  O1085   1.286   .     A
C1059  C1061   1.438   .     S
C1060  O1088   1.294   .     A
C1060  C1062   1.438   .     S
C1060  O1086   1.286   .     A
C1061  C1150   1.360   1_455 S
C1061  C1177   1.456   1_455 S
C1062  C1105   1.360   .     S
C1062  C1135   1.456   .     S
C1063  H1075   1.083   .     S
C1063  C1068   1.402   .     A
C1064  H1076   1.083   .     S
C1064  C1067   1.402   .     A
C1064  C802    1.383   1_565 S
C1065  C1067   1.401   .     A
C1065  H1077   1.083   .     S
C1065  C799    1.383   1_565 S
C1066  H1078   1.083   .     S
C1066  C1068   1.401   .     A
C1069  O1093   1.383   .     S
C1069  N1080   1.365   .     A
C1070  N1079   1.365   .     A
C1070  O1095   1.383   .     S
C1070  C280    1.436   1_556 S
C1071  N1079   1.376   .     A
C1071  C1097   1.442   .     S
C1071  C277    1.436   1_556 S
C1072  N1080   1.376   .     A
C1072  C1099   1.442   .     S
Cu1073 O1085   1.978   .     S
Cu1073 O1081   1.965   .     S
Cu1073 Cu1074  2.689   .     S
Cu1073 N1079   2.021   .     S
Cu1073 O1088   1.978   .     S
Cu1073 O1084   1.963   .     S
Cu1074 O1086   1.978   .     S
Cu1074 O1082   1.965   .     S
Cu1074 N1080   2.021   .     S
Cu1074 O1087   1.978   .     S
Cu1074 O1083   1.963   .     S
C1089  N1090   1.158   .     T
C1089  C1105   1.456   .     S
C1091  N1092   1.158   .     T
C1091  C1150   1.456   1_455 S
O1093  H1094   0.988   .     S
O1095  H1096   0.988   .     S
C1097  N1098   1.158   .     T
C1099  N1100   1.158   .     T
C1101  O1125   1.295   .     A
C1101  C1112   1.450   .     S
C1101  O1127   1.294   .     A
C1102  C1111   1.450   .     S
C1102  O1126   1.295   .     A
C1102  O1128   1.294   .     A
C1103  O1131   1.294   .     A
C1103  O1129   1.286   .     A
C1103  C1105   1.438   .     S
C1104  O1132   1.294   .     A
C1104  C1106   1.438   .     S
C1104  O1130   1.286   .     A
C1106  C1149   1.360   .     S
C1106  C1179   1.456   .     S
C1107  H1119   1.083   .     S
C1107  C1112   1.402   .     A
C1108  H1120   1.083   .     S
C1108  C1111   1.402   .     A
C1108  C846    1.383   1_565 S
C1109  C1111   1.401   .     A
C1109  H1121   1.083   .     S
C1109  C843    1.383   1_565 S
C1110  H1122   1.083   .     S
C1110  C1112   1.401   .     A
C1113  O1137   1.383   .     S
C1113  N1124   1.365   .     A
C1114  N1123   1.365   .     A
C1114  O1139   1.383   .     S
C1114  C324    1.436   1_556 S
C1115  N1123   1.376   .     A
C1115  C1141   1.442   .     S
C1115  C321    1.436   1_556 S
C1116  N1124   1.376   .     A
C1116  C1143   1.442   .     S
Cu1117 O1129   1.978   .     S
Cu1117 O1125   1.965   .     S
Cu1117 Cu1118  2.689   .     S
Cu1117 N1123   2.021   .     S
Cu1117 O1132   1.978   .     S
Cu1117 O1128   1.963   .     S
Cu1118 O1130   1.978   .     S
Cu1118 O1126   1.965   .     S
Cu1118 N1124   2.021   .     S
Cu1118 O1131   1.978   .     S
Cu1118 O1127   1.963   .     S
C1133  N1134   1.158   .     T
C1133  C1149   1.456   .     S
C1135  N1136   1.158   .     T
O1137  H1138   0.988   .     S
O1139  H1140   0.988   .     S
C1141  N1142   1.158   .     T
C1143  N1144   1.158   .     T
C1145  O1169   1.295   .     A
C1145  C1156   1.450   .     S
C1145  O1171   1.294   .     A
C1146  C1155   1.450   .     S
C1146  O1170   1.295   .     A
C1146  O1172   1.294   .     A
C1147  O1175   1.294   .     A
C1147  O1173   1.286   .     A
C1147  C1149   1.438   .     S
C1148  O1176   1.294   .     A
C1148  C1150   1.438   .     S
C1148  O1174   1.286   .     A
C1150  C1061   1.360   1_655 S
C1150  C1091   1.456   1_655 S
C1151  H1163   1.083   .     S
C1151  C1156   1.402   .     A
C1152  H1164   1.083   .     S
C1152  C1155   1.402   .     A
C1152  C890    1.383   1_565 S
C1153  C1155   1.401   .     A
C1153  H1165   1.083   .     S
C1153  C887    1.383   1_565 S
C1154  H1166   1.083   .     S
C1154  C1156   1.401   .     A
C1157  O1181   1.383   .     S
C1157  N1168   1.365   .     A
C1158  N1167   1.365   .     A
C1158  O1183   1.383   .     S
C1158  C368    1.436   1_556 S
C1159  N1167   1.376   .     A
C1159  C1185   1.442   .     S
C1159  C365    1.436   1_556 S
C1160  N1168   1.376   .     A
C1160  C1187   1.442   .     S
Cu1161 O1173   1.978   .     S
Cu1161 O1169   1.965   .     S
Cu1161 Cu1162  2.689   .     S
Cu1161 N1167   2.021   .     S
Cu1161 O1176   1.978   .     S
Cu1161 O1172   1.963   .     S
Cu1162 O1174   1.978   .     S
Cu1162 O1170   1.965   .     S
Cu1162 N1168   2.021   .     S
Cu1162 O1175   1.978   .     S
Cu1162 O1171   1.963   .     S
C1177  N1178   1.158   .     T
C1177  C1061   1.456   1_655 S
C1179  N1180   1.158   .     T
O1181  H1182   0.988   .     S
O1183  H1184   0.988   .     S
C1185  N1186   1.158   .     T
C1187  N1188   1.158   .     T
