data_str_m2_o1_o10_pcu_sym.70
_audit_creation_date              2020-01-03
_audit_creation_method            'Materials Studio'
_symmetry_space_group_name_H-M    'P1'
_symmetry_Int_Tables_number       1
_symmetry_cell_setting            triclinic
loop_
_symmetry_equiv_pos_as_xyz
  x,y,z
_cell_length_a                    26.3498
_cell_length_b                    32.4307
_cell_length_c                    28.5476
_cell_angle_alpha                 89.6838
_cell_angle_beta                  97.7554
_cell_angle_gamma                 90.7532
loop_
_atom_site_label
_atom_site_type_symbol
_atom_site_fract_x
_atom_site_fract_y
_atom_site_fract_z
_atom_site_U_iso_or_equiv
_atom_site_adp_type
_atom_site_occupancy
C1     C     0.16627   0.08737   0.16670   0.00000  Uiso   1.00
C2     C     0.17601   0.02120   0.20952   0.00000  Uiso   1.00
C3     C     0.16546   0.29057   0.16659   0.00000  Uiso   1.00
C4     C     0.16547   0.04276   0.16676   0.00000  Uiso   1.00
C5     C     0.13525   0.14049   0.02125   0.00000  Uiso   1.00
C6     C     0.19864   0.19236   0.31219   0.00000  Uiso   1.00
C7     C     0.13433   0.14059   0.30431   0.00000  Uiso   1.00
C8     C     0.19831   0.19313   0.02880   0.00000  Uiso   1.00
C9     C     0.32443   0.11114   0.09555   0.00000  Uiso   1.00
C10    C     0.28747   0.09960   0.05182   0.00000  Uiso   1.00
C11    C     0.00974   0.22412   0.23607   0.00000  Uiso   1.00
C12    C     0.16629   0.24597   0.16658   0.00000  Uiso   1.00
C13    C     0.04808   0.23611   0.27871   0.00000  Uiso   1.00
C14    C     0.05720   0.10241   0.28852   0.00000  Uiso   1.00
C15    C     0.05703   0.05876   0.30868   0.00000  Uiso   1.00
C16    C     0.23498   0.25855   0.04302   0.00000  Uiso   1.00
C17    C     0.28729   0.26877   0.02855   0.00000  Uiso   1.00
C18    C     0.06811   0.16610   0.15472   0.00000  Uiso   1.00
C19    C     0.26522   0.16764   0.17856   0.00000  Uiso   1.00
C20    C     0.01308   0.16317   0.14821   0.00000  Uiso   1.00
C21    C     0.32019   0.17126   0.18479   0.00000  Uiso   1.00
C22    C     0.15414   0.02144   0.12399   0.00000  Uiso   1.00
C23    C     0.17615   0.31190   0.20943   0.00000  Uiso   1.00
C24    C     0.15380   0.31212   0.12396   0.00000  Uiso   1.00
Cu25   Cu    0.16667   0.16667   0.21355   0.00000  Uiso   1.00
Cu26   Cu    0.16667   0.16666   0.11978   0.00000  Uiso   1.00
H27    H     0.14522   0.03765   0.09067   0.00000  Uiso   1.00
H28    H     0.29023   0.06615   0.04461   0.00000  Uiso   1.00
H29    H     0.24759   0.10636   0.05758   0.00000  Uiso   1.00
H30    H     0.30410   0.23312   0.24277   0.00000  Uiso   1.00
H31    H     0.02011   0.24165   0.20489   0.00000  Uiso   1.00
H32    H     0.08762   0.22988   0.27152   0.00000  Uiso   1.00
H33    H     0.04493   0.26949   0.28615   0.00000  Uiso   1.00
H34    H     0.04050   0.21804   0.31025   0.00000  Uiso   1.00
H35    H     0.02876   0.10286   0.25607   0.00000  Uiso   1.00
H36    H     0.04334   0.12509   0.31292   0.00000  Uiso   1.00
H37    H     0.08518   0.05596   0.00774   0.00000  Uiso   1.00
H38    H     0.18511   0.29571   0.24277   0.00000  Uiso   1.00
H39    H     0.01833   0.05083   0.31754   0.00000  Uiso   1.00
H40    H     0.06698   0.03642   0.28209   0.00000  Uiso   1.00
H41    H     0.23023   0.27834   0.07364   0.00000  Uiso   1.00
H42    H     0.20396   0.26725   0.01423   0.00000  Uiso   1.00
H43    H     0.29403   0.24994   0.33114   0.00000  Uiso   1.00
H44    H     0.28918   0.30189   0.01876   0.00000  Uiso   1.00
H45    H     0.31786   0.26243   0.05838   0.00000  Uiso   1.00
H46    H     0.14427   0.29609   0.09069   0.00000  Uiso   1.00
H47    H     0.18476   0.03721   0.24290   0.00000  Uiso   1.00
H48    H     0.11174   0.11919   0.03829   0.00000  Uiso   1.00
H49    H     0.22479   0.21189   0.29586   0.00000  Uiso   1.00
H50    H     0.31334   0.09288   0.12592   0.00000  Uiso   1.00
H51    H     0.03047   0.10264   0.08953   0.00000  Uiso   1.00
H52    H     0.29683   0.11744   0.02072   0.00000  Uiso   1.00
N53    N     0.16668   0.16668   0.28403   0.00000  Uiso   1.00
N54    N     0.16665   0.16666   0.04931   0.00000  Uiso   1.00
O55    O     0.16666   0.10655   0.20625   0.00000  Uiso   1.00
O56    O     0.01155   0.18107   0.22948   0.00000  Uiso   1.00
O57    O     0.10575   0.11211   0.27503   0.00000  Uiso   1.00
O58    O     0.23335   0.21691   0.05810   0.00000  Uiso   1.00
O59    O     0.16667   0.22678   0.12709   0.00000  Uiso   1.00
O60    O     0.16666   0.10654   0.12706   0.00000  Uiso   1.00
O61    O     0.16667   0.22679   0.20628   0.00000  Uiso   1.00
O62    O     0.09161   0.16667   0.19712   0.00000  Uiso   1.00
O63    O     0.24172   0.16666   0.13621   0.00000  Uiso   1.00
O64    O     0.09161   0.16666   0.11793   0.00000  Uiso   1.00
O65    O     0.24172   0.16667   0.21540   0.00000  Uiso   1.00
O66    O     0.32174   0.15402   0.10327   0.00000  Uiso   1.00
C67    C     0.49960   0.08737   0.16670   0.00000  Uiso   1.00
C68    C     0.50934   0.02120   0.20952   0.00000  Uiso   1.00
C69    C     0.49880   0.29057   0.16659   0.00000  Uiso   1.00
C70    C     0.49880   0.04276   0.16676   0.00000  Uiso   1.00
C71    C     0.46858   0.14049   0.02125   0.00000  Uiso   1.00
C72    C     0.53198   0.19236   0.31219   0.00000  Uiso   1.00
C73    C     0.46766   0.14059   0.30431   0.00000  Uiso   1.00
C74    C     0.53164   0.19313   0.02880   0.00000  Uiso   1.00
C75    C     0.65776   0.11114   0.09555   0.00000  Uiso   1.00
C76    C     0.62081   0.09960   0.05182   0.00000  Uiso   1.00
C77    C     0.34307   0.22412   0.23607   0.00000  Uiso   1.00
C78    C     0.49962   0.24597   0.16658   0.00000  Uiso   1.00
C79    C     0.38141   0.23611   0.27871   0.00000  Uiso   1.00
C80    C     0.39053   0.10241   0.28852   0.00000  Uiso   1.00
C81    C     0.39036   0.05876   0.30868   0.00000  Uiso   1.00
C82    C     0.56831   0.25855   0.04302   0.00000  Uiso   1.00
C83    C     0.62062   0.26877   0.02855   0.00000  Uiso   1.00
C84    C     0.40144   0.16610   0.15472   0.00000  Uiso   1.00
C85    C     0.59855   0.16764   0.17856   0.00000  Uiso   1.00
C86    C     0.34641   0.16317   0.14821   0.00000  Uiso   1.00
C87    C     0.65352   0.17126   0.18479   0.00000  Uiso   1.00
C88    C     0.48747   0.02144   0.12399   0.00000  Uiso   1.00
C89    C     0.50948   0.31190   0.20943   0.00000  Uiso   1.00
C90    C     0.48713   0.31212   0.12396   0.00000  Uiso   1.00
Cu91   Cu    0.50000   0.16667   0.21355   0.00000  Uiso   1.00
Cu92   Cu    0.50000   0.16666   0.11978   0.00000  Uiso   1.00
H93    H     0.47856   0.03765   0.09067   0.00000  Uiso   1.00
H94    H     0.62356   0.06615   0.04461   0.00000  Uiso   1.00
H95    H     0.58093   0.10636   0.05758   0.00000  Uiso   1.00
H96    H     0.63743   0.23312   0.24277   0.00000  Uiso   1.00
H97    H     0.35344   0.24165   0.20489   0.00000  Uiso   1.00
H98    H     0.42096   0.22988   0.27152   0.00000  Uiso   1.00
H99    H     0.37827   0.26949   0.28615   0.00000  Uiso   1.00
H100   H     0.37384   0.21804   0.31025   0.00000  Uiso   1.00
H101   H     0.36210   0.10286   0.25607   0.00000  Uiso   1.00
H102   H     0.37667   0.12509   0.31292   0.00000  Uiso   1.00
H103   H     0.41851   0.05596   0.00774   0.00000  Uiso   1.00
H104   H     0.51844   0.29571   0.24277   0.00000  Uiso   1.00
H105   H     0.35166   0.05083   0.31754   0.00000  Uiso   1.00
H106   H     0.40031   0.03642   0.28209   0.00000  Uiso   1.00
H107   H     0.56356   0.27834   0.07364   0.00000  Uiso   1.00
H108   H     0.53729   0.26725   0.01423   0.00000  Uiso   1.00
H109   H     0.62736   0.24994   0.33114   0.00000  Uiso   1.00
H110   H     0.62252   0.30189   0.01876   0.00000  Uiso   1.00
H111   H     0.65120   0.26243   0.05838   0.00000  Uiso   1.00
H112   H     0.47760   0.29609   0.09069   0.00000  Uiso   1.00
H113   H     0.51810   0.03721   0.24290   0.00000  Uiso   1.00
H114   H     0.44507   0.11919   0.03829   0.00000  Uiso   1.00
H115   H     0.55812   0.21189   0.29586   0.00000  Uiso   1.00
H116   H     0.64668   0.09288   0.12592   0.00000  Uiso   1.00
H117   H     0.36381   0.10264   0.08953   0.00000  Uiso   1.00
H118   H     0.63016   0.11744   0.02072   0.00000  Uiso   1.00
N119   N     0.50001   0.16668   0.28403   0.00000  Uiso   1.00
N120   N     0.49999   0.16666   0.04931   0.00000  Uiso   1.00
O121   O     0.50000   0.10655   0.20625   0.00000  Uiso   1.00
O122   O     0.34488   0.18107   0.22948   0.00000  Uiso   1.00
O123   O     0.43909   0.11211   0.27503   0.00000  Uiso   1.00
O124   O     0.56669   0.21691   0.05810   0.00000  Uiso   1.00
O125   O     0.50000   0.22678   0.12709   0.00000  Uiso   1.00
O126   O     0.50000   0.10654   0.12706   0.00000  Uiso   1.00
O127   O     0.50000   0.22679   0.20628   0.00000  Uiso   1.00
O128   O     0.42495   0.16667   0.19712   0.00000  Uiso   1.00
O129   O     0.57505   0.16666   0.13621   0.00000  Uiso   1.00
O130   O     0.42494   0.16666   0.11793   0.00000  Uiso   1.00
O131   O     0.57506   0.16667   0.21540   0.00000  Uiso   1.00
O132   O     0.65507   0.15402   0.10327   0.00000  Uiso   1.00
C133   C     0.83293   0.08737   0.16670   0.00000  Uiso   1.00
C134   C     0.84267   0.02120   0.20952   0.00000  Uiso   1.00
C135   C     0.83213   0.29057   0.16659   0.00000  Uiso   1.00
C136   C     0.83214   0.04276   0.16676   0.00000  Uiso   1.00
C137   C     0.80192   0.14049   0.02125   0.00000  Uiso   1.00
C138   C     0.86531   0.19236   0.31219   0.00000  Uiso   1.00
C139   C     0.80100   0.14059   0.30431   0.00000  Uiso   1.00
C140   C     0.86497   0.19313   0.02880   0.00000  Uiso   1.00
C141   C     0.99110   0.11114   0.09555   0.00000  Uiso   1.00
C142   C     0.95414   0.09960   0.05182   0.00000  Uiso   1.00
C143   C     0.67641   0.22412   0.23607   0.00000  Uiso   1.00
C144   C     0.83296   0.24597   0.16658   0.00000  Uiso   1.00
C145   C     0.71474   0.23611   0.27871   0.00000  Uiso   1.00
C146   C     0.72386   0.10241   0.28852   0.00000  Uiso   1.00
C147   C     0.72369   0.05876   0.30868   0.00000  Uiso   1.00
C148   C     0.90165   0.25855   0.04302   0.00000  Uiso   1.00
C149   C     0.95395   0.26877   0.02855   0.00000  Uiso   1.00
C150   C     0.73477   0.16610   0.15472   0.00000  Uiso   1.00
C151   C     0.93189   0.16764   0.17856   0.00000  Uiso   1.00
C152   C     0.67974   0.16317   0.14821   0.00000  Uiso   1.00
C153   C     0.98686   0.17126   0.18479   0.00000  Uiso   1.00
C154   C     0.82080   0.02144   0.12399   0.00000  Uiso   1.00
C155   C     0.84282   0.31190   0.20943   0.00000  Uiso   1.00
C156   C     0.82047   0.31212   0.12396   0.00000  Uiso   1.00
Cu157  Cu    0.83333   0.16667   0.21355   0.00000  Uiso   1.00
Cu158  Cu    0.83333   0.16666   0.11978   0.00000  Uiso   1.00
H159   H     0.81189   0.03765   0.09067   0.00000  Uiso   1.00
H160   H     0.95690   0.06615   0.04461   0.00000  Uiso   1.00
H161   H     0.91426   0.10636   0.05758   0.00000  Uiso   1.00
H162   H     0.97076   0.23312   0.24277   0.00000  Uiso   1.00
H163   H     0.68677   0.24165   0.20489   0.00000  Uiso   1.00
H164   H     0.75429   0.22988   0.27152   0.00000  Uiso   1.00
H165   H     0.71160   0.26949   0.28615   0.00000  Uiso   1.00
H166   H     0.70717   0.21804   0.31025   0.00000  Uiso   1.00
H167   H     0.69543   0.10286   0.25607   0.00000  Uiso   1.00
H168   H     0.71000   0.12509   0.31292   0.00000  Uiso   1.00
H169   H     0.75184   0.05596   0.00774   0.00000  Uiso   1.00
H170   H     0.85177   0.29571   0.24277   0.00000  Uiso   1.00
H171   H     0.68499   0.05083   0.31754   0.00000  Uiso   1.00
H172   H     0.73365   0.03642   0.28209   0.00000  Uiso   1.00
H173   H     0.89690   0.27834   0.07364   0.00000  Uiso   1.00
H174   H     0.87063   0.26725   0.01423   0.00000  Uiso   1.00
H175   H     0.96069   0.24994   0.33114   0.00000  Uiso   1.00
H176   H     0.95585   0.30189   0.01876   0.00000  Uiso   1.00
H177   H     0.98453   0.26243   0.05838   0.00000  Uiso   1.00
H178   H     0.81093   0.29609   0.09069   0.00000  Uiso   1.00
H179   H     0.85143   0.03721   0.24290   0.00000  Uiso   1.00
H180   H     0.77841   0.11919   0.03829   0.00000  Uiso   1.00
H181   H     0.89145   0.21189   0.29586   0.00000  Uiso   1.00
H182   H     0.98001   0.09288   0.12592   0.00000  Uiso   1.00
H183   H     0.69714   0.10264   0.08953   0.00000  Uiso   1.00
H184   H     0.96349   0.11744   0.02072   0.00000  Uiso   1.00
N185   N     0.83335   0.16668   0.28403   0.00000  Uiso   1.00
N186   N     0.83332   0.16666   0.04931   0.00000  Uiso   1.00
O187   O     0.83333   0.10655   0.20625   0.00000  Uiso   1.00
O188   O     0.67822   0.18107   0.22948   0.00000  Uiso   1.00
O189   O     0.77242   0.11211   0.27503   0.00000  Uiso   1.00
O190   O     0.90002   0.21691   0.05810   0.00000  Uiso   1.00
O191   O     0.83334   0.22678   0.12709   0.00000  Uiso   1.00
O192   O     0.83333   0.10654   0.12706   0.00000  Uiso   1.00
O193   O     0.83334   0.22679   0.20628   0.00000  Uiso   1.00
O194   O     0.75828   0.16667   0.19712   0.00000  Uiso   1.00
O195   O     0.90839   0.16666   0.13621   0.00000  Uiso   1.00
O196   O     0.75828   0.16666   0.11793   0.00000  Uiso   1.00
O197   O     0.90839   0.16667   0.21540   0.00000  Uiso   1.00
O198   O     0.98840   0.15402   0.10327   0.00000  Uiso   1.00
C199   C     0.16627   0.42070   0.16670   0.00000  Uiso   1.00
C200   C     0.17601   0.35453   0.20952   0.00000  Uiso   1.00
C201   C     0.16546   0.62391   0.16659   0.00000  Uiso   1.00
C202   C     0.16547   0.37609   0.16676   0.00000  Uiso   1.00
C203   C     0.13525   0.47382   0.02125   0.00000  Uiso   1.00
C204   C     0.19864   0.52569   0.31219   0.00000  Uiso   1.00
C205   C     0.13433   0.47392   0.30431   0.00000  Uiso   1.00
C206   C     0.19831   0.52646   0.02880   0.00000  Uiso   1.00
C207   C     0.32443   0.44448   0.09555   0.00000  Uiso   1.00
C208   C     0.28747   0.43293   0.05182   0.00000  Uiso   1.00
C209   C     0.00974   0.55745   0.23607   0.00000  Uiso   1.00
C210   C     0.16629   0.57930   0.16658   0.00000  Uiso   1.00
C211   C     0.04808   0.56944   0.27871   0.00000  Uiso   1.00
C212   C     0.05720   0.43575   0.28852   0.00000  Uiso   1.00
C213   C     0.05703   0.39209   0.30868   0.00000  Uiso   1.00
C214   C     0.23498   0.59188   0.04302   0.00000  Uiso   1.00
C215   C     0.28729   0.60210   0.02855   0.00000  Uiso   1.00
C216   C     0.06811   0.49943   0.15472   0.00000  Uiso   1.00
C217   C     0.26522   0.50097   0.17856   0.00000  Uiso   1.00
C218   C     0.01308   0.49651   0.14821   0.00000  Uiso   1.00
C219   C     0.32019   0.50460   0.18479   0.00000  Uiso   1.00
C220   C     0.15414   0.35477   0.12399   0.00000  Uiso   1.00
C221   C     0.17615   0.64523   0.20943   0.00000  Uiso   1.00
C222   C     0.15380   0.64546   0.12396   0.00000  Uiso   1.00
Cu223  Cu    0.16667   0.50001   0.21355   0.00000  Uiso   1.00
Cu224  Cu    0.16667   0.49999   0.11978   0.00000  Uiso   1.00
H225   H     0.14522   0.37099   0.09067   0.00000  Uiso   1.00
H226   H     0.29023   0.39948   0.04461   0.00000  Uiso   1.00
H227   H     0.24759   0.43969   0.05758   0.00000  Uiso   1.00
H228   H     0.30410   0.56646   0.24277   0.00000  Uiso   1.00
H229   H     0.02011   0.57498   0.20489   0.00000  Uiso   1.00
H230   H     0.08762   0.56321   0.27152   0.00000  Uiso   1.00
H231   H     0.04493   0.60282   0.28615   0.00000  Uiso   1.00
H232   H     0.04050   0.55137   0.31025   0.00000  Uiso   1.00
H233   H     0.02876   0.43620   0.25607   0.00000  Uiso   1.00
H234   H     0.04334   0.45843   0.31292   0.00000  Uiso   1.00
H235   H     0.08518   0.38929   0.00774   0.00000  Uiso   1.00
H236   H     0.18511   0.62904   0.24277   0.00000  Uiso   1.00
H237   H     0.01833   0.38416   0.31754   0.00000  Uiso   1.00
H238   H     0.06698   0.36976   0.28209   0.00000  Uiso   1.00
H239   H     0.23023   0.61167   0.07364   0.00000  Uiso   1.00
H240   H     0.20396   0.60058   0.01423   0.00000  Uiso   1.00
H241   H     0.29403   0.58327   0.33114   0.00000  Uiso   1.00
H242   H     0.28918   0.63523   0.01876   0.00000  Uiso   1.00
H243   H     0.31786   0.59576   0.05838   0.00000  Uiso   1.00
H244   H     0.14427   0.62942   0.09069   0.00000  Uiso   1.00
H245   H     0.18476   0.37055   0.24290   0.00000  Uiso   1.00
H246   H     0.11174   0.45252   0.03829   0.00000  Uiso   1.00
H247   H     0.22479   0.54523   0.29586   0.00000  Uiso   1.00
H248   H     0.31334   0.42622   0.12592   0.00000  Uiso   1.00
H249   H     0.03047   0.43597   0.08953   0.00000  Uiso   1.00
H250   H     0.29683   0.45077   0.02072   0.00000  Uiso   1.00
N251   N     0.16668   0.50001   0.28403   0.00000  Uiso   1.00
N252   N     0.16665   0.49999   0.04931   0.00000  Uiso   1.00
O253   O     0.16666   0.43989   0.20625   0.00000  Uiso   1.00
O254   O     0.01155   0.51440   0.22948   0.00000  Uiso   1.00
O255   O     0.10575   0.44544   0.27503   0.00000  Uiso   1.00
O256   O     0.23335   0.55025   0.05810   0.00000  Uiso   1.00
O257   O     0.16667   0.56011   0.12709   0.00000  Uiso   1.00
O258   O     0.16666   0.43988   0.12706   0.00000  Uiso   1.00
O259   O     0.16667   0.56012   0.20628   0.00000  Uiso   1.00
O260   O     0.09161   0.50000   0.19712   0.00000  Uiso   1.00
O261   O     0.24172   0.50000   0.13621   0.00000  Uiso   1.00
O262   O     0.09161   0.49999   0.11793   0.00000  Uiso   1.00
O263   O     0.24172   0.50001   0.21540   0.00000  Uiso   1.00
O264   O     0.32174   0.48735   0.10327   0.00000  Uiso   1.00
C265   C     0.49960   0.42070   0.16670   0.00000  Uiso   1.00
C266   C     0.50934   0.35453   0.20952   0.00000  Uiso   1.00
C267   C     0.49880   0.62391   0.16659   0.00000  Uiso   1.00
C268   C     0.49880   0.37609   0.16676   0.00000  Uiso   1.00
C269   C     0.46858   0.47382   0.02125   0.00000  Uiso   1.00
C270   C     0.53198   0.52569   0.31219   0.00000  Uiso   1.00
C271   C     0.46766   0.47392   0.30431   0.00000  Uiso   1.00
C272   C     0.53164   0.52646   0.02880   0.00000  Uiso   1.00
C273   C     0.65776   0.44448   0.09555   0.00000  Uiso   1.00
C274   C     0.62081   0.43293   0.05182   0.00000  Uiso   1.00
C275   C     0.34307   0.55745   0.23607   0.00000  Uiso   1.00
C276   C     0.49962   0.57930   0.16658   0.00000  Uiso   1.00
C277   C     0.38141   0.56944   0.27871   0.00000  Uiso   1.00
C278   C     0.39053   0.43575   0.28852   0.00000  Uiso   1.00
C279   C     0.39036   0.39209   0.30868   0.00000  Uiso   1.00
C280   C     0.56831   0.59188   0.04302   0.00000  Uiso   1.00
C281   C     0.62062   0.60210   0.02855   0.00000  Uiso   1.00
C282   C     0.40144   0.49943   0.15472   0.00000  Uiso   1.00
C283   C     0.59855   0.50097   0.17856   0.00000  Uiso   1.00
C284   C     0.34641   0.49651   0.14821   0.00000  Uiso   1.00
C285   C     0.65352   0.50460   0.18479   0.00000  Uiso   1.00
C286   C     0.48747   0.35477   0.12399   0.00000  Uiso   1.00
C287   C     0.50948   0.64523   0.20943   0.00000  Uiso   1.00
C288   C     0.48713   0.64546   0.12396   0.00000  Uiso   1.00
Cu289  Cu    0.50000   0.50001   0.21355   0.00000  Uiso   1.00
Cu290  Cu    0.50000   0.49999   0.11978   0.00000  Uiso   1.00
H291   H     0.47856   0.37099   0.09067   0.00000  Uiso   1.00
H292   H     0.62356   0.39948   0.04461   0.00000  Uiso   1.00
H293   H     0.58093   0.43969   0.05758   0.00000  Uiso   1.00
H294   H     0.63743   0.56646   0.24277   0.00000  Uiso   1.00
H295   H     0.35344   0.57498   0.20489   0.00000  Uiso   1.00
H296   H     0.42096   0.56321   0.27152   0.00000  Uiso   1.00
H297   H     0.37827   0.60282   0.28615   0.00000  Uiso   1.00
H298   H     0.37384   0.55137   0.31025   0.00000  Uiso   1.00
H299   H     0.36210   0.43620   0.25607   0.00000  Uiso   1.00
H300   H     0.37667   0.45843   0.31292   0.00000  Uiso   1.00
H301   H     0.41851   0.38929   0.00774   0.00000  Uiso   1.00
H302   H     0.51844   0.62904   0.24277   0.00000  Uiso   1.00
H303   H     0.35166   0.38416   0.31754   0.00000  Uiso   1.00
H304   H     0.40031   0.36976   0.28209   0.00000  Uiso   1.00
H305   H     0.56356   0.61167   0.07364   0.00000  Uiso   1.00
H306   H     0.53729   0.60058   0.01423   0.00000  Uiso   1.00
H307   H     0.62736   0.58327   0.33114   0.00000  Uiso   1.00
H308   H     0.62252   0.63523   0.01876   0.00000  Uiso   1.00
H309   H     0.65120   0.59576   0.05838   0.00000  Uiso   1.00
H310   H     0.47760   0.62942   0.09069   0.00000  Uiso   1.00
H311   H     0.51810   0.37055   0.24290   0.00000  Uiso   1.00
H312   H     0.44507   0.45252   0.03829   0.00000  Uiso   1.00
H313   H     0.55812   0.54523   0.29586   0.00000  Uiso   1.00
H314   H     0.64668   0.42622   0.12592   0.00000  Uiso   1.00
H315   H     0.36381   0.43597   0.08953   0.00000  Uiso   1.00
H316   H     0.63016   0.45077   0.02072   0.00000  Uiso   1.00
N317   N     0.50001   0.50001   0.28403   0.00000  Uiso   1.00
N318   N     0.49999   0.49999   0.04931   0.00000  Uiso   1.00
O319   O     0.50000   0.43989   0.20625   0.00000  Uiso   1.00
O320   O     0.34488   0.51440   0.22948   0.00000  Uiso   1.00
O321   O     0.43909   0.44544   0.27503   0.00000  Uiso   1.00
O322   O     0.56669   0.55025   0.05810   0.00000  Uiso   1.00
O323   O     0.50000   0.56011   0.12709   0.00000  Uiso   1.00
O324   O     0.50000   0.43988   0.12706   0.00000  Uiso   1.00
O325   O     0.50000   0.56012   0.20628   0.00000  Uiso   1.00
O326   O     0.42495   0.50000   0.19712   0.00000  Uiso   1.00
O327   O     0.57505   0.50000   0.13621   0.00000  Uiso   1.00
O328   O     0.42494   0.49999   0.11793   0.00000  Uiso   1.00
O329   O     0.57506   0.50001   0.21540   0.00000  Uiso   1.00
O330   O     0.65507   0.48735   0.10327   0.00000  Uiso   1.00
C331   C     0.83293   0.42070   0.16670   0.00000  Uiso   1.00
C332   C     0.84267   0.35453   0.20952   0.00000  Uiso   1.00
C333   C     0.83213   0.62391   0.16659   0.00000  Uiso   1.00
C334   C     0.83214   0.37609   0.16676   0.00000  Uiso   1.00
C335   C     0.80192   0.47382   0.02125   0.00000  Uiso   1.00
C336   C     0.86531   0.52569   0.31219   0.00000  Uiso   1.00
C337   C     0.80100   0.47392   0.30431   0.00000  Uiso   1.00
C338   C     0.86497   0.52646   0.02880   0.00000  Uiso   1.00
C339   C     0.99110   0.44448   0.09555   0.00000  Uiso   1.00
C340   C     0.95414   0.43293   0.05182   0.00000  Uiso   1.00
C341   C     0.67641   0.55745   0.23607   0.00000  Uiso   1.00
C342   C     0.83296   0.57930   0.16658   0.00000  Uiso   1.00
C343   C     0.71474   0.56944   0.27871   0.00000  Uiso   1.00
C344   C     0.72386   0.43575   0.28852   0.00000  Uiso   1.00
C345   C     0.72369   0.39209   0.30868   0.00000  Uiso   1.00
C346   C     0.90165   0.59188   0.04302   0.00000  Uiso   1.00
C347   C     0.95395   0.60210   0.02855   0.00000  Uiso   1.00
C348   C     0.73477   0.49943   0.15472   0.00000  Uiso   1.00
C349   C     0.93189   0.50097   0.17856   0.00000  Uiso   1.00
C350   C     0.67974   0.49651   0.14821   0.00000  Uiso   1.00
C351   C     0.98686   0.50460   0.18479   0.00000  Uiso   1.00
C352   C     0.82080   0.35477   0.12399   0.00000  Uiso   1.00
C353   C     0.84282   0.64523   0.20943   0.00000  Uiso   1.00
C354   C     0.82047   0.64546   0.12396   0.00000  Uiso   1.00
Cu355  Cu    0.83333   0.50001   0.21355   0.00000  Uiso   1.00
Cu356  Cu    0.83333   0.49999   0.11978   0.00000  Uiso   1.00
H357   H     0.81189   0.37099   0.09067   0.00000  Uiso   1.00
H358   H     0.95690   0.39948   0.04461   0.00000  Uiso   1.00
H359   H     0.91426   0.43969   0.05758   0.00000  Uiso   1.00
H360   H     0.97076   0.56646   0.24277   0.00000  Uiso   1.00
H361   H     0.68677   0.57498   0.20489   0.00000  Uiso   1.00
H362   H     0.75429   0.56321   0.27152   0.00000  Uiso   1.00
H363   H     0.71160   0.60282   0.28615   0.00000  Uiso   1.00
H364   H     0.70717   0.55137   0.31025   0.00000  Uiso   1.00
H365   H     0.69543   0.43620   0.25607   0.00000  Uiso   1.00
H366   H     0.71000   0.45843   0.31292   0.00000  Uiso   1.00
H367   H     0.75184   0.38929   0.00774   0.00000  Uiso   1.00
H368   H     0.85177   0.62904   0.24277   0.00000  Uiso   1.00
H369   H     0.68499   0.38416   0.31754   0.00000  Uiso   1.00
H370   H     0.73365   0.36976   0.28209   0.00000  Uiso   1.00
H371   H     0.89690   0.61167   0.07364   0.00000  Uiso   1.00
H372   H     0.87063   0.60058   0.01423   0.00000  Uiso   1.00
H373   H     0.96069   0.58327   0.33114   0.00000  Uiso   1.00
H374   H     0.95585   0.63523   0.01876   0.00000  Uiso   1.00
H375   H     0.98453   0.59576   0.05838   0.00000  Uiso   1.00
H376   H     0.81093   0.62942   0.09069   0.00000  Uiso   1.00
H377   H     0.85143   0.37055   0.24290   0.00000  Uiso   1.00
H378   H     0.77841   0.45252   0.03829   0.00000  Uiso   1.00
H379   H     0.89145   0.54523   0.29586   0.00000  Uiso   1.00
H380   H     0.98001   0.42622   0.12592   0.00000  Uiso   1.00
H381   H     0.69714   0.43597   0.08953   0.00000  Uiso   1.00
H382   H     0.96349   0.45077   0.02072   0.00000  Uiso   1.00
N383   N     0.83335   0.50001   0.28403   0.00000  Uiso   1.00
N384   N     0.83332   0.49999   0.04931   0.00000  Uiso   1.00
O385   O     0.83333   0.43989   0.20625   0.00000  Uiso   1.00
O386   O     0.67822   0.51440   0.22948   0.00000  Uiso   1.00
O387   O     0.77242   0.44544   0.27503   0.00000  Uiso   1.00
O388   O     0.90002   0.55025   0.05810   0.00000  Uiso   1.00
O389   O     0.83334   0.56011   0.12709   0.00000  Uiso   1.00
O390   O     0.83333   0.43988   0.12706   0.00000  Uiso   1.00
O391   O     0.83334   0.56012   0.20628   0.00000  Uiso   1.00
O392   O     0.75828   0.50000   0.19712   0.00000  Uiso   1.00
O393   O     0.90839   0.50000   0.13621   0.00000  Uiso   1.00
O394   O     0.75828   0.49999   0.11793   0.00000  Uiso   1.00
O395   O     0.90839   0.50001   0.21540   0.00000  Uiso   1.00
O396   O     0.98840   0.48735   0.10327   0.00000  Uiso   1.00
C397   C     0.16627   0.75403   0.16670   0.00000  Uiso   1.00
C398   C     0.17601   0.68787   0.20952   0.00000  Uiso   1.00
C399   C     0.16546   0.95724   0.16659   0.00000  Uiso   1.00
C400   C     0.16547   0.70942   0.16676   0.00000  Uiso   1.00
C401   C     0.13525   0.80716   0.02125   0.00000  Uiso   1.00
C402   C     0.19864   0.85902   0.31219   0.00000  Uiso   1.00
C403   C     0.13433   0.80725   0.30431   0.00000  Uiso   1.00
C404   C     0.19831   0.85980   0.02880   0.00000  Uiso   1.00
C405   C     0.32443   0.77781   0.09555   0.00000  Uiso   1.00
C406   C     0.28747   0.76626   0.05182   0.00000  Uiso   1.00
C407   C     0.00974   0.89079   0.23607   0.00000  Uiso   1.00
C408   C     0.16629   0.91263   0.16658   0.00000  Uiso   1.00
C409   C     0.04808   0.90278   0.27871   0.00000  Uiso   1.00
C410   C     0.05720   0.76908   0.28852   0.00000  Uiso   1.00
C411   C     0.05703   0.72542   0.30868   0.00000  Uiso   1.00
C412   C     0.23498   0.92522   0.04302   0.00000  Uiso   1.00
C413   C     0.28729   0.93544   0.02855   0.00000  Uiso   1.00
C414   C     0.06811   0.83276   0.15472   0.00000  Uiso   1.00
C415   C     0.26522   0.83431   0.17856   0.00000  Uiso   1.00
C416   C     0.01308   0.82984   0.14821   0.00000  Uiso   1.00
C417   C     0.32019   0.83793   0.18479   0.00000  Uiso   1.00
C418   C     0.15414   0.68811   0.12399   0.00000  Uiso   1.00
C419   C     0.17615   0.97856   0.20943   0.00000  Uiso   1.00
C420   C     0.15380   0.97879   0.12396   0.00000  Uiso   1.00
Cu421  Cu    0.16667   0.83334   0.21355   0.00000  Uiso   1.00
Cu422  Cu    0.16667   0.83333   0.11978   0.00000  Uiso   1.00
H423   H     0.14522   0.70432   0.09067   0.00000  Uiso   1.00
H424   H     0.29023   0.73282   0.04461   0.00000  Uiso   1.00
H425   H     0.24759   0.77302   0.05758   0.00000  Uiso   1.00
H426   H     0.30410   0.89979   0.24277   0.00000  Uiso   1.00
H427   H     0.02011   0.90832   0.20489   0.00000  Uiso   1.00
H428   H     0.08762   0.89654   0.27152   0.00000  Uiso   1.00
H429   H     0.04493   0.93615   0.28615   0.00000  Uiso   1.00
H430   H     0.04050   0.88470   0.31025   0.00000  Uiso   1.00
H431   H     0.02876   0.76953   0.25607   0.00000  Uiso   1.00
H432   H     0.04334   0.79176   0.31292   0.00000  Uiso   1.00
H433   H     0.08518   0.72263   0.00774   0.00000  Uiso   1.00
H434   H     0.18511   0.96238   0.24277   0.00000  Uiso   1.00
H435   H     0.01833   0.71750   0.31754   0.00000  Uiso   1.00
H436   H     0.06698   0.70309   0.28209   0.00000  Uiso   1.00
H437   H     0.23023   0.94501   0.07364   0.00000  Uiso   1.00
H438   H     0.20396   0.93391   0.01423   0.00000  Uiso   1.00
H439   H     0.29403   0.91661   0.33114   0.00000  Uiso   1.00
H440   H     0.28918   0.96856   0.01876   0.00000  Uiso   1.00
H441   H     0.31786   0.92909   0.05838   0.00000  Uiso   1.00
H442   H     0.14427   0.96276   0.09069   0.00000  Uiso   1.00
H443   H     0.18476   0.70388   0.24290   0.00000  Uiso   1.00
H444   H     0.11174   0.78586   0.03829   0.00000  Uiso   1.00
H445   H     0.22479   0.87856   0.29586   0.00000  Uiso   1.00
H446   H     0.31334   0.75955   0.12592   0.00000  Uiso   1.00
H447   H     0.03047   0.76931   0.08953   0.00000  Uiso   1.00
H448   H     0.29683   0.78410   0.02072   0.00000  Uiso   1.00
N449   N     0.16668   0.83334   0.28403   0.00000  Uiso   1.00
N450   N     0.16665   0.83332   0.04931   0.00000  Uiso   1.00
O451   O     0.16666   0.77322   0.20625   0.00000  Uiso   1.00
O452   O     0.01155   0.84773   0.22948   0.00000  Uiso   1.00
O453   O     0.10575   0.77877   0.27503   0.00000  Uiso   1.00
O454   O     0.23335   0.88358   0.05810   0.00000  Uiso   1.00
O455   O     0.16667   0.89345   0.12709   0.00000  Uiso   1.00
O456   O     0.16666   0.77321   0.12706   0.00000  Uiso   1.00
O457   O     0.16667   0.89346   0.20628   0.00000  Uiso   1.00
O458   O     0.09161   0.83334   0.19712   0.00000  Uiso   1.00
O459   O     0.24172   0.83333   0.13621   0.00000  Uiso   1.00
O460   O     0.09161   0.83333   0.11793   0.00000  Uiso   1.00
O461   O     0.24172   0.83334   0.21540   0.00000  Uiso   1.00
O462   O     0.32174   0.82068   0.10327   0.00000  Uiso   1.00
C463   C     0.49960   0.75403   0.16670   0.00000  Uiso   1.00
C464   C     0.50934   0.68787   0.20952   0.00000  Uiso   1.00
C465   C     0.49880   0.95724   0.16659   0.00000  Uiso   1.00
C466   C     0.49880   0.70942   0.16676   0.00000  Uiso   1.00
C467   C     0.46858   0.80716   0.02125   0.00000  Uiso   1.00
C468   C     0.53198   0.85902   0.31219   0.00000  Uiso   1.00
C469   C     0.46766   0.80725   0.30431   0.00000  Uiso   1.00
C470   C     0.53164   0.85980   0.02880   0.00000  Uiso   1.00
C471   C     0.65776   0.77781   0.09555   0.00000  Uiso   1.00
C472   C     0.62081   0.76626   0.05182   0.00000  Uiso   1.00
C473   C     0.34307   0.89079   0.23607   0.00000  Uiso   1.00
C474   C     0.49962   0.91263   0.16658   0.00000  Uiso   1.00
C475   C     0.38141   0.90278   0.27871   0.00000  Uiso   1.00
C476   C     0.39053   0.76908   0.28852   0.00000  Uiso   1.00
C477   C     0.39036   0.72542   0.30868   0.00000  Uiso   1.00
C478   C     0.56831   0.92522   0.04302   0.00000  Uiso   1.00
C479   C     0.62062   0.93544   0.02855   0.00000  Uiso   1.00
C480   C     0.40144   0.83276   0.15472   0.00000  Uiso   1.00
C481   C     0.59855   0.83431   0.17856   0.00000  Uiso   1.00
C482   C     0.34641   0.82984   0.14821   0.00000  Uiso   1.00
C483   C     0.65352   0.83793   0.18479   0.00000  Uiso   1.00
C484   C     0.48747   0.68811   0.12399   0.00000  Uiso   1.00
C485   C     0.50948   0.97856   0.20943   0.00000  Uiso   1.00
C486   C     0.48713   0.97879   0.12396   0.00000  Uiso   1.00
Cu487  Cu    0.50000   0.83334   0.21355   0.00000  Uiso   1.00
Cu488  Cu    0.50000   0.83333   0.11978   0.00000  Uiso   1.00
H489   H     0.47856   0.70432   0.09067   0.00000  Uiso   1.00
H490   H     0.62356   0.73282   0.04461   0.00000  Uiso   1.00
H491   H     0.58093   0.77302   0.05758   0.00000  Uiso   1.00
H492   H     0.63743   0.89979   0.24277   0.00000  Uiso   1.00
H493   H     0.35344   0.90832   0.20489   0.00000  Uiso   1.00
H494   H     0.42096   0.89654   0.27152   0.00000  Uiso   1.00
H495   H     0.37827   0.93615   0.28615   0.00000  Uiso   1.00
H496   H     0.37384   0.88470   0.31025   0.00000  Uiso   1.00
H497   H     0.36210   0.76953   0.25607   0.00000  Uiso   1.00
H498   H     0.37667   0.79176   0.31292   0.00000  Uiso   1.00
H499   H     0.41851   0.72263   0.00774   0.00000  Uiso   1.00
H500   H     0.51844   0.96238   0.24277   0.00000  Uiso   1.00
H501   H     0.35166   0.71750   0.31754   0.00000  Uiso   1.00
H502   H     0.40031   0.70309   0.28209   0.00000  Uiso   1.00
H503   H     0.56356   0.94501   0.07364   0.00000  Uiso   1.00
H504   H     0.53729   0.93391   0.01423   0.00000  Uiso   1.00
H505   H     0.62736   0.91661   0.33114   0.00000  Uiso   1.00
H506   H     0.62252   0.96856   0.01876   0.00000  Uiso   1.00
H507   H     0.65120   0.92909   0.05838   0.00000  Uiso   1.00
H508   H     0.47760   0.96276   0.09069   0.00000  Uiso   1.00
H509   H     0.51810   0.70388   0.24290   0.00000  Uiso   1.00
H510   H     0.44507   0.78586   0.03829   0.00000  Uiso   1.00
H511   H     0.55812   0.87856   0.29586   0.00000  Uiso   1.00
H512   H     0.64668   0.75955   0.12592   0.00000  Uiso   1.00
H513   H     0.36381   0.76931   0.08953   0.00000  Uiso   1.00
H514   H     0.63016   0.78410   0.02072   0.00000  Uiso   1.00
N515   N     0.50001   0.83334   0.28403   0.00000  Uiso   1.00
N516   N     0.49999   0.83332   0.04931   0.00000  Uiso   1.00
O517   O     0.50000   0.77322   0.20625   0.00000  Uiso   1.00
O518   O     0.34488   0.84773   0.22948   0.00000  Uiso   1.00
O519   O     0.43909   0.77877   0.27503   0.00000  Uiso   1.00
O520   O     0.56669   0.88358   0.05810   0.00000  Uiso   1.00
O521   O     0.50000   0.89345   0.12709   0.00000  Uiso   1.00
O522   O     0.50000   0.77321   0.12706   0.00000  Uiso   1.00
O523   O     0.50000   0.89346   0.20628   0.00000  Uiso   1.00
O524   O     0.42495   0.83334   0.19712   0.00000  Uiso   1.00
O525   O     0.57505   0.83333   0.13621   0.00000  Uiso   1.00
O526   O     0.42494   0.83333   0.11793   0.00000  Uiso   1.00
O527   O     0.57506   0.83334   0.21540   0.00000  Uiso   1.00
O528   O     0.65507   0.82068   0.10327   0.00000  Uiso   1.00
C529   C     0.83293   0.75403   0.16670   0.00000  Uiso   1.00
C530   C     0.84267   0.68787   0.20952   0.00000  Uiso   1.00
C531   C     0.83213   0.95724   0.16659   0.00000  Uiso   1.00
C532   C     0.83214   0.70942   0.16676   0.00000  Uiso   1.00
C533   C     0.80192   0.80716   0.02125   0.00000  Uiso   1.00
C534   C     0.86531   0.85902   0.31219   0.00000  Uiso   1.00
C535   C     0.80100   0.80725   0.30431   0.00000  Uiso   1.00
C536   C     0.86497   0.85980   0.02880   0.00000  Uiso   1.00
C537   C     0.99110   0.77781   0.09555   0.00000  Uiso   1.00
C538   C     0.95414   0.76626   0.05182   0.00000  Uiso   1.00
C539   C     0.67641   0.89079   0.23607   0.00000  Uiso   1.00
C540   C     0.83296   0.91263   0.16658   0.00000  Uiso   1.00
C541   C     0.71474   0.90278   0.27871   0.00000  Uiso   1.00
C542   C     0.72386   0.76908   0.28852   0.00000  Uiso   1.00
C543   C     0.72369   0.72542   0.30868   0.00000  Uiso   1.00
C544   C     0.90165   0.92522   0.04302   0.00000  Uiso   1.00
C545   C     0.95395   0.93544   0.02855   0.00000  Uiso   1.00
C546   C     0.73477   0.83276   0.15472   0.00000  Uiso   1.00
C547   C     0.93189   0.83431   0.17856   0.00000  Uiso   1.00
C548   C     0.67974   0.82984   0.14821   0.00000  Uiso   1.00
C549   C     0.98686   0.83793   0.18479   0.00000  Uiso   1.00
C550   C     0.82080   0.68811   0.12399   0.00000  Uiso   1.00
C551   C     0.84282   0.97856   0.20943   0.00000  Uiso   1.00
C552   C     0.82047   0.97879   0.12396   0.00000  Uiso   1.00
Cu553  Cu    0.83333   0.83334   0.21355   0.00000  Uiso   1.00
Cu554  Cu    0.83333   0.83333   0.11978   0.00000  Uiso   1.00
H555   H     0.81189   0.70432   0.09067   0.00000  Uiso   1.00
H556   H     0.95690   0.73282   0.04461   0.00000  Uiso   1.00
H557   H     0.91426   0.77302   0.05758   0.00000  Uiso   1.00
H558   H     0.97076   0.89979   0.24277   0.00000  Uiso   1.00
H559   H     0.68677   0.90832   0.20489   0.00000  Uiso   1.00
H560   H     0.75429   0.89654   0.27152   0.00000  Uiso   1.00
H561   H     0.71160   0.93615   0.28615   0.00000  Uiso   1.00
H562   H     0.70717   0.88470   0.31025   0.00000  Uiso   1.00
H563   H     0.69543   0.76953   0.25607   0.00000  Uiso   1.00
H564   H     0.71000   0.79176   0.31292   0.00000  Uiso   1.00
H565   H     0.75184   0.72263   0.00774   0.00000  Uiso   1.00
H566   H     0.85177   0.96238   0.24277   0.00000  Uiso   1.00
H567   H     0.68499   0.71750   0.31754   0.00000  Uiso   1.00
H568   H     0.73365   0.70309   0.28209   0.00000  Uiso   1.00
H569   H     0.89690   0.94501   0.07364   0.00000  Uiso   1.00
H570   H     0.87063   0.93391   0.01423   0.00000  Uiso   1.00
H571   H     0.96069   0.91661   0.33114   0.00000  Uiso   1.00
H572   H     0.95585   0.96856   0.01876   0.00000  Uiso   1.00
H573   H     0.98453   0.92909   0.05838   0.00000  Uiso   1.00
H574   H     0.81093   0.96276   0.09069   0.00000  Uiso   1.00
H575   H     0.85143   0.70388   0.24290   0.00000  Uiso   1.00
H576   H     0.77841   0.78586   0.03829   0.00000  Uiso   1.00
H577   H     0.89145   0.87856   0.29586   0.00000  Uiso   1.00
H578   H     0.98001   0.75955   0.12592   0.00000  Uiso   1.00
H579   H     0.69714   0.76931   0.08953   0.00000  Uiso   1.00
H580   H     0.96349   0.78410   0.02072   0.00000  Uiso   1.00
N581   N     0.83335   0.83334   0.28403   0.00000  Uiso   1.00
N582   N     0.83332   0.83332   0.04931   0.00000  Uiso   1.00
O583   O     0.83333   0.77322   0.20625   0.00000  Uiso   1.00
O584   O     0.67822   0.84773   0.22948   0.00000  Uiso   1.00
O585   O     0.77242   0.77877   0.27503   0.00000  Uiso   1.00
O586   O     0.90002   0.88358   0.05810   0.00000  Uiso   1.00
O587   O     0.83334   0.89345   0.12709   0.00000  Uiso   1.00
O588   O     0.83333   0.77321   0.12706   0.00000  Uiso   1.00
O589   O     0.83334   0.89346   0.20628   0.00000  Uiso   1.00
O590   O     0.75828   0.83334   0.19712   0.00000  Uiso   1.00
O591   O     0.90839   0.83333   0.13621   0.00000  Uiso   1.00
O592   O     0.75828   0.83333   0.11793   0.00000  Uiso   1.00
O593   O     0.90839   0.83334   0.21540   0.00000  Uiso   1.00
O594   O     0.98840   0.82068   0.10327   0.00000  Uiso   1.00
C595   C     0.16627   0.08737   0.50003   0.00000  Uiso   1.00
C596   C     0.17601   0.02120   0.54285   0.00000  Uiso   1.00
C597   C     0.16546   0.29057   0.49993   0.00000  Uiso   1.00
C598   C     0.16547   0.04276   0.50009   0.00000  Uiso   1.00
C599   C     0.13525   0.14049   0.35458   0.00000  Uiso   1.00
C600   C     0.19864   0.19236   0.64553   0.00000  Uiso   1.00
C601   C     0.13433   0.14059   0.63764   0.00000  Uiso   1.00
C602   C     0.19831   0.19313   0.36213   0.00000  Uiso   1.00
C603   C     0.32443   0.11114   0.42889   0.00000  Uiso   1.00
C604   C     0.28747   0.09960   0.38515   0.00000  Uiso   1.00
C605   C     0.00974   0.22412   0.56940   0.00000  Uiso   1.00
C606   C     0.16629   0.24597   0.49991   0.00000  Uiso   1.00
C607   C     0.04808   0.23611   0.61204   0.00000  Uiso   1.00
C608   C     0.05720   0.10241   0.62185   0.00000  Uiso   1.00
C609   C     0.05703   0.05876   0.64201   0.00000  Uiso   1.00
C610   C     0.23498   0.25855   0.37635   0.00000  Uiso   1.00
C611   C     0.28729   0.26877   0.36188   0.00000  Uiso   1.00
C612   C     0.06811   0.16610   0.48805   0.00000  Uiso   1.00
C613   C     0.26522   0.16764   0.51190   0.00000  Uiso   1.00
C614   C     0.01308   0.16317   0.48154   0.00000  Uiso   1.00
C615   C     0.32019   0.17126   0.51813   0.00000  Uiso   1.00
C616   C     0.15414   0.02144   0.45733   0.00000  Uiso   1.00
C617   C     0.17615   0.31190   0.54276   0.00000  Uiso   1.00
C618   C     0.15380   0.31212   0.45729   0.00000  Uiso   1.00
Cu619  Cu    0.16667   0.16667   0.54689   0.00000  Uiso   1.00
Cu620  Cu    0.16667   0.16666   0.45311   0.00000  Uiso   1.00
H621   H     0.14522   0.03765   0.42400   0.00000  Uiso   1.00
H622   H     0.29023   0.06615   0.37794   0.00000  Uiso   1.00
H623   H     0.24759   0.10636   0.39092   0.00000  Uiso   1.00
H624   H     0.30410   0.23312   0.57611   0.00000  Uiso   1.00
H625   H     0.02011   0.24165   0.53822   0.00000  Uiso   1.00
H626   H     0.08762   0.22988   0.60485   0.00000  Uiso   1.00
H627   H     0.04493   0.26949   0.61948   0.00000  Uiso   1.00
H628   H     0.04050   0.21804   0.64359   0.00000  Uiso   1.00
H629   H     0.02876   0.10286   0.58941   0.00000  Uiso   1.00
H630   H     0.04334   0.12509   0.64625   0.00000  Uiso   1.00
H631   H     0.08518   0.05596   0.34107   0.00000  Uiso   1.00
H632   H     0.18511   0.29571   0.57611   0.00000  Uiso   1.00
H633   H     0.01833   0.05083   0.65087   0.00000  Uiso   1.00
H634   H     0.06698   0.03642   0.61543   0.00000  Uiso   1.00
H635   H     0.23023   0.27834   0.40697   0.00000  Uiso   1.00
H636   H     0.20396   0.26725   0.34756   0.00000  Uiso   1.00
H637   H     0.29403   0.24994   0.66447   0.00000  Uiso   1.00
H638   H     0.28918   0.30189   0.35209   0.00000  Uiso   1.00
H639   H     0.31786   0.26243   0.39172   0.00000  Uiso   1.00
H640   H     0.14427   0.29609   0.42402   0.00000  Uiso   1.00
H641   H     0.18476   0.03721   0.57623   0.00000  Uiso   1.00
H642   H     0.11174   0.11919   0.37163   0.00000  Uiso   1.00
H643   H     0.22479   0.21189   0.62920   0.00000  Uiso   1.00
H644   H     0.31334   0.09288   0.45926   0.00000  Uiso   1.00
H645   H     0.03047   0.10264   0.42287   0.00000  Uiso   1.00
H646   H     0.29683   0.11744   0.35406   0.00000  Uiso   1.00
N647   N     0.16668   0.16668   0.61736   0.00000  Uiso   1.00
N648   N     0.16665   0.16666   0.38264   0.00000  Uiso   1.00
O649   O     0.16666   0.10655   0.53958   0.00000  Uiso   1.00
O650   O     0.01155   0.18107   0.56282   0.00000  Uiso   1.00
O651   O     0.10575   0.11211   0.60837   0.00000  Uiso   1.00
O652   O     0.23335   0.21691   0.39143   0.00000  Uiso   1.00
O653   O     0.16667   0.22678   0.46042   0.00000  Uiso   1.00
O654   O     0.16666   0.10654   0.46039   0.00000  Uiso   1.00
O655   O     0.16667   0.22679   0.53961   0.00000  Uiso   1.00
O656   O     0.09161   0.16667   0.53046   0.00000  Uiso   1.00
O657   O     0.24172   0.16666   0.46954   0.00000  Uiso   1.00
O658   O     0.09161   0.16666   0.45127   0.00000  Uiso   1.00
O659   O     0.24172   0.16667   0.54873   0.00000  Uiso   1.00
O660   O     0.32174   0.15402   0.43661   0.00000  Uiso   1.00
C661   C     0.49960   0.08737   0.50003   0.00000  Uiso   1.00
C662   C     0.50934   0.02120   0.54285   0.00000  Uiso   1.00
C663   C     0.49880   0.29057   0.49993   0.00000  Uiso   1.00
C664   C     0.49880   0.04276   0.50009   0.00000  Uiso   1.00
C665   C     0.46858   0.14049   0.35458   0.00000  Uiso   1.00
C666   C     0.53198   0.19236   0.64553   0.00000  Uiso   1.00
C667   C     0.46766   0.14059   0.63764   0.00000  Uiso   1.00
C668   C     0.53164   0.19313   0.36213   0.00000  Uiso   1.00
C669   C     0.65776   0.11114   0.42889   0.00000  Uiso   1.00
C670   C     0.62081   0.09960   0.38515   0.00000  Uiso   1.00
C671   C     0.34307   0.22412   0.56940   0.00000  Uiso   1.00
C672   C     0.49962   0.24597   0.49991   0.00000  Uiso   1.00
C673   C     0.38141   0.23611   0.61204   0.00000  Uiso   1.00
C674   C     0.39053   0.10241   0.62185   0.00000  Uiso   1.00
C675   C     0.39036   0.05876   0.64201   0.00000  Uiso   1.00
C676   C     0.56831   0.25855   0.37635   0.00000  Uiso   1.00
C677   C     0.62062   0.26877   0.36188   0.00000  Uiso   1.00
C678   C     0.40144   0.16610   0.48805   0.00000  Uiso   1.00
C679   C     0.59855   0.16764   0.51190   0.00000  Uiso   1.00
C680   C     0.34641   0.16317   0.48154   0.00000  Uiso   1.00
C681   C     0.65352   0.17126   0.51813   0.00000  Uiso   1.00
C682   C     0.48747   0.02144   0.45733   0.00000  Uiso   1.00
C683   C     0.50948   0.31190   0.54276   0.00000  Uiso   1.00
C684   C     0.48713   0.31212   0.45729   0.00000  Uiso   1.00
Cu685  Cu    0.50000   0.16667   0.54689   0.00000  Uiso   1.00
Cu686  Cu    0.50000   0.16666   0.45311   0.00000  Uiso   1.00
H687   H     0.47856   0.03765   0.42400   0.00000  Uiso   1.00
H688   H     0.62356   0.06615   0.37794   0.00000  Uiso   1.00
H689   H     0.58093   0.10636   0.39092   0.00000  Uiso   1.00
H690   H     0.63743   0.23312   0.57611   0.00000  Uiso   1.00
H691   H     0.35344   0.24165   0.53822   0.00000  Uiso   1.00
H692   H     0.42096   0.22988   0.60485   0.00000  Uiso   1.00
H693   H     0.37827   0.26949   0.61948   0.00000  Uiso   1.00
H694   H     0.37384   0.21804   0.64359   0.00000  Uiso   1.00
H695   H     0.36210   0.10286   0.58941   0.00000  Uiso   1.00
H696   H     0.37667   0.12509   0.64625   0.00000  Uiso   1.00
H697   H     0.41851   0.05596   0.34107   0.00000  Uiso   1.00
H698   H     0.51844   0.29571   0.57611   0.00000  Uiso   1.00
H699   H     0.35166   0.05083   0.65087   0.00000  Uiso   1.00
H700   H     0.40031   0.03642   0.61543   0.00000  Uiso   1.00
H701   H     0.56356   0.27834   0.40697   0.00000  Uiso   1.00
H702   H     0.53729   0.26725   0.34756   0.00000  Uiso   1.00
H703   H     0.62736   0.24994   0.66447   0.00000  Uiso   1.00
H704   H     0.62252   0.30189   0.35209   0.00000  Uiso   1.00
H705   H     0.65120   0.26243   0.39172   0.00000  Uiso   1.00
H706   H     0.47760   0.29609   0.42402   0.00000  Uiso   1.00
H707   H     0.51810   0.03721   0.57623   0.00000  Uiso   1.00
H708   H     0.44507   0.11919   0.37163   0.00000  Uiso   1.00
H709   H     0.55812   0.21189   0.62920   0.00000  Uiso   1.00
H710   H     0.64668   0.09288   0.45926   0.00000  Uiso   1.00
H711   H     0.36381   0.10264   0.42287   0.00000  Uiso   1.00
H712   H     0.63016   0.11744   0.35406   0.00000  Uiso   1.00
N713   N     0.50001   0.16668   0.61736   0.00000  Uiso   1.00
N714   N     0.49999   0.16666   0.38264   0.00000  Uiso   1.00
O715   O     0.50000   0.10655   0.53958   0.00000  Uiso   1.00
O716   O     0.34488   0.18107   0.56282   0.00000  Uiso   1.00
O717   O     0.43909   0.11211   0.60837   0.00000  Uiso   1.00
O718   O     0.56669   0.21691   0.39143   0.00000  Uiso   1.00
O719   O     0.50000   0.22678   0.46042   0.00000  Uiso   1.00
O720   O     0.50000   0.10654   0.46039   0.00000  Uiso   1.00
O721   O     0.50000   0.22679   0.53961   0.00000  Uiso   1.00
O722   O     0.42495   0.16667   0.53046   0.00000  Uiso   1.00
O723   O     0.57505   0.16666   0.46954   0.00000  Uiso   1.00
O724   O     0.42494   0.16666   0.45127   0.00000  Uiso   1.00
O725   O     0.57506   0.16667   0.54873   0.00000  Uiso   1.00
O726   O     0.65507   0.15402   0.43661   0.00000  Uiso   1.00
C727   C     0.83293   0.08737   0.50003   0.00000  Uiso   1.00
C728   C     0.84267   0.02120   0.54285   0.00000  Uiso   1.00
C729   C     0.83213   0.29057   0.49993   0.00000  Uiso   1.00
C730   C     0.83214   0.04276   0.50009   0.00000  Uiso   1.00
C731   C     0.80192   0.14049   0.35458   0.00000  Uiso   1.00
C732   C     0.86531   0.19236   0.64553   0.00000  Uiso   1.00
C733   C     0.80100   0.14059   0.63764   0.00000  Uiso   1.00
C734   C     0.86497   0.19313   0.36213   0.00000  Uiso   1.00
C735   C     0.99110   0.11114   0.42889   0.00000  Uiso   1.00
C736   C     0.95414   0.09960   0.38515   0.00000  Uiso   1.00
C737   C     0.67641   0.22412   0.56940   0.00000  Uiso   1.00
C738   C     0.83296   0.24597   0.49991   0.00000  Uiso   1.00
C739   C     0.71474   0.23611   0.61204   0.00000  Uiso   1.00
C740   C     0.72386   0.10241   0.62185   0.00000  Uiso   1.00
C741   C     0.72369   0.05876   0.64201   0.00000  Uiso   1.00
C742   C     0.90165   0.25855   0.37635   0.00000  Uiso   1.00
C743   C     0.95395   0.26877   0.36188   0.00000  Uiso   1.00
C744   C     0.73477   0.16610   0.48805   0.00000  Uiso   1.00
C745   C     0.93189   0.16764   0.51190   0.00000  Uiso   1.00
C746   C     0.67974   0.16317   0.48154   0.00000  Uiso   1.00
C747   C     0.98686   0.17126   0.51813   0.00000  Uiso   1.00
C748   C     0.82080   0.02144   0.45733   0.00000  Uiso   1.00
C749   C     0.84282   0.31190   0.54276   0.00000  Uiso   1.00
C750   C     0.82047   0.31212   0.45729   0.00000  Uiso   1.00
Cu751  Cu    0.83333   0.16667   0.54689   0.00000  Uiso   1.00
Cu752  Cu    0.83333   0.16666   0.45311   0.00000  Uiso   1.00
H753   H     0.81189   0.03765   0.42400   0.00000  Uiso   1.00
H754   H     0.95690   0.06615   0.37794   0.00000  Uiso   1.00
H755   H     0.91426   0.10636   0.39092   0.00000  Uiso   1.00
H756   H     0.97076   0.23312   0.57611   0.00000  Uiso   1.00
H757   H     0.68677   0.24165   0.53822   0.00000  Uiso   1.00
H758   H     0.75429   0.22988   0.60485   0.00000  Uiso   1.00
H759   H     0.71160   0.26949   0.61948   0.00000  Uiso   1.00
H760   H     0.70717   0.21804   0.64359   0.00000  Uiso   1.00
H761   H     0.69543   0.10286   0.58941   0.00000  Uiso   1.00
H762   H     0.71000   0.12509   0.64625   0.00000  Uiso   1.00
H763   H     0.75184   0.05596   0.34107   0.00000  Uiso   1.00
H764   H     0.85177   0.29571   0.57611   0.00000  Uiso   1.00
H765   H     0.68499   0.05083   0.65087   0.00000  Uiso   1.00
H766   H     0.73365   0.03642   0.61543   0.00000  Uiso   1.00
H767   H     0.89690   0.27834   0.40697   0.00000  Uiso   1.00
H768   H     0.87063   0.26725   0.34756   0.00000  Uiso   1.00
H769   H     0.96069   0.24994   0.66447   0.00000  Uiso   1.00
H770   H     0.95585   0.30189   0.35209   0.00000  Uiso   1.00
H771   H     0.98453   0.26243   0.39172   0.00000  Uiso   1.00
H772   H     0.81093   0.29609   0.42402   0.00000  Uiso   1.00
H773   H     0.85143   0.03721   0.57623   0.00000  Uiso   1.00
H774   H     0.77841   0.11919   0.37163   0.00000  Uiso   1.00
H775   H     0.89145   0.21189   0.62920   0.00000  Uiso   1.00
H776   H     0.98001   0.09288   0.45926   0.00000  Uiso   1.00
H777   H     0.69714   0.10264   0.42287   0.00000  Uiso   1.00
H778   H     0.96349   0.11744   0.35406   0.00000  Uiso   1.00
N779   N     0.83335   0.16668   0.61736   0.00000  Uiso   1.00
N780   N     0.83332   0.16666   0.38264   0.00000  Uiso   1.00
O781   O     0.83333   0.10655   0.53958   0.00000  Uiso   1.00
O782   O     0.67822   0.18107   0.56282   0.00000  Uiso   1.00
O783   O     0.77242   0.11211   0.60837   0.00000  Uiso   1.00
O784   O     0.90002   0.21691   0.39143   0.00000  Uiso   1.00
O785   O     0.83334   0.22678   0.46042   0.00000  Uiso   1.00
O786   O     0.83333   0.10654   0.46039   0.00000  Uiso   1.00
O787   O     0.83334   0.22679   0.53961   0.00000  Uiso   1.00
O788   O     0.75828   0.16667   0.53046   0.00000  Uiso   1.00
O789   O     0.90839   0.16666   0.46954   0.00000  Uiso   1.00
O790   O     0.75828   0.16666   0.45127   0.00000  Uiso   1.00
O791   O     0.90839   0.16667   0.54873   0.00000  Uiso   1.00
O792   O     0.98840   0.15402   0.43661   0.00000  Uiso   1.00
C793   C     0.16627   0.42070   0.50003   0.00000  Uiso   1.00
C794   C     0.17601   0.35453   0.54285   0.00000  Uiso   1.00
C795   C     0.16546   0.62391   0.49993   0.00000  Uiso   1.00
C796   C     0.16547   0.37609   0.50009   0.00000  Uiso   1.00
C797   C     0.13525   0.47382   0.35458   0.00000  Uiso   1.00
C798   C     0.19864   0.52569   0.64553   0.00000  Uiso   1.00
C799   C     0.13433   0.47392   0.63764   0.00000  Uiso   1.00
C800   C     0.19831   0.52646   0.36213   0.00000  Uiso   1.00
C801   C     0.32443   0.44448   0.42889   0.00000  Uiso   1.00
C802   C     0.28747   0.43293   0.38515   0.00000  Uiso   1.00
C803   C     0.00974   0.55745   0.56940   0.00000  Uiso   1.00
C804   C     0.16629   0.57930   0.49991   0.00000  Uiso   1.00
C805   C     0.04808   0.56944   0.61204   0.00000  Uiso   1.00
C806   C     0.05720   0.43575   0.62185   0.00000  Uiso   1.00
C807   C     0.05703   0.39209   0.64201   0.00000  Uiso   1.00
C808   C     0.23498   0.59188   0.37635   0.00000  Uiso   1.00
C809   C     0.28729   0.60210   0.36188   0.00000  Uiso   1.00
C810   C     0.06811   0.49943   0.48805   0.00000  Uiso   1.00
C811   C     0.26522   0.50097   0.51190   0.00000  Uiso   1.00
C812   C     0.01308   0.49651   0.48154   0.00000  Uiso   1.00
C813   C     0.32019   0.50460   0.51813   0.00000  Uiso   1.00
C814   C     0.15414   0.35477   0.45733   0.00000  Uiso   1.00
C815   C     0.17615   0.64523   0.54276   0.00000  Uiso   1.00
C816   C     0.15380   0.64546   0.45729   0.00000  Uiso   1.00
Cu817  Cu    0.16667   0.50001   0.54689   0.00000  Uiso   1.00
Cu818  Cu    0.16667   0.49999   0.45311   0.00000  Uiso   1.00
H819   H     0.14522   0.37099   0.42400   0.00000  Uiso   1.00
H820   H     0.29023   0.39948   0.37794   0.00000  Uiso   1.00
H821   H     0.24759   0.43969   0.39092   0.00000  Uiso   1.00
H822   H     0.30410   0.56646   0.57611   0.00000  Uiso   1.00
H823   H     0.02011   0.57498   0.53822   0.00000  Uiso   1.00
H824   H     0.08762   0.56321   0.60485   0.00000  Uiso   1.00
H825   H     0.04493   0.60282   0.61948   0.00000  Uiso   1.00
H826   H     0.04050   0.55137   0.64359   0.00000  Uiso   1.00
H827   H     0.02876   0.43620   0.58941   0.00000  Uiso   1.00
H828   H     0.04334   0.45843   0.64625   0.00000  Uiso   1.00
H829   H     0.08518   0.38929   0.34107   0.00000  Uiso   1.00
H830   H     0.18511   0.62904   0.57611   0.00000  Uiso   1.00
H831   H     0.01833   0.38416   0.65087   0.00000  Uiso   1.00
H832   H     0.06698   0.36976   0.61543   0.00000  Uiso   1.00
H833   H     0.23023   0.61167   0.40697   0.00000  Uiso   1.00
H834   H     0.20396   0.60058   0.34756   0.00000  Uiso   1.00
H835   H     0.29403   0.58327   0.66447   0.00000  Uiso   1.00
H836   H     0.28918   0.63523   0.35209   0.00000  Uiso   1.00
H837   H     0.31786   0.59576   0.39172   0.00000  Uiso   1.00
H838   H     0.14427   0.62942   0.42402   0.00000  Uiso   1.00
H839   H     0.18476   0.37055   0.57623   0.00000  Uiso   1.00
H840   H     0.11174   0.45252   0.37163   0.00000  Uiso   1.00
H841   H     0.22479   0.54523   0.62920   0.00000  Uiso   1.00
H842   H     0.31334   0.42622   0.45926   0.00000  Uiso   1.00
H843   H     0.03047   0.43597   0.42287   0.00000  Uiso   1.00
H844   H     0.29683   0.45077   0.35406   0.00000  Uiso   1.00
N845   N     0.16668   0.50001   0.61736   0.00000  Uiso   1.00
N846   N     0.16665   0.49999   0.38264   0.00000  Uiso   1.00
O847   O     0.16666   0.43989   0.53958   0.00000  Uiso   1.00
O848   O     0.01155   0.51440   0.56282   0.00000  Uiso   1.00
O849   O     0.10575   0.44544   0.60837   0.00000  Uiso   1.00
O850   O     0.23335   0.55025   0.39143   0.00000  Uiso   1.00
O851   O     0.16667   0.56011   0.46042   0.00000  Uiso   1.00
O852   O     0.16666   0.43988   0.46039   0.00000  Uiso   1.00
O853   O     0.16667   0.56012   0.53961   0.00000  Uiso   1.00
O854   O     0.09161   0.50000   0.53046   0.00000  Uiso   1.00
O855   O     0.24172   0.50000   0.46954   0.00000  Uiso   1.00
O856   O     0.09161   0.49999   0.45127   0.00000  Uiso   1.00
O857   O     0.24172   0.50001   0.54873   0.00000  Uiso   1.00
O858   O     0.32174   0.48735   0.43661   0.00000  Uiso   1.00
C859   C     0.49960   0.42070   0.50003   0.00000  Uiso   1.00
C860   C     0.50934   0.35453   0.54285   0.00000  Uiso   1.00
C861   C     0.49880   0.62391   0.49993   0.00000  Uiso   1.00
C862   C     0.49880   0.37609   0.50009   0.00000  Uiso   1.00
C863   C     0.46858   0.47382   0.35458   0.00000  Uiso   1.00
C864   C     0.53198   0.52569   0.64553   0.00000  Uiso   1.00
C865   C     0.46766   0.47392   0.63764   0.00000  Uiso   1.00
C866   C     0.53164   0.52646   0.36213   0.00000  Uiso   1.00
C867   C     0.65776   0.44448   0.42889   0.00000  Uiso   1.00
C868   C     0.62081   0.43293   0.38515   0.00000  Uiso   1.00
C869   C     0.34307   0.55745   0.56940   0.00000  Uiso   1.00
C870   C     0.49962   0.57930   0.49991   0.00000  Uiso   1.00
C871   C     0.38141   0.56944   0.61204   0.00000  Uiso   1.00
C872   C     0.39053   0.43575   0.62185   0.00000  Uiso   1.00
C873   C     0.39036   0.39209   0.64201   0.00000  Uiso   1.00
C874   C     0.56831   0.59188   0.37635   0.00000  Uiso   1.00
C875   C     0.62062   0.60210   0.36188   0.00000  Uiso   1.00
C876   C     0.40144   0.49943   0.48805   0.00000  Uiso   1.00
C877   C     0.59855   0.50097   0.51190   0.00000  Uiso   1.00
C878   C     0.34641   0.49651   0.48154   0.00000  Uiso   1.00
C879   C     0.65352   0.50460   0.51813   0.00000  Uiso   1.00
C880   C     0.48747   0.35477   0.45733   0.00000  Uiso   1.00
C881   C     0.50948   0.64523   0.54276   0.00000  Uiso   1.00
C882   C     0.48713   0.64546   0.45729   0.00000  Uiso   1.00
Cu883  Cu    0.50000   0.50001   0.54689   0.00000  Uiso   1.00
Cu884  Cu    0.50000   0.49999   0.45311   0.00000  Uiso   1.00
H885   H     0.47856   0.37099   0.42400   0.00000  Uiso   1.00
H886   H     0.62356   0.39948   0.37794   0.00000  Uiso   1.00
H887   H     0.58093   0.43969   0.39092   0.00000  Uiso   1.00
H888   H     0.63743   0.56646   0.57611   0.00000  Uiso   1.00
H889   H     0.35344   0.57498   0.53822   0.00000  Uiso   1.00
H890   H     0.42096   0.56321   0.60485   0.00000  Uiso   1.00
H891   H     0.37827   0.60282   0.61948   0.00000  Uiso   1.00
H892   H     0.37384   0.55137   0.64359   0.00000  Uiso   1.00
H893   H     0.36210   0.43620   0.58941   0.00000  Uiso   1.00
H894   H     0.37667   0.45843   0.64625   0.00000  Uiso   1.00
H895   H     0.41851   0.38929   0.34107   0.00000  Uiso   1.00
H896   H     0.51844   0.62904   0.57611   0.00000  Uiso   1.00
H897   H     0.35166   0.38416   0.65087   0.00000  Uiso   1.00
H898   H     0.40031   0.36976   0.61543   0.00000  Uiso   1.00
H899   H     0.56356   0.61167   0.40697   0.00000  Uiso   1.00
H900   H     0.53729   0.60058   0.34756   0.00000  Uiso   1.00
H901   H     0.62736   0.58327   0.66447   0.00000  Uiso   1.00
H902   H     0.62252   0.63523   0.35209   0.00000  Uiso   1.00
H903   H     0.65120   0.59576   0.39172   0.00000  Uiso   1.00
H904   H     0.47760   0.62942   0.42402   0.00000  Uiso   1.00
H905   H     0.51810   0.37055   0.57623   0.00000  Uiso   1.00
H906   H     0.44507   0.45252   0.37163   0.00000  Uiso   1.00
H907   H     0.55812   0.54523   0.62920   0.00000  Uiso   1.00
H908   H     0.64668   0.42622   0.45926   0.00000  Uiso   1.00
H909   H     0.36381   0.43597   0.42287   0.00000  Uiso   1.00
H910   H     0.63016   0.45077   0.35406   0.00000  Uiso   1.00
N911   N     0.50001   0.50001   0.61736   0.00000  Uiso   1.00
N912   N     0.49999   0.49999   0.38264   0.00000  Uiso   1.00
O913   O     0.50000   0.43989   0.53958   0.00000  Uiso   1.00
O914   O     0.34488   0.51440   0.56282   0.00000  Uiso   1.00
O915   O     0.43909   0.44544   0.60837   0.00000  Uiso   1.00
O916   O     0.56669   0.55025   0.39143   0.00000  Uiso   1.00
O917   O     0.50000   0.56011   0.46042   0.00000  Uiso   1.00
O918   O     0.50000   0.43988   0.46039   0.00000  Uiso   1.00
O919   O     0.50000   0.56012   0.53961   0.00000  Uiso   1.00
O920   O     0.42495   0.50000   0.53046   0.00000  Uiso   1.00
O921   O     0.57505   0.50000   0.46954   0.00000  Uiso   1.00
O922   O     0.42494   0.49999   0.45127   0.00000  Uiso   1.00
O923   O     0.57506   0.50001   0.54873   0.00000  Uiso   1.00
O924   O     0.65507   0.48735   0.43661   0.00000  Uiso   1.00
C925   C     0.83293   0.42070   0.50003   0.00000  Uiso   1.00
C926   C     0.84267   0.35453   0.54285   0.00000  Uiso   1.00
C927   C     0.83213   0.62391   0.49993   0.00000  Uiso   1.00
C928   C     0.83214   0.37609   0.50009   0.00000  Uiso   1.00
C929   C     0.80192   0.47382   0.35458   0.00000  Uiso   1.00
C930   C     0.86531   0.52569   0.64553   0.00000  Uiso   1.00
C931   C     0.80100   0.47392   0.63764   0.00000  Uiso   1.00
C932   C     0.86497   0.52646   0.36213   0.00000  Uiso   1.00
C933   C     0.99110   0.44448   0.42889   0.00000  Uiso   1.00
C934   C     0.95414   0.43293   0.38515   0.00000  Uiso   1.00
C935   C     0.67641   0.55745   0.56940   0.00000  Uiso   1.00
C936   C     0.83296   0.57930   0.49991   0.00000  Uiso   1.00
C937   C     0.71474   0.56944   0.61204   0.00000  Uiso   1.00
C938   C     0.72386   0.43575   0.62185   0.00000  Uiso   1.00
C939   C     0.72369   0.39209   0.64201   0.00000  Uiso   1.00
C940   C     0.90165   0.59188   0.37635   0.00000  Uiso   1.00
C941   C     0.95395   0.60210   0.36188   0.00000  Uiso   1.00
C942   C     0.73477   0.49943   0.48805   0.00000  Uiso   1.00
C943   C     0.93189   0.50097   0.51190   0.00000  Uiso   1.00
C944   C     0.67974   0.49651   0.48154   0.00000  Uiso   1.00
C945   C     0.98686   0.50460   0.51813   0.00000  Uiso   1.00
C946   C     0.82080   0.35477   0.45733   0.00000  Uiso   1.00
C947   C     0.84282   0.64523   0.54276   0.00000  Uiso   1.00
C948   C     0.82047   0.64546   0.45729   0.00000  Uiso   1.00
Cu949  Cu    0.83333   0.50001   0.54689   0.00000  Uiso   1.00
Cu950  Cu    0.83333   0.49999   0.45311   0.00000  Uiso   1.00
H951   H     0.81189   0.37099   0.42400   0.00000  Uiso   1.00
H952   H     0.95690   0.39948   0.37794   0.00000  Uiso   1.00
H953   H     0.91426   0.43969   0.39092   0.00000  Uiso   1.00
H954   H     0.97076   0.56646   0.57611   0.00000  Uiso   1.00
H955   H     0.68677   0.57498   0.53822   0.00000  Uiso   1.00
H956   H     0.75429   0.56321   0.60485   0.00000  Uiso   1.00
H957   H     0.71160   0.60282   0.61948   0.00000  Uiso   1.00
H958   H     0.70717   0.55137   0.64359   0.00000  Uiso   1.00
H959   H     0.69543   0.43620   0.58941   0.00000  Uiso   1.00
H960   H     0.71000   0.45843   0.64625   0.00000  Uiso   1.00
H961   H     0.75184   0.38929   0.34107   0.00000  Uiso   1.00
H962   H     0.85177   0.62904   0.57611   0.00000  Uiso   1.00
H963   H     0.68499   0.38416   0.65087   0.00000  Uiso   1.00
H964   H     0.73365   0.36976   0.61543   0.00000  Uiso   1.00
H965   H     0.89690   0.61167   0.40697   0.00000  Uiso   1.00
H966   H     0.87063   0.60058   0.34756   0.00000  Uiso   1.00
H967   H     0.96069   0.58327   0.66447   0.00000  Uiso   1.00
H968   H     0.95585   0.63523   0.35209   0.00000  Uiso   1.00
H969   H     0.98453   0.59576   0.39172   0.00000  Uiso   1.00
H970   H     0.81093   0.62942   0.42402   0.00000  Uiso   1.00
H971   H     0.85143   0.37055   0.57623   0.00000  Uiso   1.00
H972   H     0.77841   0.45252   0.37163   0.00000  Uiso   1.00
H973   H     0.89145   0.54523   0.62920   0.00000  Uiso   1.00
H974   H     0.98001   0.42622   0.45926   0.00000  Uiso   1.00
H975   H     0.69714   0.43597   0.42287   0.00000  Uiso   1.00
H976   H     0.96349   0.45077   0.35406   0.00000  Uiso   1.00
N977   N     0.83335   0.50001   0.61736   0.00000  Uiso   1.00
N978   N     0.83332   0.49999   0.38264   0.00000  Uiso   1.00
O979   O     0.83333   0.43989   0.53958   0.00000  Uiso   1.00
O980   O     0.67822   0.51440   0.56282   0.00000  Uiso   1.00
O981   O     0.77242   0.44544   0.60837   0.00000  Uiso   1.00
O982   O     0.90002   0.55025   0.39143   0.00000  Uiso   1.00
O983   O     0.83334   0.56011   0.46042   0.00000  Uiso   1.00
O984   O     0.83333   0.43988   0.46039   0.00000  Uiso   1.00
O985   O     0.83334   0.56012   0.53961   0.00000  Uiso   1.00
O986   O     0.75828   0.50000   0.53046   0.00000  Uiso   1.00
O987   O     0.90839   0.50000   0.46954   0.00000  Uiso   1.00
O988   O     0.75828   0.49999   0.45127   0.00000  Uiso   1.00
O989   O     0.90839   0.50001   0.54873   0.00000  Uiso   1.00
O990   O     0.98840   0.48735   0.43661   0.00000  Uiso   1.00
C991   C     0.16627   0.75403   0.50003   0.00000  Uiso   1.00
C992   C     0.17601   0.68787   0.54285   0.00000  Uiso   1.00
C993   C     0.16546   0.95724   0.49993   0.00000  Uiso   1.00
C994   C     0.16547   0.70942   0.50009   0.00000  Uiso   1.00
C995   C     0.13525   0.80716   0.35458   0.00000  Uiso   1.00
C996   C     0.19864   0.85902   0.64553   0.00000  Uiso   1.00
C997   C     0.13433   0.80725   0.63764   0.00000  Uiso   1.00
C998   C     0.19831   0.85980   0.36213   0.00000  Uiso   1.00
C999   C     0.32443   0.77781   0.42889   0.00000  Uiso   1.00
C1000  C     0.28747   0.76626   0.38515   0.00000  Uiso   1.00
C1001  C     0.00974   0.89079   0.56940   0.00000  Uiso   1.00
C1002  C     0.16629   0.91263   0.49991   0.00000  Uiso   1.00
C1003  C     0.04808   0.90278   0.61204   0.00000  Uiso   1.00
C1004  C     0.05720   0.76908   0.62185   0.00000  Uiso   1.00
C1005  C     0.05703   0.72542   0.64201   0.00000  Uiso   1.00
C1006  C     0.23498   0.92522   0.37635   0.00000  Uiso   1.00
C1007  C     0.28729   0.93544   0.36188   0.00000  Uiso   1.00
C1008  C     0.06811   0.83276   0.48805   0.00000  Uiso   1.00
C1009  C     0.26522   0.83431   0.51190   0.00000  Uiso   1.00
C1010  C     0.01308   0.82984   0.48154   0.00000  Uiso   1.00
C1011  C     0.32019   0.83793   0.51813   0.00000  Uiso   1.00
C1012  C     0.15414   0.68811   0.45733   0.00000  Uiso   1.00
C1013  C     0.17615   0.97856   0.54276   0.00000  Uiso   1.00
C1014  C     0.15380   0.97879   0.45729   0.00000  Uiso   1.00
Cu1015 Cu    0.16667   0.83334   0.54689   0.00000  Uiso   1.00
Cu1016 Cu    0.16667   0.83333   0.45311   0.00000  Uiso   1.00
H1017  H     0.14522   0.70432   0.42400   0.00000  Uiso   1.00
H1018  H     0.29023   0.73282   0.37794   0.00000  Uiso   1.00
H1019  H     0.24759   0.77302   0.39092   0.00000  Uiso   1.00
H1020  H     0.30410   0.89979   0.57611   0.00000  Uiso   1.00
H1021  H     0.02011   0.90832   0.53822   0.00000  Uiso   1.00
H1022  H     0.08762   0.89654   0.60485   0.00000  Uiso   1.00
H1023  H     0.04493   0.93615   0.61948   0.00000  Uiso   1.00
H1024  H     0.04050   0.88470   0.64359   0.00000  Uiso   1.00
H1025  H     0.02876   0.76953   0.58941   0.00000  Uiso   1.00
H1026  H     0.04334   0.79176   0.64625   0.00000  Uiso   1.00
H1027  H     0.08518   0.72263   0.34107   0.00000  Uiso   1.00
H1028  H     0.18511   0.96238   0.57611   0.00000  Uiso   1.00
H1029  H     0.01833   0.71750   0.65087   0.00000  Uiso   1.00
H1030  H     0.06698   0.70309   0.61543   0.00000  Uiso   1.00
H1031  H     0.23023   0.94501   0.40697   0.00000  Uiso   1.00
H1032  H     0.20396   0.93391   0.34756   0.00000  Uiso   1.00
H1033  H     0.29403   0.91661   0.66447   0.00000  Uiso   1.00
H1034  H     0.28918   0.96856   0.35209   0.00000  Uiso   1.00
H1035  H     0.31786   0.92909   0.39172   0.00000  Uiso   1.00
H1036  H     0.14427   0.96276   0.42402   0.00000  Uiso   1.00
H1037  H     0.18476   0.70388   0.57623   0.00000  Uiso   1.00
H1038  H     0.11174   0.78586   0.37163   0.00000  Uiso   1.00
H1039  H     0.22479   0.87856   0.62920   0.00000  Uiso   1.00
H1040  H     0.31334   0.75955   0.45926   0.00000  Uiso   1.00
H1041  H     0.03047   0.76931   0.42287   0.00000  Uiso   1.00
H1042  H     0.29683   0.78410   0.35406   0.00000  Uiso   1.00
N1043  N     0.16668   0.83334   0.61736   0.00000  Uiso   1.00
N1044  N     0.16665   0.83332   0.38264   0.00000  Uiso   1.00
O1045  O     0.16666   0.77322   0.53958   0.00000  Uiso   1.00
O1046  O     0.01155   0.84773   0.56282   0.00000  Uiso   1.00
O1047  O     0.10575   0.77877   0.60837   0.00000  Uiso   1.00
O1048  O     0.23335   0.88358   0.39143   0.00000  Uiso   1.00
O1049  O     0.16667   0.89345   0.46042   0.00000  Uiso   1.00
O1050  O     0.16666   0.77321   0.46039   0.00000  Uiso   1.00
O1051  O     0.16667   0.89346   0.53961   0.00000  Uiso   1.00
O1052  O     0.09161   0.83334   0.53046   0.00000  Uiso   1.00
O1053  O     0.24172   0.83333   0.46954   0.00000  Uiso   1.00
O1054  O     0.09161   0.83333   0.45127   0.00000  Uiso   1.00
O1055  O     0.24172   0.83334   0.54873   0.00000  Uiso   1.00
O1056  O     0.32174   0.82068   0.43661   0.00000  Uiso   1.00
C1057  C     0.49960   0.75403   0.50003   0.00000  Uiso   1.00
C1058  C     0.50934   0.68787   0.54285   0.00000  Uiso   1.00
C1059  C     0.49880   0.95724   0.49993   0.00000  Uiso   1.00
C1060  C     0.49880   0.70942   0.50009   0.00000  Uiso   1.00
C1061  C     0.46858   0.80716   0.35458   0.00000  Uiso   1.00
C1062  C     0.53198   0.85902   0.64553   0.00000  Uiso   1.00
C1063  C     0.46766   0.80725   0.63764   0.00000  Uiso   1.00
C1064  C     0.53164   0.85980   0.36213   0.00000  Uiso   1.00
C1065  C     0.65776   0.77781   0.42889   0.00000  Uiso   1.00
C1066  C     0.62081   0.76626   0.38515   0.00000  Uiso   1.00
C1067  C     0.34307   0.89079   0.56940   0.00000  Uiso   1.00
C1068  C     0.49962   0.91263   0.49991   0.00000  Uiso   1.00
C1069  C     0.38141   0.90278   0.61204   0.00000  Uiso   1.00
C1070  C     0.39053   0.76908   0.62185   0.00000  Uiso   1.00
C1071  C     0.39036   0.72542   0.64201   0.00000  Uiso   1.00
C1072  C     0.56831   0.92522   0.37635   0.00000  Uiso   1.00
C1073  C     0.62062   0.93544   0.36188   0.00000  Uiso   1.00
C1074  C     0.40144   0.83276   0.48805   0.00000  Uiso   1.00
C1075  C     0.59855   0.83431   0.51190   0.00000  Uiso   1.00
C1076  C     0.34641   0.82984   0.48154   0.00000  Uiso   1.00
C1077  C     0.65352   0.83793   0.51813   0.00000  Uiso   1.00
C1078  C     0.48747   0.68811   0.45733   0.00000  Uiso   1.00
C1079  C     0.50948   0.97856   0.54276   0.00000  Uiso   1.00
C1080  C     0.48713   0.97879   0.45729   0.00000  Uiso   1.00
Cu1081 Cu    0.50000   0.83334   0.54689   0.00000  Uiso   1.00
Cu1082 Cu    0.50000   0.83333   0.45311   0.00000  Uiso   1.00
H1083  H     0.47856   0.70432   0.42400   0.00000  Uiso   1.00
H1084  H     0.62356   0.73282   0.37794   0.00000  Uiso   1.00
H1085  H     0.58093   0.77302   0.39092   0.00000  Uiso   1.00
H1086  H     0.63743   0.89979   0.57611   0.00000  Uiso   1.00
H1087  H     0.35344   0.90832   0.53822   0.00000  Uiso   1.00
H1088  H     0.42096   0.89654   0.60485   0.00000  Uiso   1.00
H1089  H     0.37827   0.93615   0.61948   0.00000  Uiso   1.00
H1090  H     0.37384   0.88470   0.64359   0.00000  Uiso   1.00
H1091  H     0.36210   0.76953   0.58941   0.00000  Uiso   1.00
H1092  H     0.37667   0.79176   0.64625   0.00000  Uiso   1.00
H1093  H     0.41851   0.72263   0.34107   0.00000  Uiso   1.00
H1094  H     0.51844   0.96238   0.57611   0.00000  Uiso   1.00
H1095  H     0.35166   0.71750   0.65087   0.00000  Uiso   1.00
H1096  H     0.40031   0.70309   0.61543   0.00000  Uiso   1.00
H1097  H     0.56356   0.94501   0.40697   0.00000  Uiso   1.00
H1098  H     0.53729   0.93391   0.34756   0.00000  Uiso   1.00
H1099  H     0.62736   0.91661   0.66447   0.00000  Uiso   1.00
H1100  H     0.62252   0.96856   0.35209   0.00000  Uiso   1.00
H1101  H     0.65120   0.92909   0.39172   0.00000  Uiso   1.00
H1102  H     0.47760   0.96276   0.42402   0.00000  Uiso   1.00
H1103  H     0.51810   0.70388   0.57623   0.00000  Uiso   1.00
H1104  H     0.44507   0.78586   0.37163   0.00000  Uiso   1.00
H1105  H     0.55812   0.87856   0.62920   0.00000  Uiso   1.00
H1106  H     0.64668   0.75955   0.45926   0.00000  Uiso   1.00
H1107  H     0.36381   0.76931   0.42287   0.00000  Uiso   1.00
H1108  H     0.63016   0.78410   0.35406   0.00000  Uiso   1.00
N1109  N     0.50001   0.83334   0.61736   0.00000  Uiso   1.00
N1110  N     0.49999   0.83332   0.38264   0.00000  Uiso   1.00
O1111  O     0.50000   0.77322   0.53958   0.00000  Uiso   1.00
O1112  O     0.34488   0.84773   0.56282   0.00000  Uiso   1.00
O1113  O     0.43909   0.77877   0.60837   0.00000  Uiso   1.00
O1114  O     0.56669   0.88358   0.39143   0.00000  Uiso   1.00
O1115  O     0.50000   0.89345   0.46042   0.00000  Uiso   1.00
O1116  O     0.50000   0.77321   0.46039   0.00000  Uiso   1.00
O1117  O     0.50000   0.89346   0.53961   0.00000  Uiso   1.00
O1118  O     0.42495   0.83334   0.53046   0.00000  Uiso   1.00
O1119  O     0.57505   0.83333   0.46954   0.00000  Uiso   1.00
O1120  O     0.42494   0.83333   0.45127   0.00000  Uiso   1.00
O1121  O     0.57506   0.83334   0.54873   0.00000  Uiso   1.00
O1122  O     0.65507   0.82068   0.43661   0.00000  Uiso   1.00
C1123  C     0.83293   0.75403   0.50003   0.00000  Uiso   1.00
C1124  C     0.84267   0.68787   0.54285   0.00000  Uiso   1.00
C1125  C     0.83213   0.95724   0.49993   0.00000  Uiso   1.00
C1126  C     0.83214   0.70942   0.50009   0.00000  Uiso   1.00
C1127  C     0.80192   0.80716   0.35458   0.00000  Uiso   1.00
C1128  C     0.86531   0.85902   0.64553   0.00000  Uiso   1.00
C1129  C     0.80100   0.80725   0.63764   0.00000  Uiso   1.00
C1130  C     0.86497   0.85980   0.36213   0.00000  Uiso   1.00
C1131  C     0.99110   0.77781   0.42889   0.00000  Uiso   1.00
C1132  C     0.95414   0.76626   0.38515   0.00000  Uiso   1.00
C1133  C     0.67641   0.89079   0.56940   0.00000  Uiso   1.00
C1134  C     0.83296   0.91263   0.49991   0.00000  Uiso   1.00
C1135  C     0.71474   0.90278   0.61204   0.00000  Uiso   1.00
C1136  C     0.72386   0.76908   0.62185   0.00000  Uiso   1.00
C1137  C     0.72369   0.72542   0.64201   0.00000  Uiso   1.00
C1138  C     0.90165   0.92522   0.37635   0.00000  Uiso   1.00
C1139  C     0.95395   0.93544   0.36188   0.00000  Uiso   1.00
C1140  C     0.73477   0.83276   0.48805   0.00000  Uiso   1.00
C1141  C     0.93189   0.83431   0.51190   0.00000  Uiso   1.00
C1142  C     0.67974   0.82984   0.48154   0.00000  Uiso   1.00
C1143  C     0.98686   0.83793   0.51813   0.00000  Uiso   1.00
C1144  C     0.82080   0.68811   0.45733   0.00000  Uiso   1.00
C1145  C     0.84282   0.97856   0.54276   0.00000  Uiso   1.00
C1146  C     0.82047   0.97879   0.45729   0.00000  Uiso   1.00
Cu1147 Cu    0.83333   0.83334   0.54689   0.00000  Uiso   1.00
Cu1148 Cu    0.83333   0.83333   0.45311   0.00000  Uiso   1.00
H1149  H     0.81189   0.70432   0.42400   0.00000  Uiso   1.00
H1150  H     0.95690   0.73282   0.37794   0.00000  Uiso   1.00
H1151  H     0.91426   0.77302   0.39092   0.00000  Uiso   1.00
H1152  H     0.97076   0.89979   0.57611   0.00000  Uiso   1.00
H1153  H     0.68677   0.90832   0.53822   0.00000  Uiso   1.00
H1154  H     0.75429   0.89654   0.60485   0.00000  Uiso   1.00
H1155  H     0.71160   0.93615   0.61948   0.00000  Uiso   1.00
H1156  H     0.70717   0.88470   0.64359   0.00000  Uiso   1.00
H1157  H     0.69543   0.76953   0.58941   0.00000  Uiso   1.00
H1158  H     0.71000   0.79176   0.64625   0.00000  Uiso   1.00
H1159  H     0.75184   0.72263   0.34107   0.00000  Uiso   1.00
H1160  H     0.85177   0.96238   0.57611   0.00000  Uiso   1.00
H1161  H     0.68499   0.71750   0.65087   0.00000  Uiso   1.00
H1162  H     0.73365   0.70309   0.61543   0.00000  Uiso   1.00
H1163  H     0.89690   0.94501   0.40697   0.00000  Uiso   1.00
H1164  H     0.87063   0.93391   0.34756   0.00000  Uiso   1.00
H1165  H     0.96069   0.91661   0.66447   0.00000  Uiso   1.00
H1166  H     0.95585   0.96856   0.35209   0.00000  Uiso   1.00
H1167  H     0.98453   0.92909   0.39172   0.00000  Uiso   1.00
H1168  H     0.81093   0.96276   0.42402   0.00000  Uiso   1.00
H1169  H     0.85143   0.70388   0.57623   0.00000  Uiso   1.00
H1170  H     0.77841   0.78586   0.37163   0.00000  Uiso   1.00
H1171  H     0.89145   0.87856   0.62920   0.00000  Uiso   1.00
H1172  H     0.98001   0.75955   0.45926   0.00000  Uiso   1.00
H1173  H     0.69714   0.76931   0.42287   0.00000  Uiso   1.00
H1174  H     0.96349   0.78410   0.35406   0.00000  Uiso   1.00
N1175  N     0.83335   0.83334   0.61736   0.00000  Uiso   1.00
N1176  N     0.83332   0.83332   0.38264   0.00000  Uiso   1.00
O1177  O     0.83333   0.77322   0.53958   0.00000  Uiso   1.00
O1178  O     0.67822   0.84773   0.56282   0.00000  Uiso   1.00
O1179  O     0.77242   0.77877   0.60837   0.00000  Uiso   1.00
O1180  O     0.90002   0.88358   0.39143   0.00000  Uiso   1.00
O1181  O     0.83334   0.89345   0.46042   0.00000  Uiso   1.00
O1182  O     0.83333   0.77321   0.46039   0.00000  Uiso   1.00
O1183  O     0.83334   0.89346   0.53961   0.00000  Uiso   1.00
O1184  O     0.75828   0.83334   0.53046   0.00000  Uiso   1.00
O1185  O     0.90839   0.83333   0.46954   0.00000  Uiso   1.00
O1186  O     0.75828   0.83333   0.45127   0.00000  Uiso   1.00
O1187  O     0.90839   0.83334   0.54873   0.00000  Uiso   1.00
O1188  O     0.98840   0.82068   0.43661   0.00000  Uiso   1.00
C1189  C     0.16627   0.08737   0.83337   0.00000  Uiso   1.00
C1190  C     0.17601   0.02120   0.87619   0.00000  Uiso   1.00
C1191  C     0.16546   0.29057   0.83326   0.00000  Uiso   1.00
C1192  C     0.16547   0.04276   0.83342   0.00000  Uiso   1.00
C1193  C     0.13525   0.14049   0.68792   0.00000  Uiso   1.00
C1194  C     0.19864   0.19236   0.97886   0.00000  Uiso   1.00
C1195  C     0.13433   0.14059   0.97097   0.00000  Uiso   1.00
C1196  C     0.19831   0.19313   0.69547   0.00000  Uiso   1.00
C1197  C     0.32443   0.11114   0.76222   0.00000  Uiso   1.00
C1198  C     0.28747   0.09960   0.71849   0.00000  Uiso   1.00
C1199  C     0.00974   0.22412   0.90273   0.00000  Uiso   1.00
C1200  C     0.16629   0.24597   0.83324   0.00000  Uiso   1.00
C1201  C     0.04808   0.23611   0.94538   0.00000  Uiso   1.00
C1202  C     0.05720   0.10241   0.95519   0.00000  Uiso   1.00
C1203  C     0.05703   0.05876   0.97535   0.00000  Uiso   1.00
C1204  C     0.23498   0.25855   0.70968   0.00000  Uiso   1.00
C1205  C     0.28729   0.26877   0.69521   0.00000  Uiso   1.00
C1206  C     0.06811   0.16610   0.82139   0.00000  Uiso   1.00
C1207  C     0.26522   0.16764   0.84523   0.00000  Uiso   1.00
C1208  C     0.01308   0.16317   0.81487   0.00000  Uiso   1.00
C1209  C     0.32019   0.17126   0.85146   0.00000  Uiso   1.00
C1210  C     0.15414   0.02144   0.79066   0.00000  Uiso   1.00
C1211  C     0.17615   0.31190   0.87610   0.00000  Uiso   1.00
C1212  C     0.15380   0.31212   0.79063   0.00000  Uiso   1.00
Cu1213 Cu    0.16667   0.16667   0.88022   0.00000  Uiso   1.00
Cu1214 Cu    0.16667   0.16666   0.78645   0.00000  Uiso   1.00
H1215  H     0.14522   0.03765   0.75734   0.00000  Uiso   1.00
H1216  H     0.29023   0.06615   0.71127   0.00000  Uiso   1.00
H1217  H     0.24759   0.10636   0.72425   0.00000  Uiso   1.00
H1218  H     0.30410   0.23312   0.90944   0.00000  Uiso   1.00
H1219  H     0.02011   0.24165   0.87155   0.00000  Uiso   1.00
H1220  H     0.08762   0.22988   0.93818   0.00000  Uiso   1.00
H1221  H     0.04493   0.26949   0.95281   0.00000  Uiso   1.00
H1222  H     0.04050   0.21804   0.97692   0.00000  Uiso   1.00
H1223  H     0.02876   0.10286   0.92274   0.00000  Uiso   1.00
H1224  H     0.04334   0.12509   0.97958   0.00000  Uiso   1.00
H1225  H     0.08518   0.05596   0.67440   0.00000  Uiso   1.00
H1226  H     0.18511   0.29571   0.90944   0.00000  Uiso   1.00
H1227  H     0.01833   0.05083   0.98420   0.00000  Uiso   1.00
H1228  H     0.06698   0.03642   0.94876   0.00000  Uiso   1.00
H1229  H     0.23023   0.27834   0.74030   0.00000  Uiso   1.00
H1230  H     0.20396   0.26725   0.68090   0.00000  Uiso   1.00
H1231  H     0.29403   0.24994   0.99781   0.00000  Uiso   1.00
H1232  H     0.28918   0.30189   0.68542   0.00000  Uiso   1.00
H1233  H     0.31786   0.26243   0.72505   0.00000  Uiso   1.00
H1234  H     0.14427   0.29609   0.75736   0.00000  Uiso   1.00
H1235  H     0.18476   0.03721   0.90957   0.00000  Uiso   1.00
H1236  H     0.11174   0.11919   0.70496   0.00000  Uiso   1.00
H1237  H     0.22479   0.21189   0.96253   0.00000  Uiso   1.00
H1238  H     0.31334   0.09288   0.79259   0.00000  Uiso   1.00
H1239  H     0.03047   0.10264   0.75620   0.00000  Uiso   1.00
H1240  H     0.29683   0.11744   0.68739   0.00000  Uiso   1.00
N1241  N     0.16668   0.16668   0.95069   0.00000  Uiso   1.00
N1242  N     0.16665   0.16666   0.71597   0.00000  Uiso   1.00
O1243  O     0.16666   0.10655   0.87291   0.00000  Uiso   1.00
O1244  O     0.01155   0.18107   0.89615   0.00000  Uiso   1.00
O1245  O     0.10575   0.11211   0.94170   0.00000  Uiso   1.00
O1246  O     0.23335   0.21691   0.72477   0.00000  Uiso   1.00
O1247  O     0.16667   0.22678   0.79375   0.00000  Uiso   1.00
O1248  O     0.16666   0.10654   0.79372   0.00000  Uiso   1.00
O1249  O     0.16667   0.22679   0.87294   0.00000  Uiso   1.00
O1250  O     0.09161   0.16667   0.86379   0.00000  Uiso   1.00
O1251  O     0.24172   0.16666   0.80288   0.00000  Uiso   1.00
O1252  O     0.09161   0.16666   0.78460   0.00000  Uiso   1.00
O1253  O     0.24172   0.16667   0.88207   0.00000  Uiso   1.00
O1254  O     0.32174   0.15402   0.76994   0.00000  Uiso   1.00
C1255  C     0.49960   0.08737   0.83337   0.00000  Uiso   1.00
C1256  C     0.50934   0.02120   0.87619   0.00000  Uiso   1.00
C1257  C     0.49880   0.29057   0.83326   0.00000  Uiso   1.00
C1258  C     0.49880   0.04276   0.83342   0.00000  Uiso   1.00
C1259  C     0.46858   0.14049   0.68792   0.00000  Uiso   1.00
C1260  C     0.53198   0.19236   0.97886   0.00000  Uiso   1.00
C1261  C     0.46766   0.14059   0.97097   0.00000  Uiso   1.00
C1262  C     0.53164   0.19313   0.69547   0.00000  Uiso   1.00
C1263  C     0.65776   0.11114   0.76222   0.00000  Uiso   1.00
C1264  C     0.62081   0.09960   0.71849   0.00000  Uiso   1.00
C1265  C     0.34307   0.22412   0.90273   0.00000  Uiso   1.00
C1266  C     0.49962   0.24597   0.83324   0.00000  Uiso   1.00
C1267  C     0.38141   0.23611   0.94538   0.00000  Uiso   1.00
C1268  C     0.39053   0.10241   0.95519   0.00000  Uiso   1.00
C1269  C     0.39036   0.05876   0.97535   0.00000  Uiso   1.00
C1270  C     0.56831   0.25855   0.70968   0.00000  Uiso   1.00
C1271  C     0.62062   0.26877   0.69521   0.00000  Uiso   1.00
C1272  C     0.40144   0.16610   0.82139   0.00000  Uiso   1.00
C1273  C     0.59855   0.16764   0.84523   0.00000  Uiso   1.00
C1274  C     0.34641   0.16317   0.81487   0.00000  Uiso   1.00
C1275  C     0.65352   0.17126   0.85146   0.00000  Uiso   1.00
C1276  C     0.48747   0.02144   0.79066   0.00000  Uiso   1.00
C1277  C     0.50948   0.31190   0.87610   0.00000  Uiso   1.00
C1278  C     0.48713   0.31212   0.79063   0.00000  Uiso   1.00
Cu1279 Cu    0.50000   0.16667   0.88022   0.00000  Uiso   1.00
Cu1280 Cu    0.50000   0.16666   0.78645   0.00000  Uiso   1.00
H1281  H     0.47856   0.03765   0.75734   0.00000  Uiso   1.00
H1282  H     0.62356   0.06615   0.71127   0.00000  Uiso   1.00
H1283  H     0.58093   0.10636   0.72425   0.00000  Uiso   1.00
H1284  H     0.63743   0.23312   0.90944   0.00000  Uiso   1.00
H1285  H     0.35344   0.24165   0.87155   0.00000  Uiso   1.00
H1286  H     0.42096   0.22988   0.93818   0.00000  Uiso   1.00
H1287  H     0.37827   0.26949   0.95281   0.00000  Uiso   1.00
H1288  H     0.37384   0.21804   0.97692   0.00000  Uiso   1.00
H1289  H     0.36210   0.10286   0.92274   0.00000  Uiso   1.00
H1290  H     0.37667   0.12509   0.97958   0.00000  Uiso   1.00
H1291  H     0.41851   0.05596   0.67440   0.00000  Uiso   1.00
H1292  H     0.51844   0.29571   0.90944   0.00000  Uiso   1.00
H1293  H     0.35166   0.05083   0.98420   0.00000  Uiso   1.00
H1294  H     0.40031   0.03642   0.94876   0.00000  Uiso   1.00
H1295  H     0.56356   0.27834   0.74030   0.00000  Uiso   1.00
H1296  H     0.53729   0.26725   0.68090   0.00000  Uiso   1.00
H1297  H     0.62736   0.24994   0.99781   0.00000  Uiso   1.00
H1298  H     0.62252   0.30189   0.68542   0.00000  Uiso   1.00
H1299  H     0.65120   0.26243   0.72505   0.00000  Uiso   1.00
H1300  H     0.47760   0.29609   0.75736   0.00000  Uiso   1.00
H1301  H     0.51810   0.03721   0.90957   0.00000  Uiso   1.00
H1302  H     0.44507   0.11919   0.70496   0.00000  Uiso   1.00
H1303  H     0.55812   0.21189   0.96253   0.00000  Uiso   1.00
H1304  H     0.64668   0.09288   0.79259   0.00000  Uiso   1.00
H1305  H     0.36381   0.10264   0.75620   0.00000  Uiso   1.00
H1306  H     0.63016   0.11744   0.68739   0.00000  Uiso   1.00
N1307  N     0.50001   0.16668   0.95069   0.00000  Uiso   1.00
N1308  N     0.49999   0.16666   0.71597   0.00000  Uiso   1.00
O1309  O     0.50000   0.10655   0.87291   0.00000  Uiso   1.00
O1310  O     0.34488   0.18107   0.89615   0.00000  Uiso   1.00
O1311  O     0.43909   0.11211   0.94170   0.00000  Uiso   1.00
O1312  O     0.56669   0.21691   0.72477   0.00000  Uiso   1.00
O1313  O     0.50000   0.22678   0.79375   0.00000  Uiso   1.00
O1314  O     0.50000   0.10654   0.79372   0.00000  Uiso   1.00
O1315  O     0.50000   0.22679   0.87294   0.00000  Uiso   1.00
O1316  O     0.42495   0.16667   0.86379   0.00000  Uiso   1.00
O1317  O     0.57505   0.16666   0.80288   0.00000  Uiso   1.00
O1318  O     0.42494   0.16666   0.78460   0.00000  Uiso   1.00
O1319  O     0.57506   0.16667   0.88207   0.00000  Uiso   1.00
O1320  O     0.65507   0.15402   0.76994   0.00000  Uiso   1.00
C1321  C     0.83293   0.08737   0.83337   0.00000  Uiso   1.00
C1322  C     0.84267   0.02120   0.87619   0.00000  Uiso   1.00
C1323  C     0.83213   0.29057   0.83326   0.00000  Uiso   1.00
C1324  C     0.83214   0.04276   0.83342   0.00000  Uiso   1.00
C1325  C     0.80192   0.14049   0.68792   0.00000  Uiso   1.00
C1326  C     0.86531   0.19236   0.97886   0.00000  Uiso   1.00
C1327  C     0.80100   0.14059   0.97097   0.00000  Uiso   1.00
C1328  C     0.86497   0.19313   0.69547   0.00000  Uiso   1.00
C1329  C     0.99110   0.11114   0.76222   0.00000  Uiso   1.00
C1330  C     0.95414   0.09960   0.71849   0.00000  Uiso   1.00
C1331  C     0.67641   0.22412   0.90273   0.00000  Uiso   1.00
C1332  C     0.83296   0.24597   0.83324   0.00000  Uiso   1.00
C1333  C     0.71474   0.23611   0.94538   0.00000  Uiso   1.00
C1334  C     0.72386   0.10241   0.95519   0.00000  Uiso   1.00
C1335  C     0.72369   0.05876   0.97535   0.00000  Uiso   1.00
C1336  C     0.90165   0.25855   0.70968   0.00000  Uiso   1.00
C1337  C     0.95395   0.26877   0.69521   0.00000  Uiso   1.00
C1338  C     0.73477   0.16610   0.82139   0.00000  Uiso   1.00
C1339  C     0.93189   0.16764   0.84523   0.00000  Uiso   1.00
C1340  C     0.67974   0.16317   0.81487   0.00000  Uiso   1.00
C1341  C     0.98686   0.17126   0.85146   0.00000  Uiso   1.00
C1342  C     0.82080   0.02144   0.79066   0.00000  Uiso   1.00
C1343  C     0.84282   0.31190   0.87610   0.00000  Uiso   1.00
C1344  C     0.82047   0.31212   0.79063   0.00000  Uiso   1.00
Cu1345 Cu    0.83333   0.16667   0.88022   0.00000  Uiso   1.00
Cu1346 Cu    0.83333   0.16666   0.78645   0.00000  Uiso   1.00
H1347  H     0.81189   0.03765   0.75734   0.00000  Uiso   1.00
H1348  H     0.95690   0.06615   0.71127   0.00000  Uiso   1.00
H1349  H     0.91426   0.10636   0.72425   0.00000  Uiso   1.00
H1350  H     0.97076   0.23312   0.90944   0.00000  Uiso   1.00
H1351  H     0.68677   0.24165   0.87155   0.00000  Uiso   1.00
H1352  H     0.75429   0.22988   0.93818   0.00000  Uiso   1.00
H1353  H     0.71160   0.26949   0.95281   0.00000  Uiso   1.00
H1354  H     0.70717   0.21804   0.97692   0.00000  Uiso   1.00
H1355  H     0.69543   0.10286   0.92274   0.00000  Uiso   1.00
H1356  H     0.71000   0.12509   0.97958   0.00000  Uiso   1.00
H1357  H     0.75184   0.05596   0.67440   0.00000  Uiso   1.00
H1358  H     0.85177   0.29571   0.90944   0.00000  Uiso   1.00
H1359  H     0.68499   0.05083   0.98420   0.00000  Uiso   1.00
H1360  H     0.73365   0.03642   0.94876   0.00000  Uiso   1.00
H1361  H     0.89690   0.27834   0.74030   0.00000  Uiso   1.00
H1362  H     0.87063   0.26725   0.68090   0.00000  Uiso   1.00
H1363  H     0.96069   0.24994   0.99781   0.00000  Uiso   1.00
H1364  H     0.95585   0.30189   0.68542   0.00000  Uiso   1.00
H1365  H     0.98453   0.26243   0.72505   0.00000  Uiso   1.00
H1366  H     0.81093   0.29609   0.75736   0.00000  Uiso   1.00
H1367  H     0.85143   0.03721   0.90957   0.00000  Uiso   1.00
H1368  H     0.77841   0.11919   0.70496   0.00000  Uiso   1.00
H1369  H     0.89145   0.21189   0.96253   0.00000  Uiso   1.00
H1370  H     0.98001   0.09288   0.79259   0.00000  Uiso   1.00
H1371  H     0.69714   0.10264   0.75620   0.00000  Uiso   1.00
H1372  H     0.96349   0.11744   0.68739   0.00000  Uiso   1.00
N1373  N     0.83335   0.16668   0.95069   0.00000  Uiso   1.00
N1374  N     0.83332   0.16666   0.71597   0.00000  Uiso   1.00
O1375  O     0.83333   0.10655   0.87291   0.00000  Uiso   1.00
O1376  O     0.67822   0.18107   0.89615   0.00000  Uiso   1.00
O1377  O     0.77242   0.11211   0.94170   0.00000  Uiso   1.00
O1378  O     0.90002   0.21691   0.72477   0.00000  Uiso   1.00
O1379  O     0.83334   0.22678   0.79375   0.00000  Uiso   1.00
O1380  O     0.83333   0.10654   0.79372   0.00000  Uiso   1.00
O1381  O     0.83334   0.22679   0.87294   0.00000  Uiso   1.00
O1382  O     0.75828   0.16667   0.86379   0.00000  Uiso   1.00
O1383  O     0.90839   0.16666   0.80288   0.00000  Uiso   1.00
O1384  O     0.75828   0.16666   0.78460   0.00000  Uiso   1.00
O1385  O     0.90839   0.16667   0.88207   0.00000  Uiso   1.00
O1386  O     0.98840   0.15402   0.76994   0.00000  Uiso   1.00
C1387  C     0.16627   0.42070   0.83337   0.00000  Uiso   1.00
C1388  C     0.17601   0.35453   0.87619   0.00000  Uiso   1.00
C1389  C     0.16546   0.62391   0.83326   0.00000  Uiso   1.00
C1390  C     0.16547   0.37609   0.83342   0.00000  Uiso   1.00
C1391  C     0.13525   0.47382   0.68792   0.00000  Uiso   1.00
C1392  C     0.19864   0.52569   0.97886   0.00000  Uiso   1.00
C1393  C     0.13433   0.47392   0.97097   0.00000  Uiso   1.00
C1394  C     0.19831   0.52646   0.69547   0.00000  Uiso   1.00
C1395  C     0.32443   0.44448   0.76222   0.00000  Uiso   1.00
C1396  C     0.28747   0.43293   0.71849   0.00000  Uiso   1.00
C1397  C     0.00974   0.55745   0.90273   0.00000  Uiso   1.00
C1398  C     0.16629   0.57930   0.83324   0.00000  Uiso   1.00
C1399  C     0.04808   0.56944   0.94538   0.00000  Uiso   1.00
C1400  C     0.05720   0.43575   0.95519   0.00000  Uiso   1.00
C1401  C     0.05703   0.39209   0.97535   0.00000  Uiso   1.00
C1402  C     0.23498   0.59188   0.70968   0.00000  Uiso   1.00
C1403  C     0.28729   0.60210   0.69521   0.00000  Uiso   1.00
C1404  C     0.06811   0.49943   0.82139   0.00000  Uiso   1.00
C1405  C     0.26522   0.50097   0.84523   0.00000  Uiso   1.00
C1406  C     0.01308   0.49651   0.81487   0.00000  Uiso   1.00
C1407  C     0.32019   0.50460   0.85146   0.00000  Uiso   1.00
C1408  C     0.15414   0.35477   0.79066   0.00000  Uiso   1.00
C1409  C     0.17615   0.64523   0.87610   0.00000  Uiso   1.00
C1410  C     0.15380   0.64546   0.79063   0.00000  Uiso   1.00
Cu1411 Cu    0.16667   0.50001   0.88022   0.00000  Uiso   1.00
Cu1412 Cu    0.16667   0.49999   0.78645   0.00000  Uiso   1.00
H1413  H     0.14522   0.37099   0.75734   0.00000  Uiso   1.00
H1414  H     0.29023   0.39948   0.71127   0.00000  Uiso   1.00
H1415  H     0.24759   0.43969   0.72425   0.00000  Uiso   1.00
H1416  H     0.30410   0.56646   0.90944   0.00000  Uiso   1.00
H1417  H     0.02011   0.57498   0.87155   0.00000  Uiso   1.00
H1418  H     0.08762   0.56321   0.93818   0.00000  Uiso   1.00
H1419  H     0.04493   0.60282   0.95281   0.00000  Uiso   1.00
H1420  H     0.04050   0.55137   0.97692   0.00000  Uiso   1.00
H1421  H     0.02876   0.43620   0.92274   0.00000  Uiso   1.00
H1422  H     0.04334   0.45843   0.97958   0.00000  Uiso   1.00
H1423  H     0.08518   0.38929   0.67440   0.00000  Uiso   1.00
H1424  H     0.18511   0.62904   0.90944   0.00000  Uiso   1.00
H1425  H     0.01833   0.38416   0.98420   0.00000  Uiso   1.00
H1426  H     0.06698   0.36976   0.94876   0.00000  Uiso   1.00
H1427  H     0.23023   0.61167   0.74030   0.00000  Uiso   1.00
H1428  H     0.20396   0.60058   0.68090   0.00000  Uiso   1.00
H1429  H     0.29403   0.58327   0.99781   0.00000  Uiso   1.00
H1430  H     0.28918   0.63523   0.68542   0.00000  Uiso   1.00
H1431  H     0.31786   0.59576   0.72505   0.00000  Uiso   1.00
H1432  H     0.14427   0.62942   0.75736   0.00000  Uiso   1.00
H1433  H     0.18476   0.37055   0.90957   0.00000  Uiso   1.00
H1434  H     0.11174   0.45252   0.70496   0.00000  Uiso   1.00
H1435  H     0.22479   0.54523   0.96253   0.00000  Uiso   1.00
H1436  H     0.31334   0.42622   0.79259   0.00000  Uiso   1.00
H1437  H     0.03047   0.43597   0.75620   0.00000  Uiso   1.00
H1438  H     0.29683   0.45077   0.68739   0.00000  Uiso   1.00
N1439  N     0.16668   0.50001   0.95069   0.00000  Uiso   1.00
N1440  N     0.16665   0.49999   0.71597   0.00000  Uiso   1.00
O1441  O     0.16666   0.43989   0.87291   0.00000  Uiso   1.00
O1442  O     0.01155   0.51440   0.89615   0.00000  Uiso   1.00
O1443  O     0.10575   0.44544   0.94170   0.00000  Uiso   1.00
O1444  O     0.23335   0.55025   0.72477   0.00000  Uiso   1.00
O1445  O     0.16667   0.56011   0.79375   0.00000  Uiso   1.00
O1446  O     0.16666   0.43988   0.79372   0.00000  Uiso   1.00
O1447  O     0.16667   0.56012   0.87294   0.00000  Uiso   1.00
O1448  O     0.09161   0.50000   0.86379   0.00000  Uiso   1.00
O1449  O     0.24172   0.50000   0.80288   0.00000  Uiso   1.00
O1450  O     0.09161   0.49999   0.78460   0.00000  Uiso   1.00
O1451  O     0.24172   0.50001   0.88207   0.00000  Uiso   1.00
O1452  O     0.32174   0.48735   0.76994   0.00000  Uiso   1.00
C1453  C     0.49960   0.42070   0.83337   0.00000  Uiso   1.00
C1454  C     0.50934   0.35453   0.87619   0.00000  Uiso   1.00
C1455  C     0.49880   0.62391   0.83326   0.00000  Uiso   1.00
C1456  C     0.49880   0.37609   0.83342   0.00000  Uiso   1.00
C1457  C     0.46858   0.47382   0.68792   0.00000  Uiso   1.00
C1458  C     0.53198   0.52569   0.97886   0.00000  Uiso   1.00
C1459  C     0.46766   0.47392   0.97097   0.00000  Uiso   1.00
C1460  C     0.53164   0.52646   0.69547   0.00000  Uiso   1.00
C1461  C     0.65776   0.44448   0.76222   0.00000  Uiso   1.00
C1462  C     0.62081   0.43293   0.71849   0.00000  Uiso   1.00
C1463  C     0.34307   0.55745   0.90273   0.00000  Uiso   1.00
C1464  C     0.49962   0.57930   0.83324   0.00000  Uiso   1.00
C1465  C     0.38141   0.56944   0.94538   0.00000  Uiso   1.00
C1466  C     0.39053   0.43575   0.95519   0.00000  Uiso   1.00
C1467  C     0.39036   0.39209   0.97535   0.00000  Uiso   1.00
C1468  C     0.56831   0.59188   0.70968   0.00000  Uiso   1.00
C1469  C     0.62062   0.60210   0.69521   0.00000  Uiso   1.00
C1470  C     0.40144   0.49943   0.82139   0.00000  Uiso   1.00
C1471  C     0.59855   0.50097   0.84523   0.00000  Uiso   1.00
C1472  C     0.34641   0.49651   0.81487   0.00000  Uiso   1.00
C1473  C     0.65352   0.50460   0.85146   0.00000  Uiso   1.00
C1474  C     0.48747   0.35477   0.79066   0.00000  Uiso   1.00
C1475  C     0.50948   0.64523   0.87610   0.00000  Uiso   1.00
C1476  C     0.48713   0.64546   0.79063   0.00000  Uiso   1.00
Cu1477 Cu    0.50000   0.50001   0.88022   0.00000  Uiso   1.00
Cu1478 Cu    0.50000   0.49999   0.78645   0.00000  Uiso   1.00
H1479  H     0.47856   0.37099   0.75734   0.00000  Uiso   1.00
H1480  H     0.62356   0.39948   0.71127   0.00000  Uiso   1.00
H1481  H     0.58093   0.43969   0.72425   0.00000  Uiso   1.00
H1482  H     0.63743   0.56646   0.90944   0.00000  Uiso   1.00
H1483  H     0.35344   0.57498   0.87155   0.00000  Uiso   1.00
H1484  H     0.42096   0.56321   0.93818   0.00000  Uiso   1.00
H1485  H     0.37827   0.60282   0.95281   0.00000  Uiso   1.00
H1486  H     0.37384   0.55137   0.97692   0.00000  Uiso   1.00
H1487  H     0.36210   0.43620   0.92274   0.00000  Uiso   1.00
H1488  H     0.37667   0.45843   0.97958   0.00000  Uiso   1.00
H1489  H     0.41851   0.38929   0.67440   0.00000  Uiso   1.00
H1490  H     0.51844   0.62904   0.90944   0.00000  Uiso   1.00
H1491  H     0.35166   0.38416   0.98420   0.00000  Uiso   1.00
H1492  H     0.40031   0.36976   0.94876   0.00000  Uiso   1.00
H1493  H     0.56356   0.61167   0.74030   0.00000  Uiso   1.00
H1494  H     0.53729   0.60058   0.68090   0.00000  Uiso   1.00
H1495  H     0.62736   0.58327   0.99781   0.00000  Uiso   1.00
H1496  H     0.62252   0.63523   0.68542   0.00000  Uiso   1.00
H1497  H     0.65120   0.59576   0.72505   0.00000  Uiso   1.00
H1498  H     0.47760   0.62942   0.75736   0.00000  Uiso   1.00
H1499  H     0.51810   0.37055   0.90957   0.00000  Uiso   1.00
H1500  H     0.44507   0.45252   0.70496   0.00000  Uiso   1.00
H1501  H     0.55812   0.54523   0.96253   0.00000  Uiso   1.00
H1502  H     0.64668   0.42622   0.79259   0.00000  Uiso   1.00
H1503  H     0.36381   0.43597   0.75620   0.00000  Uiso   1.00
H1504  H     0.63016   0.45077   0.68739   0.00000  Uiso   1.00
N1505  N     0.50001   0.50001   0.95069   0.00000  Uiso   1.00
N1506  N     0.49999   0.49999   0.71597   0.00000  Uiso   1.00
O1507  O     0.50000   0.43989   0.87291   0.00000  Uiso   1.00
O1508  O     0.34488   0.51440   0.89615   0.00000  Uiso   1.00
O1509  O     0.43909   0.44544   0.94170   0.00000  Uiso   1.00
O1510  O     0.56669   0.55025   0.72477   0.00000  Uiso   1.00
O1511  O     0.50000   0.56011   0.79375   0.00000  Uiso   1.00
O1512  O     0.50000   0.43988   0.79372   0.00000  Uiso   1.00
O1513  O     0.50000   0.56012   0.87294   0.00000  Uiso   1.00
O1514  O     0.42495   0.50000   0.86379   0.00000  Uiso   1.00
O1515  O     0.57505   0.50000   0.80288   0.00000  Uiso   1.00
O1516  O     0.42494   0.49999   0.78460   0.00000  Uiso   1.00
O1517  O     0.57506   0.50001   0.88207   0.00000  Uiso   1.00
O1518  O     0.65507   0.48735   0.76994   0.00000  Uiso   1.00
C1519  C     0.83293   0.42070   0.83337   0.00000  Uiso   1.00
C1520  C     0.84267   0.35453   0.87619   0.00000  Uiso   1.00
C1521  C     0.83213   0.62391   0.83326   0.00000  Uiso   1.00
C1522  C     0.83214   0.37609   0.83342   0.00000  Uiso   1.00
C1523  C     0.80192   0.47382   0.68792   0.00000  Uiso   1.00
C1524  C     0.86531   0.52569   0.97886   0.00000  Uiso   1.00
C1525  C     0.80100   0.47392   0.97097   0.00000  Uiso   1.00
C1526  C     0.86497   0.52646   0.69547   0.00000  Uiso   1.00
C1527  C     0.99110   0.44448   0.76222   0.00000  Uiso   1.00
C1528  C     0.95414   0.43293   0.71849   0.00000  Uiso   1.00
C1529  C     0.67641   0.55745   0.90273   0.00000  Uiso   1.00
C1530  C     0.83296   0.57930   0.83324   0.00000  Uiso   1.00
C1531  C     0.71474   0.56944   0.94538   0.00000  Uiso   1.00
C1532  C     0.72386   0.43575   0.95519   0.00000  Uiso   1.00
C1533  C     0.72369   0.39209   0.97535   0.00000  Uiso   1.00
C1534  C     0.90165   0.59188   0.70968   0.00000  Uiso   1.00
C1535  C     0.95395   0.60210   0.69521   0.00000  Uiso   1.00
C1536  C     0.73477   0.49943   0.82139   0.00000  Uiso   1.00
C1537  C     0.93189   0.50097   0.84523   0.00000  Uiso   1.00
C1538  C     0.67974   0.49651   0.81487   0.00000  Uiso   1.00
C1539  C     0.98686   0.50460   0.85146   0.00000  Uiso   1.00
C1540  C     0.82080   0.35477   0.79066   0.00000  Uiso   1.00
C1541  C     0.84282   0.64523   0.87610   0.00000  Uiso   1.00
C1542  C     0.82047   0.64546   0.79063   0.00000  Uiso   1.00
Cu1543 Cu    0.83333   0.50001   0.88022   0.00000  Uiso   1.00
Cu1544 Cu    0.83333   0.49999   0.78645   0.00000  Uiso   1.00
H1545  H     0.81189   0.37099   0.75734   0.00000  Uiso   1.00
H1546  H     0.95690   0.39948   0.71127   0.00000  Uiso   1.00
H1547  H     0.91426   0.43969   0.72425   0.00000  Uiso   1.00
H1548  H     0.97076   0.56646   0.90944   0.00000  Uiso   1.00
H1549  H     0.68677   0.57498   0.87155   0.00000  Uiso   1.00
H1550  H     0.75429   0.56321   0.93818   0.00000  Uiso   1.00
H1551  H     0.71160   0.60282   0.95281   0.00000  Uiso   1.00
H1552  H     0.70717   0.55137   0.97692   0.00000  Uiso   1.00
H1553  H     0.69543   0.43620   0.92274   0.00000  Uiso   1.00
H1554  H     0.71000   0.45843   0.97958   0.00000  Uiso   1.00
H1555  H     0.75184   0.38929   0.67440   0.00000  Uiso   1.00
H1556  H     0.85177   0.62904   0.90944   0.00000  Uiso   1.00
H1557  H     0.68499   0.38416   0.98420   0.00000  Uiso   1.00
H1558  H     0.73365   0.36976   0.94876   0.00000  Uiso   1.00
H1559  H     0.89690   0.61167   0.74030   0.00000  Uiso   1.00
H1560  H     0.87063   0.60058   0.68090   0.00000  Uiso   1.00
H1561  H     0.96069   0.58327   0.99781   0.00000  Uiso   1.00
H1562  H     0.95585   0.63523   0.68542   0.00000  Uiso   1.00
H1563  H     0.98453   0.59576   0.72505   0.00000  Uiso   1.00
H1564  H     0.81093   0.62942   0.75736   0.00000  Uiso   1.00
H1565  H     0.85143   0.37055   0.90957   0.00000  Uiso   1.00
H1566  H     0.77841   0.45252   0.70496   0.00000  Uiso   1.00
H1567  H     0.89145   0.54523   0.96253   0.00000  Uiso   1.00
H1568  H     0.98001   0.42622   0.79259   0.00000  Uiso   1.00
H1569  H     0.69714   0.43597   0.75620   0.00000  Uiso   1.00
H1570  H     0.96349   0.45077   0.68739   0.00000  Uiso   1.00
N1571  N     0.83335   0.50001   0.95069   0.00000  Uiso   1.00
N1572  N     0.83332   0.49999   0.71597   0.00000  Uiso   1.00
O1573  O     0.83333   0.43989   0.87291   0.00000  Uiso   1.00
O1574  O     0.67822   0.51440   0.89615   0.00000  Uiso   1.00
O1575  O     0.77242   0.44544   0.94170   0.00000  Uiso   1.00
O1576  O     0.90002   0.55025   0.72477   0.00000  Uiso   1.00
O1577  O     0.83334   0.56011   0.79375   0.00000  Uiso   1.00
O1578  O     0.83333   0.43988   0.79372   0.00000  Uiso   1.00
O1579  O     0.83334   0.56012   0.87294   0.00000  Uiso   1.00
O1580  O     0.75828   0.50000   0.86379   0.00000  Uiso   1.00
O1581  O     0.90839   0.50000   0.80288   0.00000  Uiso   1.00
O1582  O     0.75828   0.49999   0.78460   0.00000  Uiso   1.00
O1583  O     0.90839   0.50001   0.88207   0.00000  Uiso   1.00
O1584  O     0.98840   0.48735   0.76994   0.00000  Uiso   1.00
C1585  C     0.16627   0.75403   0.83337   0.00000  Uiso   1.00
C1586  C     0.17601   0.68787   0.87619   0.00000  Uiso   1.00
C1587  C     0.16546   0.95724   0.83326   0.00000  Uiso   1.00
C1588  C     0.16547   0.70942   0.83342   0.00000  Uiso   1.00
C1589  C     0.13525   0.80716   0.68792   0.00000  Uiso   1.00
C1590  C     0.19864   0.85902   0.97886   0.00000  Uiso   1.00
C1591  C     0.13433   0.80725   0.97097   0.00000  Uiso   1.00
C1592  C     0.19831   0.85980   0.69547   0.00000  Uiso   1.00
C1593  C     0.32443   0.77781   0.76222   0.00000  Uiso   1.00
C1594  C     0.28747   0.76626   0.71849   0.00000  Uiso   1.00
C1595  C     0.00974   0.89079   0.90273   0.00000  Uiso   1.00
C1596  C     0.16629   0.91263   0.83324   0.00000  Uiso   1.00
C1597  C     0.04808   0.90278   0.94538   0.00000  Uiso   1.00
C1598  C     0.05720   0.76908   0.95519   0.00000  Uiso   1.00
C1599  C     0.05703   0.72542   0.97535   0.00000  Uiso   1.00
C1600  C     0.23498   0.92522   0.70968   0.00000  Uiso   1.00
C1601  C     0.28729   0.93544   0.69521   0.00000  Uiso   1.00
C1602  C     0.06811   0.83276   0.82139   0.00000  Uiso   1.00
C1603  C     0.26522   0.83431   0.84523   0.00000  Uiso   1.00
C1604  C     0.01308   0.82984   0.81487   0.00000  Uiso   1.00
C1605  C     0.32019   0.83793   0.85146   0.00000  Uiso   1.00
C1606  C     0.15414   0.68811   0.79066   0.00000  Uiso   1.00
C1607  C     0.17615   0.97856   0.87610   0.00000  Uiso   1.00
C1608  C     0.15380   0.97879   0.79063   0.00000  Uiso   1.00
Cu1609 Cu    0.16667   0.83334   0.88022   0.00000  Uiso   1.00
Cu1610 Cu    0.16667   0.83333   0.78645   0.00000  Uiso   1.00
H1611  H     0.14522   0.70432   0.75734   0.00000  Uiso   1.00
H1612  H     0.29023   0.73282   0.71127   0.00000  Uiso   1.00
H1613  H     0.24759   0.77302   0.72425   0.00000  Uiso   1.00
H1614  H     0.30410   0.89979   0.90944   0.00000  Uiso   1.00
H1615  H     0.02011   0.90832   0.87155   0.00000  Uiso   1.00
H1616  H     0.08762   0.89654   0.93818   0.00000  Uiso   1.00
H1617  H     0.04493   0.93615   0.95281   0.00000  Uiso   1.00
H1618  H     0.04050   0.88470   0.97692   0.00000  Uiso   1.00
H1619  H     0.02876   0.76953   0.92274   0.00000  Uiso   1.00
H1620  H     0.04334   0.79176   0.97958   0.00000  Uiso   1.00
H1621  H     0.08518   0.72263   0.67440   0.00000  Uiso   1.00
H1622  H     0.18511   0.96238   0.90944   0.00000  Uiso   1.00
H1623  H     0.01833   0.71750   0.98420   0.00000  Uiso   1.00
H1624  H     0.06698   0.70309   0.94876   0.00000  Uiso   1.00
H1625  H     0.23023   0.94501   0.74030   0.00000  Uiso   1.00
H1626  H     0.20396   0.93391   0.68090   0.00000  Uiso   1.00
H1627  H     0.29403   0.91661   0.99781   0.00000  Uiso   1.00
H1628  H     0.28918   0.96856   0.68542   0.00000  Uiso   1.00
H1629  H     0.31786   0.92909   0.72505   0.00000  Uiso   1.00
H1630  H     0.14427   0.96276   0.75736   0.00000  Uiso   1.00
H1631  H     0.18476   0.70388   0.90957   0.00000  Uiso   1.00
H1632  H     0.11174   0.78586   0.70496   0.00000  Uiso   1.00
H1633  H     0.22479   0.87856   0.96253   0.00000  Uiso   1.00
H1634  H     0.31334   0.75955   0.79259   0.00000  Uiso   1.00
H1635  H     0.03047   0.76931   0.75620   0.00000  Uiso   1.00
H1636  H     0.29683   0.78410   0.68739   0.00000  Uiso   1.00
N1637  N     0.16668   0.83334   0.95069   0.00000  Uiso   1.00
N1638  N     0.16665   0.83332   0.71597   0.00000  Uiso   1.00
O1639  O     0.16666   0.77322   0.87291   0.00000  Uiso   1.00
O1640  O     0.01155   0.84773   0.89615   0.00000  Uiso   1.00
O1641  O     0.10575   0.77877   0.94170   0.00000  Uiso   1.00
O1642  O     0.23335   0.88358   0.72477   0.00000  Uiso   1.00
O1643  O     0.16667   0.89345   0.79375   0.00000  Uiso   1.00
O1644  O     0.16666   0.77321   0.79372   0.00000  Uiso   1.00
O1645  O     0.16667   0.89346   0.87294   0.00000  Uiso   1.00
O1646  O     0.09161   0.83334   0.86379   0.00000  Uiso   1.00
O1647  O     0.24172   0.83333   0.80288   0.00000  Uiso   1.00
O1648  O     0.09161   0.83333   0.78460   0.00000  Uiso   1.00
O1649  O     0.24172   0.83334   0.88207   0.00000  Uiso   1.00
O1650  O     0.32174   0.82068   0.76994   0.00000  Uiso   1.00
C1651  C     0.49960   0.75403   0.83337   0.00000  Uiso   1.00
C1652  C     0.50934   0.68787   0.87619   0.00000  Uiso   1.00
C1653  C     0.49880   0.95724   0.83326   0.00000  Uiso   1.00
C1654  C     0.49880   0.70942   0.83342   0.00000  Uiso   1.00
C1655  C     0.46858   0.80716   0.68792   0.00000  Uiso   1.00
C1656  C     0.53198   0.85902   0.97886   0.00000  Uiso   1.00
C1657  C     0.46766   0.80725   0.97097   0.00000  Uiso   1.00
C1658  C     0.53164   0.85980   0.69547   0.00000  Uiso   1.00
C1659  C     0.65776   0.77781   0.76222   0.00000  Uiso   1.00
C1660  C     0.62081   0.76626   0.71849   0.00000  Uiso   1.00
C1661  C     0.34307   0.89079   0.90273   0.00000  Uiso   1.00
C1662  C     0.49962   0.91263   0.83324   0.00000  Uiso   1.00
C1663  C     0.38141   0.90278   0.94538   0.00000  Uiso   1.00
C1664  C     0.39053   0.76908   0.95519   0.00000  Uiso   1.00
C1665  C     0.39036   0.72542   0.97535   0.00000  Uiso   1.00
C1666  C     0.56831   0.92522   0.70968   0.00000  Uiso   1.00
C1667  C     0.62062   0.93544   0.69521   0.00000  Uiso   1.00
C1668  C     0.40144   0.83276   0.82139   0.00000  Uiso   1.00
C1669  C     0.59855   0.83431   0.84523   0.00000  Uiso   1.00
C1670  C     0.34641   0.82984   0.81487   0.00000  Uiso   1.00
C1671  C     0.65352   0.83793   0.85146   0.00000  Uiso   1.00
C1672  C     0.48747   0.68811   0.79066   0.00000  Uiso   1.00
C1673  C     0.50948   0.97856   0.87610   0.00000  Uiso   1.00
C1674  C     0.48713   0.97879   0.79063   0.00000  Uiso   1.00
Cu1675 Cu    0.50000   0.83334   0.88022   0.00000  Uiso   1.00
Cu1676 Cu    0.50000   0.83333   0.78645   0.00000  Uiso   1.00
H1677  H     0.47856   0.70432   0.75734   0.00000  Uiso   1.00
H1678  H     0.62356   0.73282   0.71127   0.00000  Uiso   1.00
H1679  H     0.58093   0.77302   0.72425   0.00000  Uiso   1.00
H1680  H     0.63743   0.89979   0.90944   0.00000  Uiso   1.00
H1681  H     0.35344   0.90832   0.87155   0.00000  Uiso   1.00
H1682  H     0.42096   0.89654   0.93818   0.00000  Uiso   1.00
H1683  H     0.37827   0.93615   0.95281   0.00000  Uiso   1.00
H1684  H     0.37384   0.88470   0.97692   0.00000  Uiso   1.00
H1685  H     0.36210   0.76953   0.92274   0.00000  Uiso   1.00
H1686  H     0.37667   0.79176   0.97958   0.00000  Uiso   1.00
H1687  H     0.41851   0.72263   0.67440   0.00000  Uiso   1.00
H1688  H     0.51844   0.96238   0.90944   0.00000  Uiso   1.00
H1689  H     0.35166   0.71750   0.98420   0.00000  Uiso   1.00
H1690  H     0.40031   0.70309   0.94876   0.00000  Uiso   1.00
H1691  H     0.56356   0.94501   0.74030   0.00000  Uiso   1.00
H1692  H     0.53729   0.93391   0.68090   0.00000  Uiso   1.00
H1693  H     0.62736   0.91661   0.99781   0.00000  Uiso   1.00
H1694  H     0.62252   0.96856   0.68542   0.00000  Uiso   1.00
H1695  H     0.65120   0.92909   0.72505   0.00000  Uiso   1.00
H1696  H     0.47760   0.96276   0.75736   0.00000  Uiso   1.00
H1697  H     0.51810   0.70388   0.90957   0.00000  Uiso   1.00
H1698  H     0.44507   0.78586   0.70496   0.00000  Uiso   1.00
H1699  H     0.55812   0.87856   0.96253   0.00000  Uiso   1.00
H1700  H     0.64668   0.75955   0.79259   0.00000  Uiso   1.00
H1701  H     0.36381   0.76931   0.75620   0.00000  Uiso   1.00
H1702  H     0.63016   0.78410   0.68739   0.00000  Uiso   1.00
N1703  N     0.50001   0.83334   0.95069   0.00000  Uiso   1.00
N1704  N     0.49999   0.83332   0.71597   0.00000  Uiso   1.00
O1705  O     0.50000   0.77322   0.87291   0.00000  Uiso   1.00
O1706  O     0.34488   0.84773   0.89615   0.00000  Uiso   1.00
O1707  O     0.43909   0.77877   0.94170   0.00000  Uiso   1.00
O1708  O     0.56669   0.88358   0.72477   0.00000  Uiso   1.00
O1709  O     0.50000   0.89345   0.79375   0.00000  Uiso   1.00
O1710  O     0.50000   0.77321   0.79372   0.00000  Uiso   1.00
O1711  O     0.50000   0.89346   0.87294   0.00000  Uiso   1.00
O1712  O     0.42495   0.83334   0.86379   0.00000  Uiso   1.00
O1713  O     0.57505   0.83333   0.80288   0.00000  Uiso   1.00
O1714  O     0.42494   0.83333   0.78460   0.00000  Uiso   1.00
O1715  O     0.57506   0.83334   0.88207   0.00000  Uiso   1.00
O1716  O     0.65507   0.82068   0.76994   0.00000  Uiso   1.00
C1717  C     0.83293   0.75403   0.83337   0.00000  Uiso   1.00
C1718  C     0.84267   0.68787   0.87619   0.00000  Uiso   1.00
C1719  C     0.83213   0.95724   0.83326   0.00000  Uiso   1.00
C1720  C     0.83214   0.70942   0.83342   0.00000  Uiso   1.00
C1721  C     0.80192   0.80716   0.68792   0.00000  Uiso   1.00
C1722  C     0.86531   0.85902   0.97886   0.00000  Uiso   1.00
C1723  C     0.80100   0.80725   0.97097   0.00000  Uiso   1.00
C1724  C     0.86497   0.85980   0.69547   0.00000  Uiso   1.00
C1725  C     0.99110   0.77781   0.76222   0.00000  Uiso   1.00
C1726  C     0.95414   0.76626   0.71849   0.00000  Uiso   1.00
C1727  C     0.67641   0.89079   0.90273   0.00000  Uiso   1.00
C1728  C     0.83296   0.91263   0.83324   0.00000  Uiso   1.00
C1729  C     0.71474   0.90278   0.94538   0.00000  Uiso   1.00
C1730  C     0.72386   0.76908   0.95519   0.00000  Uiso   1.00
C1731  C     0.72369   0.72542   0.97535   0.00000  Uiso   1.00
C1732  C     0.90165   0.92522   0.70968   0.00000  Uiso   1.00
C1733  C     0.95395   0.93544   0.69521   0.00000  Uiso   1.00
C1734  C     0.73477   0.83276   0.82139   0.00000  Uiso   1.00
C1735  C     0.93189   0.83431   0.84523   0.00000  Uiso   1.00
C1736  C     0.67974   0.82984   0.81487   0.00000  Uiso   1.00
C1737  C     0.98686   0.83793   0.85146   0.00000  Uiso   1.00
C1738  C     0.82080   0.68811   0.79066   0.00000  Uiso   1.00
C1739  C     0.84282   0.97856   0.87610   0.00000  Uiso   1.00
C1740  C     0.82047   0.97879   0.79063   0.00000  Uiso   1.00
Cu1741 Cu    0.83333   0.83334   0.88022   0.00000  Uiso   1.00
Cu1742 Cu    0.83333   0.83333   0.78645   0.00000  Uiso   1.00
H1743  H     0.81189   0.70432   0.75734   0.00000  Uiso   1.00
H1744  H     0.95690   0.73282   0.71127   0.00000  Uiso   1.00
H1745  H     0.91426   0.77302   0.72425   0.00000  Uiso   1.00
H1746  H     0.97076   0.89979   0.90944   0.00000  Uiso   1.00
H1747  H     0.68677   0.90832   0.87155   0.00000  Uiso   1.00
H1748  H     0.75429   0.89654   0.93818   0.00000  Uiso   1.00
H1749  H     0.71160   0.93615   0.95281   0.00000  Uiso   1.00
H1750  H     0.70717   0.88470   0.97692   0.00000  Uiso   1.00
H1751  H     0.69543   0.76953   0.92274   0.00000  Uiso   1.00
H1752  H     0.71000   0.79176   0.97958   0.00000  Uiso   1.00
H1753  H     0.75184   0.72263   0.67440   0.00000  Uiso   1.00
H1754  H     0.85177   0.96238   0.90944   0.00000  Uiso   1.00
H1755  H     0.68499   0.71750   0.98420   0.00000  Uiso   1.00
H1756  H     0.73365   0.70309   0.94876   0.00000  Uiso   1.00
H1757  H     0.89690   0.94501   0.74030   0.00000  Uiso   1.00
H1758  H     0.87063   0.93391   0.68090   0.00000  Uiso   1.00
H1759  H     0.96069   0.91661   0.99781   0.00000  Uiso   1.00
H1760  H     0.95585   0.96856   0.68542   0.00000  Uiso   1.00
H1761  H     0.98453   0.92909   0.72505   0.00000  Uiso   1.00
H1762  H     0.81093   0.96276   0.75736   0.00000  Uiso   1.00
H1763  H     0.85143   0.70388   0.90957   0.00000  Uiso   1.00
H1764  H     0.77841   0.78586   0.70496   0.00000  Uiso   1.00
H1765  H     0.89145   0.87856   0.96253   0.00000  Uiso   1.00
H1766  H     0.98001   0.75955   0.79259   0.00000  Uiso   1.00
H1767  H     0.69714   0.76931   0.75620   0.00000  Uiso   1.00
H1768  H     0.96349   0.78410   0.68739   0.00000  Uiso   1.00
N1769  N     0.83335   0.83334   0.95069   0.00000  Uiso   1.00
N1770  N     0.83332   0.83332   0.71597   0.00000  Uiso   1.00
O1771  O     0.83333   0.77322   0.87291   0.00000  Uiso   1.00
O1772  O     0.67822   0.84773   0.89615   0.00000  Uiso   1.00
O1773  O     0.77242   0.77877   0.94170   0.00000  Uiso   1.00
O1774  O     0.90002   0.88358   0.72477   0.00000  Uiso   1.00
O1775  O     0.83334   0.89345   0.79375   0.00000  Uiso   1.00
O1776  O     0.83333   0.77321   0.79372   0.00000  Uiso   1.00
O1777  O     0.83334   0.89346   0.87294   0.00000  Uiso   1.00
O1778  O     0.75828   0.83334   0.86379   0.00000  Uiso   1.00
O1779  O     0.90839   0.83333   0.80288   0.00000  Uiso   1.00
O1780  O     0.75828   0.83333   0.78460   0.00000  Uiso   1.00
O1781  O     0.90839   0.83334   0.88207   0.00000  Uiso   1.00
O1782  O     0.98840   0.82068   0.76994   0.00000  Uiso   1.00
loop_
_geom_bond_atom_site_label_1
_geom_bond_atom_site_label_2
_geom_bond_distance
_geom_bond_site_symmetry_2
_ccdc_geom_bond_type
C1     C4      1.447   .     S
C1     O55     1.291   .     A
C1     O60     1.290   .     A
C2     C4      1.400   .     A
C2     H47     1.083   .     S
C2     C419    1.383   1_545 S
C3     C23     1.402   .     A
C3     C24     1.400   .     A
C3     C12     1.447   .     S
C4     C22     1.401   .     A
C5     H48     1.079   .     S
C5     N54     1.363   .     A
C5     C1195   1.432   1_554 S
C6     H49     1.079   .     S
C6     N53     1.362   .     A
C6     C602    1.427   .     S
C7     N53     1.374   .     A
C7     O57     1.392   .     S
C7     C599    1.432   .     S
C8     N54     1.372   .     A
C8     O58     1.388   .     S
C8     C1194   1.427   1_554 S
C9     C10     1.521   .     S
C9     O66     1.413   .     S
C9     H50     1.116   .     S
C9     H117    1.113   .     S
C10    H28     1.110   .     S
C10    H52     1.110   .     S
C10    H29     1.110   .     S
C11    O56     1.412   .     S
C11    C13     1.522   .     S
C11    H31     1.116   .     S
C11    H162    1.113   1_455 S
C12    O61     1.289   .     A
C12    O59     1.292   .     A
C13    H33     1.111   .     S
C13    H32     1.110   .     S
C13    H34     1.111   .     S
C14    H36     1.114   .     S
C14    H35     1.110   .     S
C14    O57     1.416   .     S
C14    C15     1.526   .     S
C15    H39     1.110   .     S
C15    H40     1.111   .     S
C15    H631    1.109   .     S
C16    O58     1.417   .     S
C16    H42     1.116   .     S
C16    H41     1.109   .     S
C16    C17     1.523   .     S
C17    H44     1.111   .     S
C17    H45     1.111   .     S
C17    H1231   1.107   1_554 S
C18    C20     1.439   .     S
C18    O64     1.289   .     A
C18    O62     1.283   .     A
C19    C21     1.439   .     S
C19    O65     1.290   .     A
C19    O63     1.282   .     A
C20    C153    1.356   1_455 S
C20    O198    1.389   1_455 S
C21    C86     1.356   .     S
C21    O122    1.388   .     S
C22    H27     1.083   .     S
C22    C420    1.383   1_545 S
C23    H38     1.084   .     S
C23    C200    1.383   .     S
C24    H46     1.083   .     S
C24    C220    1.383   .     S
Cu25   O61     1.960   .     S
Cu25   O62     1.970   .     S
Cu25   N53     2.012   .     S
Cu25   O65     1.971   .     S
Cu25   Cu26    2.677   .     S
Cu25   O55     1.962   .     S
Cu26   O63     1.970   .     S
Cu26   N54     2.012   .     S
Cu26   O59     1.962   .     S
Cu26   O64     1.971   .     S
Cu26   O60     1.960   .     S
H30    C77     1.113   .     S
H37    C1203   1.109   1_554 S
H43    C611    1.107   .     S
H51    C141    1.113   1_455 S
O56    C153    1.388   1_455 S
O66    C86     1.389   .     S
C67    C70     1.447   .     S
C67    O121    1.291   .     A
C67    O126    1.290   .     A
C68    C70     1.400   .     A
C68    H113    1.083   .     S
C68    C485    1.383   1_545 S
C69    C89     1.402   .     A
C69    C90     1.400   .     A
C69    C78     1.447   .     S
C70    C88     1.401   .     A
C71    H114    1.079   .     S
C71    N120    1.363   .     A
C71    C1261   1.432   1_554 S
C72    H115    1.079   .     S
C72    N119    1.362   .     A
C72    C668    1.427   .     S
C73    N119    1.374   .     A
C73    O123    1.392   .     S
C73    C665    1.432   .     S
C74    N120    1.372   .     A
C74    O124    1.388   .     S
C74    C1260   1.427   1_554 S
C75    C76     1.521   .     S
C75    O132    1.413   .     S
C75    H116    1.116   .     S
C75    H183    1.113   .     S
C76    H94     1.110   .     S
C76    H118    1.110   .     S
C76    H95     1.110   .     S
C77    O122    1.412   .     S
C77    C79     1.522   .     S
C77    H97     1.116   .     S
C78    O127    1.289   .     A
C78    O125    1.292   .     A
C79    H99     1.111   .     S
C79    H98     1.110   .     S
C79    H100    1.111   .     S
C80    H102    1.114   .     S
C80    H101    1.110   .     S
C80    O123    1.416   .     S
C80    C81     1.526   .     S
C81    H105    1.110   .     S
C81    H106    1.111   .     S
C81    H697    1.109   .     S
C82    O124    1.417   .     S
C82    H108    1.116   .     S
C82    H107    1.109   .     S
C82    C83     1.523   .     S
C83    H110    1.111   .     S
C83    H111    1.111   .     S
C83    H1297   1.107   1_554 S
C84    C86     1.439   .     S
C84    O130    1.289   .     A
C84    O128    1.283   .     A
C85    C87     1.439   .     S
C85    O131    1.290   .     A
C85    O129    1.282   .     A
C87    C152    1.356   .     S
C87    O188    1.388   .     S
C88    H93     1.083   .     S
C88    C486    1.383   1_545 S
C89    H104    1.084   .     S
C89    C266    1.383   .     S
C90    H112    1.083   .     S
C90    C286    1.383   .     S
Cu91   O127    1.960   .     S
Cu91   O128    1.970   .     S
Cu91   N119    2.012   .     S
Cu91   O131    1.971   .     S
Cu91   Cu92    2.677   .     S
Cu91   O121    1.962   .     S
Cu92   O129    1.970   .     S
Cu92   N120    2.012   .     S
Cu92   O125    1.962   .     S
Cu92   O130    1.971   .     S
Cu92   O126    1.960   .     S
H96    C143    1.113   .     S
H103   C1269   1.109   1_554 S
H109   C677    1.107   .     S
O132   C152    1.389   .     S
C133   C136    1.447   .     S
C133   O187    1.291   .     A
C133   O192    1.290   .     A
C134   C136    1.400   .     A
C134   H179    1.083   .     S
C134   C551    1.383   1_545 S
C135   C155    1.402   .     A
C135   C156    1.400   .     A
C135   C144    1.447   .     S
C136   C154    1.401   .     A
C137   H180    1.079   .     S
C137   N186    1.363   .     A
C137   C1327   1.432   1_554 S
C138   H181    1.079   .     S
C138   N185    1.362   .     A
C138   C734    1.427   .     S
C139   N185    1.374   .     A
C139   O189    1.392   .     S
C139   C731    1.432   .     S
C140   N186    1.372   .     A
C140   O190    1.388   .     S
C140   C1326   1.427   1_554 S
C141   C142    1.521   .     S
C141   O198    1.413   .     S
C141   H182    1.116   .     S
C141   H51     1.113   1_655 S
C142   H160    1.110   .     S
C142   H184    1.110   .     S
C142   H161    1.110   .     S
C143   O188    1.412   .     S
C143   C145    1.522   .     S
C143   H163    1.116   .     S
C144   O193    1.289   .     A
C144   O191    1.292   .     A
C145   H165    1.111   .     S
C145   H164    1.110   .     S
C145   H166    1.111   .     S
C146   H168    1.114   .     S
C146   H167    1.110   .     S
C146   O189    1.416   .     S
C146   C147    1.526   .     S
C147   H171    1.110   .     S
C147   H172    1.111   .     S
C147   H763    1.109   .     S
C148   O190    1.417   .     S
C148   H174    1.116   .     S
C148   H173    1.109   .     S
C148   C149    1.523   .     S
C149   H176    1.111   .     S
C149   H177    1.111   .     S
C149   H1363   1.107   1_554 S
C150   C152    1.439   .     S
C150   O196    1.289   .     A
C150   O194    1.283   .     A
C151   C153    1.439   .     S
C151   O197    1.290   .     A
C151   O195    1.282   .     A
C153   C20     1.356   1_655 S
C153   O56     1.388   1_655 S
C154   H159    1.083   .     S
C154   C552    1.383   1_545 S
C155   H170    1.084   .     S
C155   C332    1.383   .     S
C156   H178    1.083   .     S
C156   C352    1.383   .     S
Cu157  O193    1.960   .     S
Cu157  O194    1.970   .     S
Cu157  N185    2.012   .     S
Cu157  O197    1.971   .     S
Cu157  Cu158   2.677   .     S
Cu157  O187    1.962   .     S
Cu158  O195    1.970   .     S
Cu158  N186    2.012   .     S
Cu158  O191    1.962   .     S
Cu158  O196    1.971   .     S
Cu158  O192    1.960   .     S
H162   C11     1.113   1_655 S
H169   C1335   1.109   1_554 S
H175   C743    1.107   .     S
O198   C20     1.389   1_655 S
C199   C202    1.447   .     S
C199   O253    1.291   .     A
C199   O258    1.290   .     A
C200   C202    1.400   .     A
C200   H245    1.083   .     S
C201   C221    1.402   .     A
C201   C222    1.400   .     A
C201   C210    1.447   .     S
C202   C220    1.401   .     A
C203   H246    1.079   .     S
C203   N252    1.363   .     A
C203   C1393   1.432   1_554 S
C204   H247    1.079   .     S
C204   N251    1.362   .     A
C204   C800    1.427   .     S
C205   N251    1.374   .     A
C205   O255    1.392   .     S
C205   C797    1.432   .     S
C206   N252    1.372   .     A
C206   O256    1.388   .     S
C206   C1392   1.427   1_554 S
C207   C208    1.521   .     S
C207   O264    1.413   .     S
C207   H248    1.116   .     S
C207   H315    1.113   .     S
C208   H226    1.110   .     S
C208   H250    1.110   .     S
C208   H227    1.110   .     S
C209   O254    1.412   .     S
C209   C211    1.522   .     S
C209   H229    1.116   .     S
C209   H360    1.113   1_455 S
C210   O259    1.289   .     A
C210   O257    1.292   .     A
C211   H231    1.111   .     S
C211   H230    1.110   .     S
C211   H232    1.111   .     S
C212   H234    1.114   .     S
C212   H233    1.110   .     S
C212   O255    1.416   .     S
C212   C213    1.526   .     S
C213   H237    1.110   .     S
C213   H238    1.111   .     S
C213   H829    1.109   .     S
C214   O256    1.417   .     S
C214   H240    1.116   .     S
C214   H239    1.109   .     S
C214   C215    1.523   .     S
C215   H242    1.111   .     S
C215   H243    1.111   .     S
C215   H1429   1.107   1_554 S
C216   C218    1.439   .     S
C216   O262    1.289   .     A
C216   O260    1.283   .     A
C217   C219    1.439   .     S
C217   O263    1.290   .     A
C217   O261    1.282   .     A
C218   C351    1.356   1_455 S
C218   O396    1.389   1_455 S
C219   C284    1.356   .     S
C219   O320    1.388   .     S
C220   H225    1.083   .     S
C221   H236    1.084   .     S
C221   C398    1.383   .     S
C222   H244    1.083   .     S
C222   C418    1.383   .     S
Cu223  O259    1.960   .     S
Cu223  O260    1.970   .     S
Cu223  N251    2.012   .     S
Cu223  O263    1.971   .     S
Cu223  Cu224   2.677   .     S
Cu223  O253    1.962   .     S
Cu224  O261    1.970   .     S
Cu224  N252    2.012   .     S
Cu224  O257    1.962   .     S
Cu224  O262    1.971   .     S
Cu224  O258    1.960   .     S
H228   C275    1.113   .     S
H235   C1401   1.109   1_554 S
H241   C809    1.107   .     S
H249   C339    1.113   1_455 S
O254   C351    1.388   1_455 S
O264   C284    1.389   .     S
C265   C268    1.447   .     S
C265   O319    1.291   .     A
C265   O324    1.290   .     A
C266   C268    1.400   .     A
C266   H311    1.083   .     S
C267   C287    1.402   .     A
C267   C288    1.400   .     A
C267   C276    1.447   .     S
C268   C286    1.401   .     A
C269   H312    1.079   .     S
C269   N318    1.363   .     A
C269   C1459   1.432   1_554 S
C270   H313    1.079   .     S
C270   N317    1.362   .     A
C270   C866    1.427   .     S
C271   N317    1.374   .     A
C271   O321    1.392   .     S
C271   C863    1.432   .     S
C272   N318    1.372   .     A
C272   O322    1.388   .     S
C272   C1458   1.427   1_554 S
C273   C274    1.521   .     S
C273   O330    1.413   .     S
C273   H314    1.116   .     S
C273   H381    1.113   .     S
C274   H292    1.110   .     S
C274   H316    1.110   .     S
C274   H293    1.110   .     S
C275   O320    1.412   .     S
C275   C277    1.522   .     S
C275   H295    1.116   .     S
C276   O325    1.289   .     A
C276   O323    1.292   .     A
C277   H297    1.111   .     S
C277   H296    1.110   .     S
C277   H298    1.111   .     S
C278   H300    1.114   .     S
C278   H299    1.110   .     S
C278   O321    1.416   .     S
C278   C279    1.526   .     S
C279   H303    1.110   .     S
C279   H304    1.111   .     S
C279   H895    1.109   .     S
C280   O322    1.417   .     S
C280   H306    1.116   .     S
C280   H305    1.109   .     S
C280   C281    1.523   .     S
C281   H308    1.111   .     S
C281   H309    1.111   .     S
C281   H1495   1.107   1_554 S
C282   C284    1.439   .     S
C282   O328    1.289   .     A
C282   O326    1.283   .     A
C283   C285    1.439   .     S
C283   O329    1.290   .     A
C283   O327    1.282   .     A
C285   C350    1.356   .     S
C285   O386    1.388   .     S
C286   H291    1.083   .     S
C287   H302    1.084   .     S
C287   C464    1.383   .     S
C288   H310    1.083   .     S
C288   C484    1.383   .     S
Cu289  O325    1.960   .     S
Cu289  O326    1.970   .     S
Cu289  N317    2.012   .     S
Cu289  O329    1.971   .     S
Cu289  Cu290   2.677   .     S
Cu289  O319    1.962   .     S
Cu290  O327    1.970   .     S
Cu290  N318    2.012   .     S
Cu290  O323    1.962   .     S
Cu290  O328    1.971   .     S
Cu290  O324    1.960   .     S
H294   C341    1.113   .     S
H301   C1467   1.109   1_554 S
H307   C875    1.107   .     S
O330   C350    1.389   .     S
C331   C334    1.447   .     S
C331   O385    1.291   .     A
C331   O390    1.290   .     A
C332   C334    1.400   .     A
C332   H377    1.083   .     S
C333   C353    1.402   .     A
C333   C354    1.400   .     A
C333   C342    1.447   .     S
C334   C352    1.401   .     A
C335   H378    1.079   .     S
C335   N384    1.363   .     A
C335   C1525   1.432   1_554 S
C336   H379    1.079   .     S
C336   N383    1.362   .     A
C336   C932    1.427   .     S
C337   N383    1.374   .     A
C337   O387    1.392   .     S
C337   C929    1.432   .     S
C338   N384    1.372   .     A
C338   O388    1.388   .     S
C338   C1524   1.427   1_554 S
C339   C340    1.521   .     S
C339   O396    1.413   .     S
C339   H380    1.116   .     S
C339   H249    1.113   1_655 S
C340   H358    1.110   .     S
C340   H382    1.110   .     S
C340   H359    1.110   .     S
C341   O386    1.412   .     S
C341   C343    1.522   .     S
C341   H361    1.116   .     S
C342   O391    1.289   .     A
C342   O389    1.292   .     A
C343   H363    1.111   .     S
C343   H362    1.110   .     S
C343   H364    1.111   .     S
C344   H366    1.114   .     S
C344   H365    1.110   .     S
C344   O387    1.416   .     S
C344   C345    1.526   .     S
C345   H369    1.110   .     S
C345   H370    1.111   .     S
C345   H961    1.109   .     S
C346   O388    1.417   .     S
C346   H372    1.116   .     S
C346   H371    1.109   .     S
C346   C347    1.523   .     S
C347   H374    1.111   .     S
C347   H375    1.111   .     S
C347   H1561   1.107   1_554 S
C348   C350    1.439   .     S
C348   O394    1.289   .     A
C348   O392    1.283   .     A
C349   C351    1.439   .     S
C349   O395    1.290   .     A
C349   O393    1.282   .     A
C351   C218    1.356   1_655 S
C351   O254    1.388   1_655 S
C352   H357    1.083   .     S
C353   H368    1.084   .     S
C353   C530    1.383   .     S
C354   H376    1.083   .     S
C354   C550    1.383   .     S
Cu355  O391    1.960   .     S
Cu355  O392    1.970   .     S
Cu355  N383    2.012   .     S
Cu355  O395    1.971   .     S
Cu355  Cu356   2.677   .     S
Cu355  O385    1.962   .     S
Cu356  O393    1.970   .     S
Cu356  N384    2.012   .     S
Cu356  O389    1.962   .     S
Cu356  O394    1.971   .     S
Cu356  O390    1.960   .     S
H360   C209    1.113   1_655 S
H367   C1533   1.109   1_554 S
H373   C941    1.107   .     S
O396   C218    1.389   1_655 S
C397   C400    1.447   .     S
C397   O451    1.291   .     A
C397   O456    1.290   .     A
C398   C400    1.400   .     A
C398   H443    1.083   .     S
C399   C419    1.402   .     A
C399   C420    1.400   .     A
C399   C408    1.447   .     S
C400   C418    1.401   .     A
C401   H444    1.079   .     S
C401   N450    1.363   .     A
C401   C1591   1.432   1_554 S
C402   H445    1.079   .     S
C402   N449    1.362   .     A
C402   C998    1.427   .     S
C403   N449    1.374   .     A
C403   O453    1.392   .     S
C403   C995    1.432   .     S
C404   N450    1.372   .     A
C404   O454    1.388   .     S
C404   C1590   1.427   1_554 S
C405   C406    1.521   .     S
C405   O462    1.413   .     S
C405   H446    1.116   .     S
C405   H513    1.113   .     S
C406   H424    1.110   .     S
C406   H448    1.110   .     S
C406   H425    1.110   .     S
C407   O452    1.412   .     S
C407   C409    1.522   .     S
C407   H427    1.116   .     S
C407   H558    1.113   1_455 S
C408   O457    1.289   .     A
C408   O455    1.292   .     A
C409   H429    1.111   .     S
C409   H428    1.110   .     S
C409   H430    1.111   .     S
C410   H432    1.114   .     S
C410   H431    1.110   .     S
C410   O453    1.416   .     S
C410   C411    1.526   .     S
C411   H435    1.110   .     S
C411   H436    1.111   .     S
C411   H1027   1.109   .     S
C412   O454    1.417   .     S
C412   H438    1.116   .     S
C412   H437    1.109   .     S
C412   C413    1.523   .     S
C413   H440    1.111   .     S
C413   H441    1.111   .     S
C413   H1627   1.107   1_554 S
C414   C416    1.439   .     S
C414   O460    1.289   .     A
C414   O458    1.283   .     A
C415   C417    1.439   .     S
C415   O461    1.290   .     A
C415   O459    1.282   .     A
C416   C549    1.356   1_455 S
C416   O594    1.389   1_455 S
C417   C482    1.356   .     S
C417   O518    1.388   .     S
C418   H423    1.083   .     S
C419   H434    1.084   .     S
C419   C2      1.383   1_565 S
C420   H442    1.083   .     S
C420   C22     1.383   1_565 S
Cu421  O457    1.960   .     S
Cu421  O458    1.970   .     S
Cu421  N449    2.012   .     S
Cu421  O461    1.971   .     S
Cu421  Cu422   2.677   .     S
Cu421  O451    1.962   .     S
Cu422  O459    1.970   .     S
Cu422  N450    2.012   .     S
Cu422  O455    1.962   .     S
Cu422  O460    1.971   .     S
Cu422  O456    1.960   .     S
H426   C473    1.113   .     S
H433   C1599   1.109   1_554 S
H439   C1007   1.107   .     S
H447   C537    1.113   1_455 S
O452   C549    1.388   1_455 S
O462   C482    1.389   .     S
C463   C466    1.447   .     S
C463   O517    1.291   .     A
C463   O522    1.290   .     A
C464   C466    1.400   .     A
C464   H509    1.083   .     S
C465   C485    1.402   .     A
C465   C486    1.400   .     A
C465   C474    1.447   .     S
C466   C484    1.401   .     A
C467   H510    1.079   .     S
C467   N516    1.363   .     A
C467   C1657   1.432   1_554 S
C468   H511    1.079   .     S
C468   N515    1.362   .     A
C468   C1064   1.427   .     S
C469   N515    1.374   .     A
C469   O519    1.392   .     S
C469   C1061   1.432   .     S
C470   N516    1.372   .     A
C470   O520    1.388   .     S
C470   C1656   1.427   1_554 S
C471   C472    1.521   .     S
C471   O528    1.413   .     S
C471   H512    1.116   .     S
C471   H579    1.113   .     S
C472   H490    1.110   .     S
C472   H514    1.110   .     S
C472   H491    1.110   .     S
C473   O518    1.412   .     S
C473   C475    1.522   .     S
C473   H493    1.116   .     S
C474   O523    1.289   .     A
C474   O521    1.292   .     A
C475   H495    1.111   .     S
C475   H494    1.110   .     S
C475   H496    1.111   .     S
C476   H498    1.114   .     S
C476   H497    1.110   .     S
C476   O519    1.416   .     S
C476   C477    1.526   .     S
C477   H501    1.110   .     S
C477   H502    1.111   .     S
C477   H1093   1.109   .     S
C478   O520    1.417   .     S
C478   H504    1.116   .     S
C478   H503    1.109   .     S
C478   C479    1.523   .     S
C479   H506    1.111   .     S
C479   H507    1.111   .     S
C479   H1693   1.107   1_554 S
C480   C482    1.439   .     S
C480   O526    1.289   .     A
C480   O524    1.283   .     A
C481   C483    1.439   .     S
C481   O527    1.290   .     A
C481   O525    1.282   .     A
C483   C548    1.356   .     S
C483   O584    1.388   .     S
C484   H489    1.083   .     S
C485   H500    1.084   .     S
C485   C68     1.383   1_565 S
C486   H508    1.083   .     S
C486   C88     1.383   1_565 S
Cu487  O523    1.960   .     S
Cu487  O524    1.970   .     S
Cu487  N515    2.012   .     S
Cu487  O527    1.971   .     S
Cu487  Cu488   2.677   .     S
Cu487  O517    1.962   .     S
Cu488  O525    1.970   .     S
Cu488  N516    2.012   .     S
Cu488  O521    1.962   .     S
Cu488  O526    1.971   .     S
Cu488  O522    1.960   .     S
H492   C539    1.113   .     S
H499   C1665   1.109   1_554 S
H505   C1073   1.107   .     S
O528   C548    1.389   .     S
C529   C532    1.447   .     S
C529   O583    1.291   .     A
C529   O588    1.290   .     A
C530   C532    1.400   .     A
C530   H575    1.083   .     S
C531   C551    1.402   .     A
C531   C552    1.400   .     A
C531   C540    1.447   .     S
C532   C550    1.401   .     A
C533   H576    1.079   .     S
C533   N582    1.363   .     A
C533   C1723   1.432   1_554 S
C534   H577    1.079   .     S
C534   N581    1.362   .     A
C534   C1130   1.427   .     S
C535   N581    1.374   .     A
C535   O585    1.392   .     S
C535   C1127   1.432   .     S
C536   N582    1.372   .     A
C536   O586    1.388   .     S
C536   C1722   1.427   1_554 S
C537   C538    1.521   .     S
C537   O594    1.413   .     S
C537   H578    1.116   .     S
C537   H447    1.113   1_655 S
C538   H556    1.110   .     S
C538   H580    1.110   .     S
C538   H557    1.110   .     S
C539   O584    1.412   .     S
C539   C541    1.522   .     S
C539   H559    1.116   .     S
C540   O589    1.289   .     A
C540   O587    1.292   .     A
C541   H561    1.111   .     S
C541   H560    1.110   .     S
C541   H562    1.111   .     S
C542   H564    1.114   .     S
C542   H563    1.110   .     S
C542   O585    1.416   .     S
C542   C543    1.526   .     S
C543   H567    1.110   .     S
C543   H568    1.111   .     S
C543   H1159   1.109   .     S
C544   O586    1.417   .     S
C544   H570    1.116   .     S
C544   H569    1.109   .     S
C544   C545    1.523   .     S
C545   H572    1.111   .     S
C545   H573    1.111   .     S
C545   H1759   1.107   1_554 S
C546   C548    1.439   .     S
C546   O592    1.289   .     A
C546   O590    1.283   .     A
C547   C549    1.439   .     S
C547   O593    1.290   .     A
C547   O591    1.282   .     A
C549   C416    1.356   1_655 S
C549   O452    1.388   1_655 S
C550   H555    1.083   .     S
C551   H566    1.084   .     S
C551   C134    1.383   1_565 S
C552   H574    1.083   .     S
C552   C154    1.383   1_565 S
Cu553  O589    1.960   .     S
Cu553  O590    1.970   .     S
Cu553  N581    2.012   .     S
Cu553  O593    1.971   .     S
Cu553  Cu554   2.677   .     S
Cu553  O583    1.962   .     S
Cu554  O591    1.970   .     S
Cu554  N582    2.012   .     S
Cu554  O587    1.962   .     S
Cu554  O592    1.971   .     S
Cu554  O588    1.960   .     S
H558   C407    1.113   1_655 S
H565   C1731   1.109   1_554 S
H571   C1139   1.107   .     S
O594   C416    1.389   1_655 S
C595   C598    1.447   .     S
C595   O649    1.291   .     A
C595   O654    1.290   .     A
C596   C598    1.400   .     A
C596   H641    1.083   .     S
C596   C1013   1.383   1_545 S
C597   C617    1.402   .     A
C597   C618    1.400   .     A
C597   C606    1.447   .     S
C598   C616    1.401   .     A
C599   H642    1.079   .     S
C599   N648    1.363   .     A
C600   H643    1.079   .     S
C600   N647    1.362   .     A
C600   C1196   1.427   .     S
C601   N647    1.374   .     A
C601   O651    1.392   .     S
C601   C1193   1.432   .     S
C602   N648    1.372   .     A
C602   O652    1.388   .     S
C603   C604    1.521   .     S
C603   O660    1.413   .     S
C603   H644    1.116   .     S
C603   H711    1.113   .     S
C604   H622    1.110   .     S
C604   H646    1.110   .     S
C604   H623    1.110   .     S
C605   O650    1.412   .     S
C605   C607    1.522   .     S
C605   H625    1.116   .     S
C605   H756    1.113   1_455 S
C606   O655    1.289   .     A
C606   O653    1.292   .     A
C607   H627    1.111   .     S
C607   H626    1.110   .     S
C607   H628    1.111   .     S
C608   H630    1.114   .     S
C608   H629    1.110   .     S
C608   O651    1.416   .     S
C608   C609    1.526   .     S
C609   H633    1.110   .     S
C609   H634    1.111   .     S
C609   H1225   1.109   .     S
C610   O652    1.417   .     S
C610   H636    1.116   .     S
C610   H635    1.109   .     S
C610   C611    1.523   .     S
C611   H638    1.111   .     S
C611   H639    1.111   .     S
C612   C614    1.439   .     S
C612   O658    1.289   .     A
C612   O656    1.283   .     A
C613   C615    1.439   .     S
C613   O659    1.290   .     A
C613   O657    1.282   .     A
C614   C747    1.356   1_455 S
C614   O792    1.389   1_455 S
C615   C680    1.356   .     S
C615   O716    1.388   .     S
C616   H621    1.083   .     S
C616   C1014   1.383   1_545 S
C617   H632    1.084   .     S
C617   C794    1.383   .     S
C618   H640    1.083   .     S
C618   C814    1.383   .     S
Cu619  O655    1.960   .     S
Cu619  O656    1.970   .     S
Cu619  N647    2.012   .     S
Cu619  O659    1.971   .     S
Cu619  Cu620   2.677   .     S
Cu619  O649    1.962   .     S
Cu620  O657    1.970   .     S
Cu620  N648    2.012   .     S
Cu620  O653    1.962   .     S
Cu620  O658    1.971   .     S
Cu620  O654    1.960   .     S
H624   C671    1.113   .     S
H637   C1205   1.107   .     S
H645   C735    1.113   1_455 S
O650   C747    1.388   1_455 S
O660   C680    1.389   .     S
C661   C664    1.447   .     S
C661   O715    1.291   .     A
C661   O720    1.290   .     A
C662   C664    1.400   .     A
C662   H707    1.083   .     S
C662   C1079   1.383   1_545 S
C663   C683    1.402   .     A
C663   C684    1.400   .     A
C663   C672    1.447   .     S
C664   C682    1.401   .     A
C665   H708    1.079   .     S
C665   N714    1.363   .     A
C666   H709    1.079   .     S
C666   N713    1.362   .     A
C666   C1262   1.427   .     S
C667   N713    1.374   .     A
C667   O717    1.392   .     S
C667   C1259   1.432   .     S
C668   N714    1.372   .     A
C668   O718    1.388   .     S
C669   C670    1.521   .     S
C669   O726    1.413   .     S
C669   H710    1.116   .     S
C669   H777    1.113   .     S
C670   H688    1.110   .     S
C670   H712    1.110   .     S
C670   H689    1.110   .     S
C671   O716    1.412   .     S
C671   C673    1.522   .     S
C671   H691    1.116   .     S
C672   O721    1.289   .     A
C672   O719    1.292   .     A
C673   H693    1.111   .     S
C673   H692    1.110   .     S
C673   H694    1.111   .     S
C674   H696    1.114   .     S
C674   H695    1.110   .     S
C674   O717    1.416   .     S
C674   C675    1.526   .     S
C675   H699    1.110   .     S
C675   H700    1.111   .     S
C675   H1291   1.109   .     S
C676   O718    1.417   .     S
C676   H702    1.116   .     S
C676   H701    1.109   .     S
C676   C677    1.523   .     S
C677   H704    1.111   .     S
C677   H705    1.111   .     S
C678   C680    1.439   .     S
C678   O724    1.289   .     A
C678   O722    1.283   .     A
C679   C681    1.439   .     S
C679   O725    1.290   .     A
C679   O723    1.282   .     A
C681   C746    1.356   .     S
C681   O782    1.388   .     S
C682   H687    1.083   .     S
C682   C1080   1.383   1_545 S
C683   H698    1.084   .     S
C683   C860    1.383   .     S
C684   H706    1.083   .     S
C684   C880    1.383   .     S
Cu685  O721    1.960   .     S
Cu685  O722    1.970   .     S
Cu685  N713    2.012   .     S
Cu685  O725    1.971   .     S
Cu685  Cu686   2.677   .     S
Cu685  O715    1.962   .     S
Cu686  O723    1.970   .     S
Cu686  N714    2.012   .     S
Cu686  O719    1.962   .     S
Cu686  O724    1.971   .     S
Cu686  O720    1.960   .     S
H690   C737    1.113   .     S
H703   C1271   1.107   .     S
O726   C746    1.389   .     S
C727   C730    1.447   .     S
C727   O781    1.291   .     A
C727   O786    1.290   .     A
C728   C730    1.400   .     A
C728   H773    1.083   .     S
C728   C1145   1.383   1_545 S
C729   C749    1.402   .     A
C729   C750    1.400   .     A
C729   C738    1.447   .     S
C730   C748    1.401   .     A
C731   H774    1.079   .     S
C731   N780    1.363   .     A
C732   H775    1.079   .     S
C732   N779    1.362   .     A
C732   C1328   1.427   .     S
C733   N779    1.374   .     A
C733   O783    1.392   .     S
C733   C1325   1.432   .     S
C734   N780    1.372   .     A
C734   O784    1.388   .     S
C735   C736    1.521   .     S
C735   O792    1.413   .     S
C735   H776    1.116   .     S
C735   H645    1.113   1_655 S
C736   H754    1.110   .     S
C736   H778    1.110   .     S
C736   H755    1.110   .     S
C737   O782    1.412   .     S
C737   C739    1.522   .     S
C737   H757    1.116   .     S
C738   O787    1.289   .     A
C738   O785    1.292   .     A
C739   H759    1.111   .     S
C739   H758    1.110   .     S
C739   H760    1.111   .     S
C740   H762    1.114   .     S
C740   H761    1.110   .     S
C740   O783    1.416   .     S
C740   C741    1.526   .     S
C741   H765    1.110   .     S
C741   H766    1.111   .     S
C741   H1357   1.109   .     S
C742   O784    1.417   .     S
C742   H768    1.116   .     S
C742   H767    1.109   .     S
C742   C743    1.523   .     S
C743   H770    1.111   .     S
C743   H771    1.111   .     S
C744   C746    1.439   .     S
C744   O790    1.289   .     A
C744   O788    1.283   .     A
C745   C747    1.439   .     S
C745   O791    1.290   .     A
C745   O789    1.282   .     A
C747   C614    1.356   1_655 S
C747   O650    1.388   1_655 S
C748   H753    1.083   .     S
C748   C1146   1.383   1_545 S
C749   H764    1.084   .     S
C749   C926    1.383   .     S
C750   H772    1.083   .     S
C750   C946    1.383   .     S
Cu751  O787    1.960   .     S
Cu751  O788    1.970   .     S
Cu751  N779    2.012   .     S
Cu751  O791    1.971   .     S
Cu751  Cu752   2.677   .     S
Cu751  O781    1.962   .     S
Cu752  O789    1.970   .     S
Cu752  N780    2.012   .     S
Cu752  O785    1.962   .     S
Cu752  O790    1.971   .     S
Cu752  O786    1.960   .     S
H756   C605    1.113   1_655 S
H769   C1337   1.107   .     S
O792   C614    1.389   1_655 S
C793   C796    1.447   .     S
C793   O847    1.291   .     A
C793   O852    1.290   .     A
C794   C796    1.400   .     A
C794   H839    1.083   .     S
C795   C815    1.402   .     A
C795   C816    1.400   .     A
C795   C804    1.447   .     S
C796   C814    1.401   .     A
C797   H840    1.079   .     S
C797   N846    1.363   .     A
C798   H841    1.079   .     S
C798   N845    1.362   .     A
C798   C1394   1.427   .     S
C799   N845    1.374   .     A
C799   O849    1.392   .     S
C799   C1391   1.432   .     S
C800   N846    1.372   .     A
C800   O850    1.388   .     S
C801   C802    1.521   .     S
C801   O858    1.413   .     S
C801   H842    1.116   .     S
C801   H909    1.113   .     S
C802   H820    1.110   .     S
C802   H844    1.110   .     S
C802   H821    1.110   .     S
C803   O848    1.412   .     S
C803   C805    1.522   .     S
C803   H823    1.116   .     S
C803   H954    1.113   1_455 S
C804   O853    1.289   .     A
C804   O851    1.292   .     A
C805   H825    1.111   .     S
C805   H824    1.110   .     S
C805   H826    1.111   .     S
C806   H828    1.114   .     S
C806   H827    1.110   .     S
C806   O849    1.416   .     S
C806   C807    1.526   .     S
C807   H831    1.110   .     S
C807   H832    1.111   .     S
C807   H1423   1.109   .     S
C808   O850    1.417   .     S
C808   H834    1.116   .     S
C808   H833    1.109   .     S
C808   C809    1.523   .     S
C809   H836    1.111   .     S
C809   H837    1.111   .     S
C810   C812    1.439   .     S
C810   O856    1.289   .     A
C810   O854    1.283   .     A
C811   C813    1.439   .     S
C811   O857    1.290   .     A
C811   O855    1.282   .     A
C812   C945    1.356   1_455 S
C812   O990    1.389   1_455 S
C813   C878    1.356   .     S
C813   O914    1.388   .     S
C814   H819    1.083   .     S
C815   H830    1.084   .     S
C815   C992    1.383   .     S
C816   H838    1.083   .     S
C816   C1012   1.383   .     S
Cu817  O853    1.960   .     S
Cu817  O854    1.970   .     S
Cu817  N845    2.012   .     S
Cu817  O857    1.971   .     S
Cu817  Cu818   2.677   .     S
Cu817  O847    1.962   .     S
Cu818  O855    1.970   .     S
Cu818  N846    2.012   .     S
Cu818  O851    1.962   .     S
Cu818  O856    1.971   .     S
Cu818  O852    1.960   .     S
H822   C869    1.113   .     S
H835   C1403   1.107   .     S
H843   C933    1.113   1_455 S
O848   C945    1.388   1_455 S
O858   C878    1.389   .     S
C859   C862    1.447   .     S
C859   O913    1.291   .     A
C859   O918    1.290   .     A
C860   C862    1.400   .     A
C860   H905    1.083   .     S
C861   C881    1.402   .     A
C861   C882    1.400   .     A
C861   C870    1.447   .     S
C862   C880    1.401   .     A
C863   H906    1.079   .     S
C863   N912    1.363   .     A
C864   H907    1.079   .     S
C864   N911    1.362   .     A
C864   C1460   1.427   .     S
C865   N911    1.374   .     A
C865   O915    1.392   .     S
C865   C1457   1.432   .     S
C866   N912    1.372   .     A
C866   O916    1.388   .     S
C867   C868    1.521   .     S
C867   O924    1.413   .     S
C867   H908    1.116   .     S
C867   H975    1.113   .     S
C868   H886    1.110   .     S
C868   H910    1.110   .     S
C868   H887    1.110   .     S
C869   O914    1.412   .     S
C869   C871    1.522   .     S
C869   H889    1.116   .     S
C870   O919    1.289   .     A
C870   O917    1.292   .     A
C871   H891    1.111   .     S
C871   H890    1.110   .     S
C871   H892    1.111   .     S
C872   H894    1.114   .     S
C872   H893    1.110   .     S
C872   O915    1.416   .     S
C872   C873    1.526   .     S
C873   H897    1.110   .     S
C873   H898    1.111   .     S
C873   H1489   1.109   .     S
C874   O916    1.417   .     S
C874   H900    1.116   .     S
C874   H899    1.109   .     S
C874   C875    1.523   .     S
C875   H902    1.111   .     S
C875   H903    1.111   .     S
C876   C878    1.439   .     S
C876   O922    1.289   .     A
C876   O920    1.283   .     A
C877   C879    1.439   .     S
C877   O923    1.290   .     A
C877   O921    1.282   .     A
C879   C944    1.356   .     S
C879   O980    1.388   .     S
C880   H885    1.083   .     S
C881   H896    1.084   .     S
C881   C1058   1.383   .     S
C882   H904    1.083   .     S
C882   C1078   1.383   .     S
Cu883  O919    1.960   .     S
Cu883  O920    1.970   .     S
Cu883  N911    2.012   .     S
Cu883  O923    1.971   .     S
Cu883  Cu884   2.677   .     S
Cu883  O913    1.962   .     S
Cu884  O921    1.970   .     S
Cu884  N912    2.012   .     S
Cu884  O917    1.962   .     S
Cu884  O922    1.971   .     S
Cu884  O918    1.960   .     S
H888   C935    1.113   .     S
H901   C1469   1.107   .     S
O924   C944    1.389   .     S
C925   C928    1.447   .     S
C925   O979    1.291   .     A
C925   O984    1.290   .     A
C926   C928    1.400   .     A
C926   H971    1.083   .     S
C927   C947    1.402   .     A
C927   C948    1.400   .     A
C927   C936    1.447   .     S
C928   C946    1.401   .     A
C929   H972    1.079   .     S
C929   N978    1.363   .     A
C930   H973    1.079   .     S
C930   N977    1.362   .     A
C930   C1526   1.427   .     S
C931   N977    1.374   .     A
C931   O981    1.392   .     S
C931   C1523   1.432   .     S
C932   N978    1.372   .     A
C932   O982    1.388   .     S
C933   C934    1.521   .     S
C933   O990    1.413   .     S
C933   H974    1.116   .     S
C933   H843    1.113   1_655 S
C934   H952    1.110   .     S
C934   H976    1.110   .     S
C934   H953    1.110   .     S
C935   O980    1.412   .     S
C935   C937    1.522   .     S
C935   H955    1.116   .     S
C936   O985    1.289   .     A
C936   O983    1.292   .     A
C937   H957    1.111   .     S
C937   H956    1.110   .     S
C937   H958    1.111   .     S
C938   H960    1.114   .     S
C938   H959    1.110   .     S
C938   O981    1.416   .     S
C938   C939    1.526   .     S
C939   H963    1.110   .     S
C939   H964    1.111   .     S
C939   H1555   1.109   .     S
C940   O982    1.417   .     S
C940   H966    1.116   .     S
C940   H965    1.109   .     S
C940   C941    1.523   .     S
C941   H968    1.111   .     S
C941   H969    1.111   .     S
C942   C944    1.439   .     S
C942   O988    1.289   .     A
C942   O986    1.283   .     A
C943   C945    1.439   .     S
C943   O989    1.290   .     A
C943   O987    1.282   .     A
C945   C812    1.356   1_655 S
C945   O848    1.388   1_655 S
C946   H951    1.083   .     S
C947   H962    1.084   .     S
C947   C1124   1.383   .     S
C948   H970    1.083   .     S
C948   C1144   1.383   .     S
Cu949  O985    1.960   .     S
Cu949  O986    1.970   .     S
Cu949  N977    2.012   .     S
Cu949  O989    1.971   .     S
Cu949  Cu950   2.677   .     S
Cu949  O979    1.962   .     S
Cu950  O987    1.970   .     S
Cu950  N978    2.012   .     S
Cu950  O983    1.962   .     S
Cu950  O988    1.971   .     S
Cu950  O984    1.960   .     S
H954   C803    1.113   1_655 S
H967   C1535   1.107   .     S
O990   C812    1.389   1_655 S
C991   C994    1.447   .     S
C991   O1045   1.291   .     A
C991   O1050   1.290   .     A
C992   C994    1.400   .     A
C992   H1037   1.083   .     S
C993   C1013   1.402   .     A
C993   C1014   1.400   .     A
C993   C1002   1.447   .     S
C994   C1012   1.401   .     A
C995   H1038   1.079   .     S
C995   N1044   1.363   .     A
C996   H1039   1.079   .     S
C996   N1043   1.362   .     A
C996   C1592   1.427   .     S
C997   N1043   1.374   .     A
C997   O1047   1.392   .     S
C997   C1589   1.432   .     S
C998   N1044   1.372   .     A
C998   O1048   1.388   .     S
C999   C1000   1.521   .     S
C999   O1056   1.413   .     S
C999   H1040   1.116   .     S
C999   H1107   1.113   .     S
C1000  H1018   1.110   .     S
C1000  H1042   1.110   .     S
C1000  H1019   1.110   .     S
C1001  O1046   1.412   .     S
C1001  C1003   1.522   .     S
C1001  H1021   1.116   .     S
C1001  H1152   1.113   1_455 S
C1002  O1051   1.289   .     A
C1002  O1049   1.292   .     A
C1003  H1023   1.111   .     S
C1003  H1022   1.110   .     S
C1003  H1024   1.111   .     S
C1004  H1026   1.114   .     S
C1004  H1025   1.110   .     S
C1004  O1047   1.416   .     S
C1004  C1005   1.526   .     S
C1005  H1029   1.110   .     S
C1005  H1030   1.111   .     S
C1005  H1621   1.109   .     S
C1006  O1048   1.417   .     S
C1006  H1032   1.116   .     S
C1006  H1031   1.109   .     S
C1006  C1007   1.523   .     S
C1007  H1034   1.111   .     S
C1007  H1035   1.111   .     S
C1008  C1010   1.439   .     S
C1008  O1054   1.289   .     A
C1008  O1052   1.283   .     A
C1009  C1011   1.439   .     S
C1009  O1055   1.290   .     A
C1009  O1053   1.282   .     A
C1010  C1143   1.356   1_455 S
C1010  O1188   1.389   1_455 S
C1011  C1076   1.356   .     S
C1011  O1112   1.388   .     S
C1012  H1017   1.083   .     S
C1013  H1028   1.084   .     S
C1013  C596    1.383   1_565 S
C1014  H1036   1.083   .     S
C1014  C616    1.383   1_565 S
Cu1015 O1051   1.960   .     S
Cu1015 O1052   1.970   .     S
Cu1015 N1043   2.012   .     S
Cu1015 O1055   1.971   .     S
Cu1015 Cu1016  2.677   .     S
Cu1015 O1045   1.962   .     S
Cu1016 O1053   1.970   .     S
Cu1016 N1044   2.012   .     S
Cu1016 O1049   1.962   .     S
Cu1016 O1054   1.971   .     S
Cu1016 O1050   1.960   .     S
H1020  C1067   1.113   .     S
H1033  C1601   1.107   .     S
H1041  C1131   1.113   1_455 S
O1046  C1143   1.388   1_455 S
O1056  C1076   1.389   .     S
C1057  C1060   1.447   .     S
C1057  O1111   1.291   .     A
C1057  O1116   1.290   .     A
C1058  C1060   1.400   .     A
C1058  H1103   1.083   .     S
C1059  C1079   1.402   .     A
C1059  C1080   1.400   .     A
C1059  C1068   1.447   .     S
C1060  C1078   1.401   .     A
C1061  H1104   1.079   .     S
C1061  N1110   1.363   .     A
C1062  H1105   1.079   .     S
C1062  N1109   1.362   .     A
C1062  C1658   1.427   .     S
C1063  N1109   1.374   .     A
C1063  O1113   1.392   .     S
C1063  C1655   1.432   .     S
C1064  N1110   1.372   .     A
C1064  O1114   1.388   .     S
C1065  C1066   1.521   .     S
C1065  O1122   1.413   .     S
C1065  H1106   1.116   .     S
C1065  H1173   1.113   .     S
C1066  H1084   1.110   .     S
C1066  H1108   1.110   .     S
C1066  H1085   1.110   .     S
C1067  O1112   1.412   .     S
C1067  C1069   1.522   .     S
C1067  H1087   1.116   .     S
C1068  O1117   1.289   .     A
C1068  O1115   1.292   .     A
C1069  H1089   1.111   .     S
C1069  H1088   1.110   .     S
C1069  H1090   1.111   .     S
C1070  H1092   1.114   .     S
C1070  H1091   1.110   .     S
C1070  O1113   1.416   .     S
C1070  C1071   1.526   .     S
C1071  H1095   1.110   .     S
C1071  H1096   1.111   .     S
C1071  H1687   1.109   .     S
C1072  O1114   1.417   .     S
C1072  H1098   1.116   .     S
C1072  H1097   1.109   .     S
C1072  C1073   1.523   .     S
C1073  H1100   1.111   .     S
C1073  H1101   1.111   .     S
C1074  C1076   1.439   .     S
C1074  O1120   1.289   .     A
C1074  O1118   1.283   .     A
C1075  C1077   1.439   .     S
C1075  O1121   1.290   .     A
C1075  O1119   1.282   .     A
C1077  C1142   1.356   .     S
C1077  O1178   1.388   .     S
C1078  H1083   1.083   .     S
C1079  H1094   1.084   .     S
C1079  C662    1.383   1_565 S
C1080  H1102   1.083   .     S
C1080  C682    1.383   1_565 S
Cu1081 O1117   1.960   .     S
Cu1081 O1118   1.970   .     S
Cu1081 N1109   2.012   .     S
Cu1081 O1121   1.971   .     S
Cu1081 Cu1082  2.677   .     S
Cu1081 O1111   1.962   .     S
Cu1082 O1119   1.970   .     S
Cu1082 N1110   2.012   .     S
Cu1082 O1115   1.962   .     S
Cu1082 O1120   1.971   .     S
Cu1082 O1116   1.960   .     S
H1086  C1133   1.113   .     S
H1099  C1667   1.107   .     S
O1122  C1142   1.389   .     S
C1123  C1126   1.447   .     S
C1123  O1177   1.291   .     A
C1123  O1182   1.290   .     A
C1124  C1126   1.400   .     A
C1124  H1169   1.083   .     S
C1125  C1145   1.402   .     A
C1125  C1146   1.400   .     A
C1125  C1134   1.447   .     S
C1126  C1144   1.401   .     A
C1127  H1170   1.079   .     S
C1127  N1176   1.363   .     A
C1128  H1171   1.079   .     S
C1128  N1175   1.362   .     A
C1128  C1724   1.427   .     S
C1129  N1175   1.374   .     A
C1129  O1179   1.392   .     S
C1129  C1721   1.432   .     S
C1130  N1176   1.372   .     A
C1130  O1180   1.388   .     S
C1131  C1132   1.521   .     S
C1131  O1188   1.413   .     S
C1131  H1172   1.116   .     S
C1131  H1041   1.113   1_655 S
C1132  H1150   1.110   .     S
C1132  H1174   1.110   .     S
C1132  H1151   1.110   .     S
C1133  O1178   1.412   .     S
C1133  C1135   1.522   .     S
C1133  H1153   1.116   .     S
C1134  O1183   1.289   .     A
C1134  O1181   1.292   .     A
C1135  H1155   1.111   .     S
C1135  H1154   1.110   .     S
C1135  H1156   1.111   .     S
C1136  H1158   1.114   .     S
C1136  H1157   1.110   .     S
C1136  O1179   1.416   .     S
C1136  C1137   1.526   .     S
C1137  H1161   1.110   .     S
C1137  H1162   1.111   .     S
C1137  H1753   1.109   .     S
C1138  O1180   1.417   .     S
C1138  H1164   1.116   .     S
C1138  H1163   1.109   .     S
C1138  C1139   1.523   .     S
C1139  H1166   1.111   .     S
C1139  H1167   1.111   .     S
C1140  C1142   1.439   .     S
C1140  O1186   1.289   .     A
C1140  O1184   1.283   .     A
C1141  C1143   1.439   .     S
C1141  O1187   1.290   .     A
C1141  O1185   1.282   .     A
C1143  C1010   1.356   1_655 S
C1143  O1046   1.388   1_655 S
C1144  H1149   1.083   .     S
C1145  H1160   1.084   .     S
C1145  C728    1.383   1_565 S
C1146  H1168   1.083   .     S
C1146  C748    1.383   1_565 S
Cu1147 O1183   1.960   .     S
Cu1147 O1184   1.970   .     S
Cu1147 N1175   2.012   .     S
Cu1147 O1187   1.971   .     S
Cu1147 Cu1148  2.677   .     S
Cu1147 O1177   1.962   .     S
Cu1148 O1185   1.970   .     S
Cu1148 N1176   2.012   .     S
Cu1148 O1181   1.962   .     S
Cu1148 O1186   1.971   .     S
Cu1148 O1182   1.960   .     S
H1152  C1001   1.113   1_655 S
H1165  C1733   1.107   .     S
O1188  C1010   1.389   1_655 S
C1189  C1192   1.447   .     S
C1189  O1243   1.291   .     A
C1189  O1248   1.290   .     A
C1190  C1192   1.400   .     A
C1190  H1235   1.083   .     S
C1190  C1607   1.383   1_545 S
C1191  C1211   1.402   .     A
C1191  C1212   1.400   .     A
C1191  C1200   1.447   .     S
C1192  C1210   1.401   .     A
C1193  H1236   1.079   .     S
C1193  N1242   1.363   .     A
C1194  H1237   1.079   .     S
C1194  N1241   1.362   .     A
C1194  C8      1.427   1_556 S
C1195  N1241   1.374   .     A
C1195  O1245   1.392   .     S
C1195  C5      1.432   1_556 S
C1196  N1242   1.372   .     A
C1196  O1246   1.388   .     S
C1197  C1198   1.521   .     S
C1197  O1254   1.413   .     S
C1197  H1238   1.116   .     S
C1197  H1305   1.113   .     S
C1198  H1216   1.110   .     S
C1198  H1240   1.110   .     S
C1198  H1217   1.110   .     S
C1199  O1244   1.412   .     S
C1199  C1201   1.522   .     S
C1199  H1219   1.116   .     S
C1199  H1350   1.113   1_455 S
C1200  O1249   1.289   .     A
C1200  O1247   1.292   .     A
C1201  H1221   1.111   .     S
C1201  H1220   1.110   .     S
C1201  H1222   1.111   .     S
C1202  H1224   1.114   .     S
C1202  H1223   1.110   .     S
C1202  O1245   1.416   .     S
C1202  C1203   1.526   .     S
C1203  H1227   1.110   .     S
C1203  H1228   1.111   .     S
C1203  H37     1.109   1_556 S
C1204  O1246   1.417   .     S
C1204  H1230   1.116   .     S
C1204  H1229   1.109   .     S
C1204  C1205   1.523   .     S
C1205  H1232   1.111   .     S
C1205  H1233   1.111   .     S
C1206  C1208   1.439   .     S
C1206  O1252   1.289   .     A
C1206  O1250   1.283   .     A
C1207  C1209   1.439   .     S
C1207  O1253   1.290   .     A
C1207  O1251   1.282   .     A
C1208  C1341   1.356   1_455 S
C1208  O1386   1.389   1_455 S
C1209  C1274   1.356   .     S
C1209  O1310   1.388   .     S
C1210  H1215   1.083   .     S
C1210  C1608   1.383   1_545 S
C1211  H1226   1.084   .     S
C1211  C1388   1.383   .     S
C1212  H1234   1.083   .     S
C1212  C1408   1.383   .     S
Cu1213 O1249   1.960   .     S
Cu1213 O1250   1.970   .     S
Cu1213 N1241   2.012   .     S
Cu1213 O1253   1.971   .     S
Cu1213 Cu1214  2.677   .     S
Cu1213 O1243   1.962   .     S
Cu1214 O1251   1.970   .     S
Cu1214 N1242   2.012   .     S
Cu1214 O1247   1.962   .     S
Cu1214 O1252   1.971   .     S
Cu1214 O1248   1.960   .     S
H1218  C1265   1.113   .     S
H1231  C17     1.107   1_556 S
H1239  C1329   1.113   1_455 S
O1244  C1341   1.388   1_455 S
O1254  C1274   1.389   .     S
C1255  C1258   1.447   .     S
C1255  O1309   1.291   .     A
C1255  O1314   1.290   .     A
C1256  C1258   1.400   .     A
C1256  H1301   1.083   .     S
C1256  C1673   1.383   1_545 S
C1257  C1277   1.402   .     A
C1257  C1278   1.400   .     A
C1257  C1266   1.447   .     S
C1258  C1276   1.401   .     A
C1259  H1302   1.079   .     S
C1259  N1308   1.363   .     A
C1260  H1303   1.079   .     S
C1260  N1307   1.362   .     A
C1260  C74     1.427   1_556 S
C1261  N1307   1.374   .     A
C1261  O1311   1.392   .     S
C1261  C71     1.432   1_556 S
C1262  N1308   1.372   .     A
C1262  O1312   1.388   .     S
C1263  C1264   1.521   .     S
C1263  O1320   1.413   .     S
C1263  H1304   1.116   .     S
C1263  H1371   1.113   .     S
C1264  H1282   1.110   .     S
C1264  H1306   1.110   .     S
C1264  H1283   1.110   .     S
C1265  O1310   1.412   .     S
C1265  C1267   1.522   .     S
C1265  H1285   1.116   .     S
C1266  O1315   1.289   .     A
C1266  O1313   1.292   .     A
C1267  H1287   1.111   .     S
C1267  H1286   1.110   .     S
C1267  H1288   1.111   .     S
C1268  H1290   1.114   .     S
C1268  H1289   1.110   .     S
C1268  O1311   1.416   .     S
C1268  C1269   1.526   .     S
C1269  H1293   1.110   .     S
C1269  H1294   1.111   .     S
C1269  H103    1.109   1_556 S
C1270  O1312   1.417   .     S
C1270  H1296   1.116   .     S
C1270  H1295   1.109   .     S
C1270  C1271   1.523   .     S
C1271  H1298   1.111   .     S
C1271  H1299   1.111   .     S
C1272  C1274   1.439   .     S
C1272  O1318   1.289   .     A
C1272  O1316   1.283   .     A
C1273  C1275   1.439   .     S
C1273  O1319   1.290   .     A
C1273  O1317   1.282   .     A
C1275  C1340   1.356   .     S
C1275  O1376   1.388   .     S
C1276  H1281   1.083   .     S
C1276  C1674   1.383   1_545 S
C1277  H1292   1.084   .     S
C1277  C1454   1.383   .     S
C1278  H1300   1.083   .     S
C1278  C1474   1.383   .     S
Cu1279 O1315   1.960   .     S
Cu1279 O1316   1.970   .     S
Cu1279 N1307   2.012   .     S
Cu1279 O1319   1.971   .     S
Cu1279 Cu1280  2.677   .     S
Cu1279 O1309   1.962   .     S
Cu1280 O1317   1.970   .     S
Cu1280 N1308   2.012   .     S
Cu1280 O1313   1.962   .     S
Cu1280 O1318   1.971   .     S
Cu1280 O1314   1.960   .     S
H1284  C1331   1.113   .     S
H1297  C83     1.107   1_556 S
O1320  C1340   1.389   .     S
C1321  C1324   1.447   .     S
C1321  O1375   1.291   .     A
C1321  O1380   1.290   .     A
C1322  C1324   1.400   .     A
C1322  H1367   1.083   .     S
C1322  C1739   1.383   1_545 S
C1323  C1343   1.402   .     A
C1323  C1344   1.400   .     A
C1323  C1332   1.447   .     S
C1324  C1342   1.401   .     A
C1325  H1368   1.079   .     S
C1325  N1374   1.363   .     A
C1326  H1369   1.079   .     S
C1326  N1373   1.362   .     A
C1326  C140    1.427   1_556 S
C1327  N1373   1.374   .     A
C1327  O1377   1.392   .     S
C1327  C137    1.432   1_556 S
C1328  N1374   1.372   .     A
C1328  O1378   1.388   .     S
C1329  C1330   1.521   .     S
C1329  O1386   1.413   .     S
C1329  H1370   1.116   .     S
C1329  H1239   1.113   1_655 S
C1330  H1348   1.110   .     S
C1330  H1372   1.110   .     S
C1330  H1349   1.110   .     S
C1331  O1376   1.412   .     S
C1331  C1333   1.522   .     S
C1331  H1351   1.116   .     S
C1332  O1381   1.289   .     A
C1332  O1379   1.292   .     A
C1333  H1353   1.111   .     S
C1333  H1352   1.110   .     S
C1333  H1354   1.111   .     S
C1334  H1356   1.114   .     S
C1334  H1355   1.110   .     S
C1334  O1377   1.416   .     S
C1334  C1335   1.526   .     S
C1335  H1359   1.110   .     S
C1335  H1360   1.111   .     S
C1335  H169    1.109   1_556 S
C1336  O1378   1.417   .     S
C1336  H1362   1.116   .     S
C1336  H1361   1.109   .     S
C1336  C1337   1.523   .     S
C1337  H1364   1.111   .     S
C1337  H1365   1.111   .     S
C1338  C1340   1.439   .     S
C1338  O1384   1.289   .     A
C1338  O1382   1.283   .     A
C1339  C1341   1.439   .     S
C1339  O1385   1.290   .     A
C1339  O1383   1.282   .     A
C1341  C1208   1.356   1_655 S
C1341  O1244   1.388   1_655 S
C1342  H1347   1.083   .     S
C1342  C1740   1.383   1_545 S
C1343  H1358   1.084   .     S
C1343  C1520   1.383   .     S
C1344  H1366   1.083   .     S
C1344  C1540   1.383   .     S
Cu1345 O1381   1.960   .     S
Cu1345 O1382   1.970   .     S
Cu1345 N1373   2.012   .     S
Cu1345 O1385   1.971   .     S
Cu1345 Cu1346  2.677   .     S
Cu1345 O1375   1.962   .     S
Cu1346 O1383   1.970   .     S
Cu1346 N1374   2.012   .     S
Cu1346 O1379   1.962   .     S
Cu1346 O1384   1.971   .     S
Cu1346 O1380   1.960   .     S
H1350  C1199   1.113   1_655 S
H1363  C149    1.107   1_556 S
O1386  C1208   1.389   1_655 S
C1387  C1390   1.447   .     S
C1387  O1441   1.291   .     A
C1387  O1446   1.290   .     A
C1388  C1390   1.400   .     A
C1388  H1433   1.083   .     S
C1389  C1409   1.402   .     A
C1389  C1410   1.400   .     A
C1389  C1398   1.447   .     S
C1390  C1408   1.401   .     A
C1391  H1434   1.079   .     S
C1391  N1440   1.363   .     A
C1392  H1435   1.079   .     S
C1392  N1439   1.362   .     A
C1392  C206    1.427   1_556 S
C1393  N1439   1.374   .     A
C1393  O1443   1.392   .     S
C1393  C203    1.432   1_556 S
C1394  N1440   1.372   .     A
C1394  O1444   1.388   .     S
C1395  C1396   1.521   .     S
C1395  O1452   1.413   .     S
C1395  H1436   1.116   .     S
C1395  H1503   1.113   .     S
C1396  H1414   1.110   .     S
C1396  H1438   1.110   .     S
C1396  H1415   1.110   .     S
C1397  O1442   1.412   .     S
C1397  C1399   1.522   .     S
C1397  H1417   1.116   .     S
C1397  H1548   1.113   1_455 S
C1398  O1447   1.289   .     A
C1398  O1445   1.292   .     A
C1399  H1419   1.111   .     S
C1399  H1418   1.110   .     S
C1399  H1420   1.111   .     S
C1400  H1422   1.114   .     S
C1400  H1421   1.110   .     S
C1400  O1443   1.416   .     S
C1400  C1401   1.526   .     S
C1401  H1425   1.110   .     S
C1401  H1426   1.111   .     S
C1401  H235    1.109   1_556 S
C1402  O1444   1.417   .     S
C1402  H1428   1.116   .     S
C1402  H1427   1.109   .     S
C1402  C1403   1.523   .     S
C1403  H1430   1.111   .     S
C1403  H1431   1.111   .     S
C1404  C1406   1.439   .     S
C1404  O1450   1.289   .     A
C1404  O1448   1.283   .     A
C1405  C1407   1.439   .     S
C1405  O1451   1.290   .     A
C1405  O1449   1.282   .     A
C1406  C1539   1.356   1_455 S
C1406  O1584   1.389   1_455 S
C1407  C1472   1.356   .     S
C1407  O1508   1.388   .     S
C1408  H1413   1.083   .     S
C1409  H1424   1.084   .     S
C1409  C1586   1.383   .     S
C1410  H1432   1.083   .     S
C1410  C1606   1.383   .     S
Cu1411 O1447   1.960   .     S
Cu1411 O1448   1.970   .     S
Cu1411 N1439   2.012   .     S
Cu1411 O1451   1.971   .     S
Cu1411 Cu1412  2.677   .     S
Cu1411 O1441   1.962   .     S
Cu1412 O1449   1.970   .     S
Cu1412 N1440   2.012   .     S
Cu1412 O1445   1.962   .     S
Cu1412 O1450   1.971   .     S
Cu1412 O1446   1.960   .     S
H1416  C1463   1.113   .     S
H1429  C215    1.107   1_556 S
H1437  C1527   1.113   1_455 S
O1442  C1539   1.388   1_455 S
O1452  C1472   1.389   .     S
C1453  C1456   1.447   .     S
C1453  O1507   1.291   .     A
C1453  O1512   1.290   .     A
C1454  C1456   1.400   .     A
C1454  H1499   1.083   .     S
C1455  C1475   1.402   .     A
C1455  C1476   1.400   .     A
C1455  C1464   1.447   .     S
C1456  C1474   1.401   .     A
C1457  H1500   1.079   .     S
C1457  N1506   1.363   .     A
C1458  H1501   1.079   .     S
C1458  N1505   1.362   .     A
C1458  C272    1.427   1_556 S
C1459  N1505   1.374   .     A
C1459  O1509   1.392   .     S
C1459  C269    1.432   1_556 S
C1460  N1506   1.372   .     A
C1460  O1510   1.388   .     S
C1461  C1462   1.521   .     S
C1461  O1518   1.413   .     S
C1461  H1502   1.116   .     S
C1461  H1569   1.113   .     S
C1462  H1480   1.110   .     S
C1462  H1504   1.110   .     S
C1462  H1481   1.110   .     S
C1463  O1508   1.412   .     S
C1463  C1465   1.522   .     S
C1463  H1483   1.116   .     S
C1464  O1513   1.289   .     A
C1464  O1511   1.292   .     A
C1465  H1485   1.111   .     S
C1465  H1484   1.110   .     S
C1465  H1486   1.111   .     S
C1466  H1488   1.114   .     S
C1466  H1487   1.110   .     S
C1466  O1509   1.416   .     S
C1466  C1467   1.526   .     S
C1467  H1491   1.110   .     S
C1467  H1492   1.111   .     S
C1467  H301    1.109   1_556 S
C1468  O1510   1.417   .     S
C1468  H1494   1.116   .     S
C1468  H1493   1.109   .     S
C1468  C1469   1.523   .     S
C1469  H1496   1.111   .     S
C1469  H1497   1.111   .     S
C1470  C1472   1.439   .     S
C1470  O1516   1.289   .     A
C1470  O1514   1.283   .     A
C1471  C1473   1.439   .     S
C1471  O1517   1.290   .     A
C1471  O1515   1.282   .     A
C1473  C1538   1.356   .     S
C1473  O1574   1.388   .     S
C1474  H1479   1.083   .     S
C1475  H1490   1.084   .     S
C1475  C1652   1.383   .     S
C1476  H1498   1.083   .     S
C1476  C1672   1.383   .     S
Cu1477 O1513   1.960   .     S
Cu1477 O1514   1.970   .     S
Cu1477 N1505   2.012   .     S
Cu1477 O1517   1.971   .     S
Cu1477 Cu1478  2.677   .     S
Cu1477 O1507   1.962   .     S
Cu1478 O1515   1.970   .     S
Cu1478 N1506   2.012   .     S
Cu1478 O1511   1.962   .     S
Cu1478 O1516   1.971   .     S
Cu1478 O1512   1.960   .     S
H1482  C1529   1.113   .     S
H1495  C281    1.107   1_556 S
O1518  C1538   1.389   .     S
C1519  C1522   1.447   .     S
C1519  O1573   1.291   .     A
C1519  O1578   1.290   .     A
C1520  C1522   1.400   .     A
C1520  H1565   1.083   .     S
C1521  C1541   1.402   .     A
C1521  C1542   1.400   .     A
C1521  C1530   1.447   .     S
C1522  C1540   1.401   .     A
C1523  H1566   1.079   .     S
C1523  N1572   1.363   .     A
C1524  H1567   1.079   .     S
C1524  N1571   1.362   .     A
C1524  C338    1.427   1_556 S
C1525  N1571   1.374   .     A
C1525  O1575   1.392   .     S
C1525  C335    1.432   1_556 S
C1526  N1572   1.372   .     A
C1526  O1576   1.388   .     S
C1527  C1528   1.521   .     S
C1527  O1584   1.413   .     S
C1527  H1568   1.116   .     S
C1527  H1437   1.113   1_655 S
C1528  H1546   1.110   .     S
C1528  H1570   1.110   .     S
C1528  H1547   1.110   .     S
C1529  O1574   1.412   .     S
C1529  C1531   1.522   .     S
C1529  H1549   1.116   .     S
C1530  O1579   1.289   .     A
C1530  O1577   1.292   .     A
C1531  H1551   1.111   .     S
C1531  H1550   1.110   .     S
C1531  H1552   1.111   .     S
C1532  H1554   1.114   .     S
C1532  H1553   1.110   .     S
C1532  O1575   1.416   .     S
C1532  C1533   1.526   .     S
C1533  H1557   1.110   .     S
C1533  H1558   1.111   .     S
C1533  H367    1.109   1_556 S
C1534  O1576   1.417   .     S
C1534  H1560   1.116   .     S
C1534  H1559   1.109   .     S
C1534  C1535   1.523   .     S
C1535  H1562   1.111   .     S
C1535  H1563   1.111   .     S
C1536  C1538   1.439   .     S
C1536  O1582   1.289   .     A
C1536  O1580   1.283   .     A
C1537  C1539   1.439   .     S
C1537  O1583   1.290   .     A
C1537  O1581   1.282   .     A
C1539  C1406   1.356   1_655 S
C1539  O1442   1.388   1_655 S
C1540  H1545   1.083   .     S
C1541  H1556   1.084   .     S
C1541  C1718   1.383   .     S
C1542  H1564   1.083   .     S
C1542  C1738   1.383   .     S
Cu1543 O1579   1.960   .     S
Cu1543 O1580   1.970   .     S
Cu1543 N1571   2.012   .     S
Cu1543 O1583   1.971   .     S
Cu1543 Cu1544  2.677   .     S
Cu1543 O1573   1.962   .     S
Cu1544 O1581   1.970   .     S
Cu1544 N1572   2.012   .     S
Cu1544 O1577   1.962   .     S
Cu1544 O1582   1.971   .     S
Cu1544 O1578   1.960   .     S
H1548  C1397   1.113   1_655 S
H1561  C347    1.107   1_556 S
O1584  C1406   1.389   1_655 S
C1585  C1588   1.447   .     S
C1585  O1639   1.291   .     A
C1585  O1644   1.290   .     A
C1586  C1588   1.400   .     A
C1586  H1631   1.083   .     S
C1587  C1607   1.402   .     A
C1587  C1608   1.400   .     A
C1587  C1596   1.447   .     S
C1588  C1606   1.401   .     A
C1589  H1632   1.079   .     S
C1589  N1638   1.363   .     A
C1590  H1633   1.079   .     S
C1590  N1637   1.362   .     A
C1590  C404    1.427   1_556 S
C1591  N1637   1.374   .     A
C1591  O1641   1.392   .     S
C1591  C401    1.432   1_556 S
C1592  N1638   1.372   .     A
C1592  O1642   1.388   .     S
C1593  C1594   1.521   .     S
C1593  O1650   1.413   .     S
C1593  H1634   1.116   .     S
C1593  H1701   1.113   .     S
C1594  H1612   1.110   .     S
C1594  H1636   1.110   .     S
C1594  H1613   1.110   .     S
C1595  O1640   1.412   .     S
C1595  C1597   1.522   .     S
C1595  H1615   1.116   .     S
C1595  H1746   1.113   1_455 S
C1596  O1645   1.289   .     A
C1596  O1643   1.292   .     A
C1597  H1617   1.111   .     S
C1597  H1616   1.110   .     S
C1597  H1618   1.111   .     S
C1598  H1620   1.114   .     S
C1598  H1619   1.110   .     S
C1598  O1641   1.416   .     S
C1598  C1599   1.526   .     S
C1599  H1623   1.110   .     S
C1599  H1624   1.111   .     S
C1599  H433    1.109   1_556 S
C1600  O1642   1.417   .     S
C1600  H1626   1.116   .     S
C1600  H1625   1.109   .     S
C1600  C1601   1.523   .     S
C1601  H1628   1.111   .     S
C1601  H1629   1.111   .     S
C1602  C1604   1.439   .     S
C1602  O1648   1.289   .     A
C1602  O1646   1.283   .     A
C1603  C1605   1.439   .     S
C1603  O1649   1.290   .     A
C1603  O1647   1.282   .     A
C1604  C1737   1.356   1_455 S
C1604  O1782   1.389   1_455 S
C1605  C1670   1.356   .     S
C1605  O1706   1.388   .     S
C1606  H1611   1.083   .     S
C1607  H1622   1.084   .     S
C1607  C1190   1.383   1_565 S
C1608  H1630   1.083   .     S
C1608  C1210   1.383   1_565 S
Cu1609 O1645   1.960   .     S
Cu1609 O1646   1.970   .     S
Cu1609 N1637   2.012   .     S
Cu1609 O1649   1.971   .     S
Cu1609 Cu1610  2.677   .     S
Cu1609 O1639   1.962   .     S
Cu1610 O1647   1.970   .     S
Cu1610 N1638   2.012   .     S
Cu1610 O1643   1.962   .     S
Cu1610 O1648   1.971   .     S
Cu1610 O1644   1.960   .     S
H1614  C1661   1.113   .     S
H1627  C413    1.107   1_556 S
H1635  C1725   1.113   1_455 S
O1640  C1737   1.388   1_455 S
O1650  C1670   1.389   .     S
C1651  C1654   1.447   .     S
C1651  O1705   1.291   .     A
C1651  O1710   1.290   .     A
C1652  C1654   1.400   .     A
C1652  H1697   1.083   .     S
C1653  C1673   1.402   .     A
C1653  C1674   1.400   .     A
C1653  C1662   1.447   .     S
C1654  C1672   1.401   .     A
C1655  H1698   1.079   .     S
C1655  N1704   1.363   .     A
C1656  H1699   1.079   .     S
C1656  N1703   1.362   .     A
C1656  C470    1.427   1_556 S
C1657  N1703   1.374   .     A
C1657  O1707   1.392   .     S
C1657  C467    1.432   1_556 S
C1658  N1704   1.372   .     A
C1658  O1708   1.388   .     S
C1659  C1660   1.521   .     S
C1659  O1716   1.413   .     S
C1659  H1700   1.116   .     S
C1659  H1767   1.113   .     S
C1660  H1678   1.110   .     S
C1660  H1702   1.110   .     S
C1660  H1679   1.110   .     S
C1661  O1706   1.412   .     S
C1661  C1663   1.522   .     S
C1661  H1681   1.116   .     S
C1662  O1711   1.289   .     A
C1662  O1709   1.292   .     A
C1663  H1683   1.111   .     S
C1663  H1682   1.110   .     S
C1663  H1684   1.111   .     S
C1664  H1686   1.114   .     S
C1664  H1685   1.110   .     S
C1664  O1707   1.416   .     S
C1664  C1665   1.526   .     S
C1665  H1689   1.110   .     S
C1665  H1690   1.111   .     S
C1665  H499    1.109   1_556 S
C1666  O1708   1.417   .     S
C1666  H1692   1.116   .     S
C1666  H1691   1.109   .     S
C1666  C1667   1.523   .     S
C1667  H1694   1.111   .     S
C1667  H1695   1.111   .     S
C1668  C1670   1.439   .     S
C1668  O1714   1.289   .     A
C1668  O1712   1.283   .     A
C1669  C1671   1.439   .     S
C1669  O1715   1.290   .     A
C1669  O1713   1.282   .     A
C1671  C1736   1.356   .     S
C1671  O1772   1.388   .     S
C1672  H1677   1.083   .     S
C1673  H1688   1.084   .     S
C1673  C1256   1.383   1_565 S
C1674  H1696   1.083   .     S
C1674  C1276   1.383   1_565 S
Cu1675 O1711   1.960   .     S
Cu1675 O1712   1.970   .     S
Cu1675 N1703   2.012   .     S
Cu1675 O1715   1.971   .     S
Cu1675 Cu1676  2.677   .     S
Cu1675 O1705   1.962   .     S
Cu1676 O1713   1.970   .     S
Cu1676 N1704   2.012   .     S
Cu1676 O1709   1.962   .     S
Cu1676 O1714   1.971   .     S
Cu1676 O1710   1.960   .     S
H1680  C1727   1.113   .     S
H1693  C479    1.107   1_556 S
O1716  C1736   1.389   .     S
C1717  C1720   1.447   .     S
C1717  O1771   1.291   .     A
C1717  O1776   1.290   .     A
C1718  C1720   1.400   .     A
C1718  H1763   1.083   .     S
C1719  C1739   1.402   .     A
C1719  C1740   1.400   .     A
C1719  C1728   1.447   .     S
C1720  C1738   1.401   .     A
C1721  H1764   1.079   .     S
C1721  N1770   1.363   .     A
C1722  H1765   1.079   .     S
C1722  N1769   1.362   .     A
C1722  C536    1.427   1_556 S
C1723  N1769   1.374   .     A
C1723  O1773   1.392   .     S
C1723  C533    1.432   1_556 S
C1724  N1770   1.372   .     A
C1724  O1774   1.388   .     S
C1725  C1726   1.521   .     S
C1725  O1782   1.413   .     S
C1725  H1766   1.116   .     S
C1725  H1635   1.113   1_655 S
C1726  H1744   1.110   .     S
C1726  H1768   1.110   .     S
C1726  H1745   1.110   .     S
C1727  O1772   1.412   .     S
C1727  C1729   1.522   .     S
C1727  H1747   1.116   .     S
C1728  O1777   1.289   .     A
C1728  O1775   1.292   .     A
C1729  H1749   1.111   .     S
C1729  H1748   1.110   .     S
C1729  H1750   1.111   .     S
C1730  H1752   1.114   .     S
C1730  H1751   1.110   .     S
C1730  O1773   1.416   .     S
C1730  C1731   1.526   .     S
C1731  H1755   1.110   .     S
C1731  H1756   1.111   .     S
C1731  H565    1.109   1_556 S
C1732  O1774   1.417   .     S
C1732  H1758   1.116   .     S
C1732  H1757   1.109   .     S
C1732  C1733   1.523   .     S
C1733  H1760   1.111   .     S
C1733  H1761   1.111   .     S
C1734  C1736   1.439   .     S
C1734  O1780   1.289   .     A
C1734  O1778   1.283   .     A
C1735  C1737   1.439   .     S
C1735  O1781   1.290   .     A
C1735  O1779   1.282   .     A
C1737  C1604   1.356   1_655 S
C1737  O1640   1.388   1_655 S
C1738  H1743   1.083   .     S
C1739  H1754   1.084   .     S
C1739  C1322   1.383   1_565 S
C1740  H1762   1.083   .     S
C1740  C1342   1.383   1_565 S
Cu1741 O1777   1.960   .     S
Cu1741 O1778   1.970   .     S
Cu1741 N1769   2.012   .     S
Cu1741 O1781   1.971   .     S
Cu1741 Cu1742  2.677   .     S
Cu1741 O1771   1.962   .     S
Cu1742 O1779   1.970   .     S
Cu1742 N1770   2.012   .     S
Cu1742 O1775   1.962   .     S
Cu1742 O1780   1.971   .     S
Cu1742 O1776   1.960   .     S
H1746  C1595   1.113   1_655 S
H1759  C545    1.107   1_556 S
O1782  C1604   1.389   1_655 S
