data_str_m2_o1_o2_pcu_sym.20
_audit_creation_date              2020-01-03
_audit_creation_method            'Materials Studio'
_symmetry_space_group_name_H-M    'P1'
_symmetry_Int_Tables_number       1
_symmetry_cell_setting            triclinic
loop_
_symmetry_equiv_pos_as_xyz
  x,y,z
_cell_length_a                    32.8601
_cell_length_b                    29.0987
_cell_length_c                    30.3787
_cell_angle_alpha                 90.4336
_cell_angle_beta                  95.8555
_cell_angle_gamma                 90.4037
loop_
_atom_site_label
_atom_site_type_symbol
_atom_site_fract_x
_atom_site_fract_y
_atom_site_fract_z
_atom_site_U_iso_or_equiv
_atom_site_adp_type
_atom_site_occupancy
C1     C     0.08793   0.16607   0.25342   0.00000  Uiso   1.00
C2     C     0.31374   0.20480   0.24377   0.00000  Uiso   1.00
C3     C     0.31190   0.12129   0.24821   0.00000  Uiso   1.00
C4     C     0.02151   0.20444   0.26105   0.00000  Uiso   1.00
C5     C     0.16543   0.20785   0.04811   0.00000  Uiso   1.00
C6     C     0.14811   0.13043   0.45184   0.00000  Uiso   1.00
C7     C     0.17861   0.20612   0.45393   0.00000  Uiso   1.00
C8     C     0.18451   0.12800   0.04831   0.00000  Uiso   1.00
C9     C     0.17382   0.21007   0.09382   0.00000  Uiso   1.00
C10    C     0.14271   0.13166   0.40542   0.00000  Uiso   1.00
C11    C     0.17068   0.20949   0.40833   0.00000  Uiso   1.00
C12    C     0.24570   0.16627   0.24731   0.00000  Uiso   1.00
C13    C     0.19012   0.12873   0.09474   0.00000  Uiso   1.00
C14    C     0.17920   0.16853   0.11809   0.00000  Uiso   1.00
C15    C     0.15812   0.16963   0.38290   0.00000  Uiso   1.00
C16    C     0.17087   0.16705   0.02492   0.00000  Uiso   1.00
C17    C     0.16693   0.16712   0.47614   0.00000  Uiso   1.00
C18    C     0.29067   0.16397   0.24474   0.00000  Uiso   1.00
C19    C     0.04350   0.16356   0.25776   0.00000  Uiso   1.00
C20    C     0.13233   0.04010   0.17037   0.00000  Uiso   1.00
C21    C     0.09365   0.06949   0.16030   0.00000  Uiso   1.00
C22    C     0.08483   0.07788   0.11069   0.00000  Uiso   1.00
C23    C     0.17138   0.16691   0.16579   0.00000  Uiso   1.00
C24    C     0.23984   0.29530   0.28475   0.00000  Uiso   1.00
C25    C     0.25232   0.26402   0.32467   0.00000  Uiso   1.00
C26    C     0.27783   0.28815   0.36311   0.00000  Uiso   1.00
C27    C     0.19873   0.04042   0.33045   0.00000  Uiso   1.00
C28    C     0.23818   0.06901   0.34137   0.00000  Uiso   1.00
C29    C     0.24494   0.08161   0.39049   0.00000  Uiso   1.00
C30    C     0.09501   0.29011   0.20679   0.00000  Uiso   1.00
C31    C     0.09226   0.25976   0.16476   0.00000  Uiso   1.00
C32    C     0.05205   0.26556   0.13547   0.00000  Uiso   1.00
C33    C     0.18276   0.25675   0.11251   0.00000  Uiso   1.00
C34    C     0.16338   0.16723   0.33460   0.00000  Uiso   1.00
C35    C     0.11649   0.09627   0.38150   0.00000  Uiso   1.00
C36    C     0.17104   0.25684   0.39091   0.00000  Uiso   1.00
C37    C     0.21313   0.09091   0.11759   0.00000  Uiso   1.00
C38    C     0.04179   0.07512   0.25580   0.00000  Uiso   1.00
C39    C     0.29868   0.24263   0.21417   0.00000  Uiso   1.00
C40    C     0.29100   0.07571   0.24569   0.00000  Uiso   1.00
C41    C     0.03866   0.24252   0.29047   0.00000  Uiso   1.00
C42    C     0.14324   0.02364   0.21780   0.00000  Uiso   1.00
C43    C     0.19552   0.30982   0.27613   0.00000  Uiso   1.00
C44    C     0.18916   0.02421   0.28267   0.00000  Uiso   1.00
C45    C     0.13736   0.30886   0.22404   0.00000  Uiso   1.00
C46    C     0.02158   0.12102   0.25357   0.00000  Uiso   1.00
Cu47   Cu    0.16667   0.21355   0.25000   0.00000  Uiso   1.00
Cu48   Cu    0.16667   0.11978   0.25000   0.00000  Uiso   1.00
H49    H     0.15698   0.23910   0.03042   0.00000  Uiso   1.00
H50    H     0.15936   0.05548   0.15846   0.00000  Uiso   1.00
H51    H     0.12831   0.00999   0.14787   0.00000  Uiso   1.00
H52    H     0.30334   0.30825   0.35133   0.00000  Uiso   1.00
H53    H     0.25880   0.31105   0.38144   0.00000  Uiso   1.00
H54    H     0.29107   0.26198   0.38674   0.00000  Uiso   1.00
H55    H     0.27167   0.23590   0.31384   0.00000  Uiso   1.00
H56    H     0.22564   0.24805   0.33712   0.00000  Uiso   1.00
H57    H     0.24749   0.28045   0.25377   0.00000  Uiso   1.00
H58    H     0.26029   0.32549   0.28676   0.00000  Uiso   1.00
H59    H     0.22059   0.10474   0.39962   0.00000  Uiso   1.00
H60    H     0.13616   0.10175   0.46924   0.00000  Uiso   1.00
H61    H     0.24523   0.05046   0.41135   0.00000  Uiso   1.00
H62    H     0.27475   0.09976   0.39754   0.00000  Uiso   1.00
H63    H     0.26514   0.04943   0.33344   0.00000  Uiso   1.00
H64    H     0.23750   0.10117   0.32263   0.00000  Uiso   1.00
H65    H     0.17164   0.05619   0.34208   0.00000  Uiso   1.00
H66    H     0.20148   0.00986   0.35200   0.00000  Uiso   1.00
H67    H     0.02620   0.25241   0.15257   0.00000  Uiso   1.00
H68    H     0.04698   0.30222   0.12668   0.00000  Uiso   1.00
H69    H     0.05308   0.24539   0.10442   0.00000  Uiso   1.00
H70    H     0.11701   0.26869   0.14478   0.00000  Uiso   1.00
H71    H     0.19200   0.23549   0.47235   0.00000  Uiso   1.00
H72    H     0.09467   0.22294   0.17307   0.00000  Uiso   1.00
H73    H     0.08013   0.27472   0.23348   0.00000  Uiso   1.00
H74    H     0.07415   0.31929   0.20010   0.00000  Uiso   1.00
H75    H     0.16819   0.28642   0.09634   0.00000  Uiso   1.00
H76    H     0.10348   0.10285   0.34815   0.00000  Uiso   1.00
H77    H     0.19424   0.28109   0.40466   0.00000  Uiso   1.00
H78    H     0.22627   0.09572   0.15131   0.00000  Uiso   1.00
H79    H     0.03226   0.04901   0.23121   0.00000  Uiso   1.00
H80    H     0.27095   0.23774   0.19216   0.00000  Uiso   1.00
H81    H     0.29939   0.05081   0.27117   0.00000  Uiso   1.00
H82    H     0.19264   0.09775   0.03019   0.00000  Uiso   1.00
H83    H     0.06855   0.23922   0.30888   0.00000  Uiso   1.00
H84    H     0.11077   0.09634   0.09796   0.00000  Uiso   1.00
H85    H     0.07953   0.04477   0.09248   0.00000  Uiso   1.00
H86    H     0.05699   0.09922   0.10439   0.00000  Uiso   1.00
H87    H     0.06648   0.05229   0.17111   0.00000  Uiso   1.00
H88    H     0.09663   0.10328   0.17662   0.00000  Uiso   1.00
N89    N     0.16667   0.28402   0.25000   0.00000  Uiso   1.00
N90    N     0.16667   0.04931   0.25000   0.00000  Uiso   1.00
O91    O     0.10655   0.20625   0.24999   0.00000  Uiso   1.00
O92    O     0.10856   0.06004   0.39892   0.00000  Uiso   1.00
O93    O     0.14346   0.27048   0.36434   0.00000  Uiso   1.00
O94    O     0.21822   0.05437   0.09892   0.00000  Uiso   1.00
O95    O     0.06582   0.06449   0.28721   0.00000  Uiso   1.00
O96    O     0.31727   0.27900   0.21291   0.00000  Uiso   1.00
O97    O     0.26808   0.06410   0.21339   0.00000  Uiso   1.00
O98    O     0.01917   0.27724   0.29605   0.00000  Uiso   1.00
O99    O     0.22679   0.12709   0.25000   0.00000  Uiso   1.00
O100   O     0.22679   0.20625   0.25000   0.00000  Uiso   1.00
O101   O     0.10655   0.12709   0.24999   0.00000  Uiso   1.00
O102   O     0.16666   0.20626   0.18573   0.00000  Uiso   1.00
O103   O     0.16667   0.12707   0.31427   0.00000  Uiso   1.00
O104   O     0.16667   0.20626   0.31427   0.00000  Uiso   1.00
O105   O     0.16666   0.12707   0.18573   0.00000  Uiso   1.00
O106   O     0.20856   0.26319   0.14378   0.00000  Uiso   1.00
C107   C     0.42126   0.16607   0.25342   0.00000  Uiso   1.00
C108   C     0.64707   0.20480   0.24377   0.00000  Uiso   1.00
C109   C     0.64523   0.12129   0.24821   0.00000  Uiso   1.00
C110   C     0.35484   0.20444   0.26105   0.00000  Uiso   1.00
C111   C     0.49877   0.20785   0.04811   0.00000  Uiso   1.00
C112   C     0.48144   0.13043   0.45184   0.00000  Uiso   1.00
C113   C     0.51195   0.20612   0.45393   0.00000  Uiso   1.00
C114   C     0.51785   0.12800   0.04831   0.00000  Uiso   1.00
C115   C     0.50716   0.21007   0.09382   0.00000  Uiso   1.00
C116   C     0.47604   0.13166   0.40542   0.00000  Uiso   1.00
C117   C     0.50401   0.20949   0.40833   0.00000  Uiso   1.00
C118   C     0.57903   0.16627   0.24731   0.00000  Uiso   1.00
C119   C     0.52345   0.12873   0.09474   0.00000  Uiso   1.00
C120   C     0.51254   0.16853   0.11809   0.00000  Uiso   1.00
C121   C     0.49145   0.16963   0.38290   0.00000  Uiso   1.00
C122   C     0.50421   0.16705   0.02492   0.00000  Uiso   1.00
C123   C     0.50026   0.16712   0.47614   0.00000  Uiso   1.00
C124   C     0.62401   0.16397   0.24474   0.00000  Uiso   1.00
C125   C     0.37683   0.16356   0.25776   0.00000  Uiso   1.00
C126   C     0.46566   0.04010   0.17037   0.00000  Uiso   1.00
C127   C     0.42698   0.06949   0.16030   0.00000  Uiso   1.00
C128   C     0.41817   0.07788   0.11069   0.00000  Uiso   1.00
C129   C     0.50471   0.16691   0.16579   0.00000  Uiso   1.00
C130   C     0.57318   0.29530   0.28475   0.00000  Uiso   1.00
C131   C     0.58565   0.26402   0.32467   0.00000  Uiso   1.00
C132   C     0.61116   0.28815   0.36311   0.00000  Uiso   1.00
C133   C     0.53206   0.04042   0.33045   0.00000  Uiso   1.00
C134   C     0.57151   0.06901   0.34137   0.00000  Uiso   1.00
C135   C     0.57827   0.08161   0.39049   0.00000  Uiso   1.00
C136   C     0.42834   0.29011   0.20679   0.00000  Uiso   1.00
C137   C     0.42559   0.25976   0.16476   0.00000  Uiso   1.00
C138   C     0.38538   0.26556   0.13547   0.00000  Uiso   1.00
C139   C     0.51609   0.25675   0.11251   0.00000  Uiso   1.00
C140   C     0.49671   0.16723   0.33460   0.00000  Uiso   1.00
C141   C     0.44982   0.09627   0.38150   0.00000  Uiso   1.00
C142   C     0.50437   0.25684   0.39091   0.00000  Uiso   1.00
C143   C     0.54646   0.09091   0.11759   0.00000  Uiso   1.00
C144   C     0.37513   0.07512   0.25580   0.00000  Uiso   1.00
C145   C     0.63202   0.24263   0.21417   0.00000  Uiso   1.00
C146   C     0.62433   0.07571   0.24569   0.00000  Uiso   1.00
C147   C     0.37199   0.24252   0.29047   0.00000  Uiso   1.00
C148   C     0.47658   0.02364   0.21780   0.00000  Uiso   1.00
C149   C     0.52885   0.30982   0.27613   0.00000  Uiso   1.00
C150   C     0.52249   0.02421   0.28267   0.00000  Uiso   1.00
C151   C     0.47069   0.30886   0.22404   0.00000  Uiso   1.00
C152   C     0.35492   0.12102   0.25357   0.00000  Uiso   1.00
Cu153  Cu    0.50000   0.21355   0.25000   0.00000  Uiso   1.00
Cu154  Cu    0.50000   0.11978   0.25000   0.00000  Uiso   1.00
H155   H     0.49031   0.23910   0.03042   0.00000  Uiso   1.00
H156   H     0.49270   0.05548   0.15846   0.00000  Uiso   1.00
H157   H     0.46165   0.00999   0.14787   0.00000  Uiso   1.00
H158   H     0.63667   0.30825   0.35133   0.00000  Uiso   1.00
H159   H     0.59213   0.31105   0.38144   0.00000  Uiso   1.00
H160   H     0.62440   0.26198   0.38674   0.00000  Uiso   1.00
H161   H     0.60500   0.23590   0.31384   0.00000  Uiso   1.00
H162   H     0.55897   0.24805   0.33712   0.00000  Uiso   1.00
H163   H     0.58083   0.28045   0.25377   0.00000  Uiso   1.00
H164   H     0.59362   0.32549   0.28676   0.00000  Uiso   1.00
H165   H     0.55393   0.10474   0.39962   0.00000  Uiso   1.00
H166   H     0.46949   0.10175   0.46924   0.00000  Uiso   1.00
H167   H     0.57856   0.05046   0.41135   0.00000  Uiso   1.00
H168   H     0.60808   0.09976   0.39754   0.00000  Uiso   1.00
H169   H     0.59847   0.04943   0.33344   0.00000  Uiso   1.00
H170   H     0.57083   0.10117   0.32263   0.00000  Uiso   1.00
H171   H     0.50497   0.05619   0.34208   0.00000  Uiso   1.00
H172   H     0.53481   0.00986   0.35200   0.00000  Uiso   1.00
H173   H     0.35954   0.25241   0.15257   0.00000  Uiso   1.00
H174   H     0.38031   0.30222   0.12668   0.00000  Uiso   1.00
H175   H     0.38641   0.24539   0.10442   0.00000  Uiso   1.00
H176   H     0.45035   0.26869   0.14478   0.00000  Uiso   1.00
H177   H     0.52533   0.23549   0.47235   0.00000  Uiso   1.00
H178   H     0.42800   0.22294   0.17307   0.00000  Uiso   1.00
H179   H     0.41346   0.27472   0.23348   0.00000  Uiso   1.00
H180   H     0.40748   0.31929   0.20010   0.00000  Uiso   1.00
H181   H     0.50152   0.28642   0.09634   0.00000  Uiso   1.00
H182   H     0.43682   0.10285   0.34815   0.00000  Uiso   1.00
H183   H     0.52757   0.28109   0.40466   0.00000  Uiso   1.00
H184   H     0.55961   0.09572   0.15131   0.00000  Uiso   1.00
H185   H     0.36560   0.04901   0.23121   0.00000  Uiso   1.00
H186   H     0.60428   0.23774   0.19216   0.00000  Uiso   1.00
H187   H     0.63272   0.05081   0.27117   0.00000  Uiso   1.00
H188   H     0.52597   0.09775   0.03019   0.00000  Uiso   1.00
H189   H     0.40188   0.23922   0.30888   0.00000  Uiso   1.00
H190   H     0.44410   0.09634   0.09796   0.00000  Uiso   1.00
H191   H     0.41286   0.04477   0.09248   0.00000  Uiso   1.00
H192   H     0.39032   0.09922   0.10439   0.00000  Uiso   1.00
H193   H     0.39981   0.05229   0.17111   0.00000  Uiso   1.00
H194   H     0.42997   0.10328   0.17662   0.00000  Uiso   1.00
N195   N     0.50000   0.28402   0.25000   0.00000  Uiso   1.00
N196   N     0.50000   0.04931   0.25000   0.00000  Uiso   1.00
O197   O     0.43988   0.20625   0.24999   0.00000  Uiso   1.00
O198   O     0.44190   0.06004   0.39892   0.00000  Uiso   1.00
O199   O     0.47680   0.27048   0.36434   0.00000  Uiso   1.00
O200   O     0.55155   0.05437   0.09892   0.00000  Uiso   1.00
O201   O     0.39916   0.06449   0.28721   0.00000  Uiso   1.00
O202   O     0.65060   0.27900   0.21291   0.00000  Uiso   1.00
O203   O     0.60141   0.06410   0.21339   0.00000  Uiso   1.00
O204   O     0.35250   0.27724   0.29605   0.00000  Uiso   1.00
O205   O     0.56012   0.12709   0.25000   0.00000  Uiso   1.00
O206   O     0.56012   0.20625   0.25000   0.00000  Uiso   1.00
O207   O     0.43988   0.12709   0.24999   0.00000  Uiso   1.00
O208   O     0.50000   0.20626   0.18573   0.00000  Uiso   1.00
O209   O     0.50000   0.12707   0.31427   0.00000  Uiso   1.00
O210   O     0.50000   0.20626   0.31427   0.00000  Uiso   1.00
O211   O     0.50000   0.12707   0.18573   0.00000  Uiso   1.00
O212   O     0.54189   0.26319   0.14378   0.00000  Uiso   1.00
C213   C     0.75460   0.16607   0.25342   0.00000  Uiso   1.00
C214   C     0.98040   0.20480   0.24377   0.00000  Uiso   1.00
C215   C     0.97857   0.12129   0.24821   0.00000  Uiso   1.00
C216   C     0.68817   0.20444   0.26105   0.00000  Uiso   1.00
C217   C     0.83210   0.20785   0.04811   0.00000  Uiso   1.00
C218   C     0.81478   0.13043   0.45184   0.00000  Uiso   1.00
C219   C     0.84528   0.20612   0.45393   0.00000  Uiso   1.00
C220   C     0.85118   0.12800   0.04831   0.00000  Uiso   1.00
C221   C     0.84049   0.21007   0.09382   0.00000  Uiso   1.00
C222   C     0.80938   0.13166   0.40542   0.00000  Uiso   1.00
C223   C     0.83734   0.20949   0.40833   0.00000  Uiso   1.00
C224   C     0.91237   0.16627   0.24731   0.00000  Uiso   1.00
C225   C     0.85679   0.12873   0.09474   0.00000  Uiso   1.00
C226   C     0.84587   0.16853   0.11809   0.00000  Uiso   1.00
C227   C     0.82478   0.16963   0.38290   0.00000  Uiso   1.00
C228   C     0.83754   0.16705   0.02492   0.00000  Uiso   1.00
C229   C     0.83360   0.16712   0.47614   0.00000  Uiso   1.00
C230   C     0.95734   0.16397   0.24474   0.00000  Uiso   1.00
C231   C     0.71016   0.16356   0.25776   0.00000  Uiso   1.00
C232   C     0.79900   0.04010   0.17037   0.00000  Uiso   1.00
C233   C     0.76032   0.06949   0.16030   0.00000  Uiso   1.00
C234   C     0.75150   0.07788   0.11069   0.00000  Uiso   1.00
C235   C     0.83804   0.16691   0.16579   0.00000  Uiso   1.00
C236   C     0.90651   0.29530   0.28475   0.00000  Uiso   1.00
C237   C     0.91898   0.26402   0.32467   0.00000  Uiso   1.00
C238   C     0.94450   0.28815   0.36311   0.00000  Uiso   1.00
C239   C     0.86539   0.04042   0.33045   0.00000  Uiso   1.00
C240   C     0.90485   0.06901   0.34137   0.00000  Uiso   1.00
C241   C     0.91161   0.08161   0.39049   0.00000  Uiso   1.00
C242   C     0.76167   0.29011   0.20679   0.00000  Uiso   1.00
C243   C     0.75893   0.25976   0.16476   0.00000  Uiso   1.00
C244   C     0.71871   0.26556   0.13547   0.00000  Uiso   1.00
C245   C     0.84943   0.25675   0.11251   0.00000  Uiso   1.00
C246   C     0.83004   0.16723   0.33460   0.00000  Uiso   1.00
C247   C     0.78315   0.09627   0.38150   0.00000  Uiso   1.00
C248   C     0.83771   0.25684   0.39091   0.00000  Uiso   1.00
C249   C     0.87979   0.09091   0.11759   0.00000  Uiso   1.00
C250   C     0.70846   0.07512   0.25580   0.00000  Uiso   1.00
C251   C     0.96535   0.24263   0.21417   0.00000  Uiso   1.00
C252   C     0.95767   0.07571   0.24569   0.00000  Uiso   1.00
C253   C     0.70533   0.24252   0.29047   0.00000  Uiso   1.00
C254   C     0.80991   0.02364   0.21780   0.00000  Uiso   1.00
C255   C     0.86219   0.30982   0.27613   0.00000  Uiso   1.00
C256   C     0.85582   0.02421   0.28267   0.00000  Uiso   1.00
C257   C     0.80403   0.30886   0.22404   0.00000  Uiso   1.00
C258   C     0.68825   0.12102   0.25357   0.00000  Uiso   1.00
Cu259  Cu    0.83333   0.21355   0.25000   0.00000  Uiso   1.00
Cu260  Cu    0.83333   0.11978   0.25000   0.00000  Uiso   1.00
H261   H     0.82365   0.23910   0.03042   0.00000  Uiso   1.00
H262   H     0.82603   0.05548   0.15846   0.00000  Uiso   1.00
H263   H     0.79498   0.00999   0.14787   0.00000  Uiso   1.00
H264   H     0.97001   0.30825   0.35133   0.00000  Uiso   1.00
H265   H     0.92547   0.31105   0.38144   0.00000  Uiso   1.00
H266   H     0.95773   0.26198   0.38674   0.00000  Uiso   1.00
H267   H     0.93833   0.23590   0.31384   0.00000  Uiso   1.00
H268   H     0.89230   0.24805   0.33712   0.00000  Uiso   1.00
H269   H     0.91416   0.28045   0.25377   0.00000  Uiso   1.00
H270   H     0.92695   0.32549   0.28676   0.00000  Uiso   1.00
H271   H     0.88726   0.10474   0.39962   0.00000  Uiso   1.00
H272   H     0.80283   0.10175   0.46924   0.00000  Uiso   1.00
H273   H     0.91189   0.05046   0.41135   0.00000  Uiso   1.00
H274   H     0.94141   0.09976   0.39754   0.00000  Uiso   1.00
H275   H     0.93180   0.04943   0.33344   0.00000  Uiso   1.00
H276   H     0.90417   0.10117   0.32263   0.00000  Uiso   1.00
H277   H     0.83830   0.05619   0.34208   0.00000  Uiso   1.00
H278   H     0.86814   0.00986   0.35200   0.00000  Uiso   1.00
H279   H     0.69287   0.25241   0.15257   0.00000  Uiso   1.00
H280   H     0.71364   0.30222   0.12668   0.00000  Uiso   1.00
H281   H     0.71975   0.24539   0.10442   0.00000  Uiso   1.00
H282   H     0.78368   0.26869   0.14478   0.00000  Uiso   1.00
H283   H     0.85866   0.23549   0.47235   0.00000  Uiso   1.00
H284   H     0.76133   0.22294   0.17307   0.00000  Uiso   1.00
H285   H     0.74680   0.27472   0.23348   0.00000  Uiso   1.00
H286   H     0.74081   0.31929   0.20010   0.00000  Uiso   1.00
H287   H     0.83486   0.28642   0.09634   0.00000  Uiso   1.00
H288   H     0.77015   0.10285   0.34815   0.00000  Uiso   1.00
H289   H     0.86091   0.28109   0.40466   0.00000  Uiso   1.00
H290   H     0.89294   0.09572   0.15131   0.00000  Uiso   1.00
H291   H     0.69893   0.04901   0.23121   0.00000  Uiso   1.00
H292   H     0.93761   0.23774   0.19216   0.00000  Uiso   1.00
H293   H     0.96605   0.05081   0.27117   0.00000  Uiso   1.00
H294   H     0.85930   0.09775   0.03019   0.00000  Uiso   1.00
H295   H     0.73522   0.23922   0.30888   0.00000  Uiso   1.00
H296   H     0.77743   0.09634   0.09796   0.00000  Uiso   1.00
H297   H     0.74619   0.04477   0.09248   0.00000  Uiso   1.00
H298   H     0.72365   0.09922   0.10439   0.00000  Uiso   1.00
H299   H     0.73314   0.05229   0.17111   0.00000  Uiso   1.00
H300   H     0.76330   0.10328   0.17662   0.00000  Uiso   1.00
N301   N     0.83333   0.28402   0.25000   0.00000  Uiso   1.00
N302   N     0.83333   0.04931   0.25000   0.00000  Uiso   1.00
O303   O     0.77321   0.20625   0.24999   0.00000  Uiso   1.00
O304   O     0.77523   0.06004   0.39892   0.00000  Uiso   1.00
O305   O     0.81013   0.27048   0.36434   0.00000  Uiso   1.00
O306   O     0.88488   0.05437   0.09892   0.00000  Uiso   1.00
O307   O     0.73249   0.06449   0.28721   0.00000  Uiso   1.00
O308   O     0.98393   0.27900   0.21291   0.00000  Uiso   1.00
O309   O     0.93475   0.06410   0.21339   0.00000  Uiso   1.00
O310   O     0.68584   0.27724   0.29605   0.00000  Uiso   1.00
O311   O     0.89345   0.12709   0.25000   0.00000  Uiso   1.00
O312   O     0.89345   0.20625   0.25000   0.00000  Uiso   1.00
O313   O     0.77321   0.12709   0.24999   0.00000  Uiso   1.00
O314   O     0.83333   0.20626   0.18573   0.00000  Uiso   1.00
O315   O     0.83334   0.12707   0.31427   0.00000  Uiso   1.00
O316   O     0.83334   0.20626   0.31427   0.00000  Uiso   1.00
O317   O     0.83333   0.12707   0.18573   0.00000  Uiso   1.00
O318   O     0.87523   0.26319   0.14378   0.00000  Uiso   1.00
C319   C     0.08793   0.49941   0.25342   0.00000  Uiso   1.00
C320   C     0.31374   0.53813   0.24377   0.00000  Uiso   1.00
C321   C     0.31190   0.45462   0.24821   0.00000  Uiso   1.00
C322   C     0.02151   0.53777   0.26105   0.00000  Uiso   1.00
C323   C     0.16543   0.54118   0.04811   0.00000  Uiso   1.00
C324   C     0.14811   0.46377   0.45184   0.00000  Uiso   1.00
C325   C     0.17861   0.53946   0.45393   0.00000  Uiso   1.00
C326   C     0.18451   0.46133   0.04831   0.00000  Uiso   1.00
C327   C     0.17382   0.54340   0.09382   0.00000  Uiso   1.00
C328   C     0.14271   0.46499   0.40542   0.00000  Uiso   1.00
C329   C     0.17068   0.54283   0.40833   0.00000  Uiso   1.00
C330   C     0.24570   0.49961   0.24731   0.00000  Uiso   1.00
C331   C     0.19012   0.46206   0.09474   0.00000  Uiso   1.00
C332   C     0.17920   0.50186   0.11809   0.00000  Uiso   1.00
C333   C     0.15812   0.50296   0.38290   0.00000  Uiso   1.00
C334   C     0.17087   0.50038   0.02492   0.00000  Uiso   1.00
C335   C     0.16693   0.50046   0.47614   0.00000  Uiso   1.00
C336   C     0.29067   0.49730   0.24474   0.00000  Uiso   1.00
C337   C     0.04350   0.49689   0.25776   0.00000  Uiso   1.00
C338   C     0.13233   0.37343   0.17037   0.00000  Uiso   1.00
C339   C     0.09365   0.40283   0.16030   0.00000  Uiso   1.00
C340   C     0.08483   0.41121   0.11069   0.00000  Uiso   1.00
C341   C     0.17138   0.50024   0.16579   0.00000  Uiso   1.00
C342   C     0.23984   0.62863   0.28475   0.00000  Uiso   1.00
C343   C     0.25232   0.59735   0.32467   0.00000  Uiso   1.00
C344   C     0.27783   0.62149   0.36311   0.00000  Uiso   1.00
C345   C     0.19873   0.37376   0.33045   0.00000  Uiso   1.00
C346   C     0.23818   0.40235   0.34137   0.00000  Uiso   1.00
C347   C     0.24494   0.41494   0.39049   0.00000  Uiso   1.00
C348   C     0.09501   0.62345   0.20679   0.00000  Uiso   1.00
C349   C     0.09226   0.59309   0.16476   0.00000  Uiso   1.00
C350   C     0.05205   0.59889   0.13547   0.00000  Uiso   1.00
C351   C     0.18276   0.59008   0.11251   0.00000  Uiso   1.00
C352   C     0.16338   0.50056   0.33460   0.00000  Uiso   1.00
C353   C     0.11649   0.42961   0.38150   0.00000  Uiso   1.00
C354   C     0.17104   0.59018   0.39091   0.00000  Uiso   1.00
C355   C     0.21313   0.42424   0.11759   0.00000  Uiso   1.00
C356   C     0.04179   0.40845   0.25580   0.00000  Uiso   1.00
C357   C     0.29868   0.57596   0.21417   0.00000  Uiso   1.00
C358   C     0.29100   0.40904   0.24569   0.00000  Uiso   1.00
C359   C     0.03866   0.57585   0.29047   0.00000  Uiso   1.00
C360   C     0.14324   0.35697   0.21780   0.00000  Uiso   1.00
C361   C     0.19552   0.64316   0.27613   0.00000  Uiso   1.00
C362   C     0.18916   0.35754   0.28267   0.00000  Uiso   1.00
C363   C     0.13736   0.64219   0.22404   0.00000  Uiso   1.00
C364   C     0.02158   0.45435   0.25357   0.00000  Uiso   1.00
Cu365  Cu    0.16667   0.54689   0.25000   0.00000  Uiso   1.00
Cu366  Cu    0.16667   0.45311   0.25000   0.00000  Uiso   1.00
H367   H     0.15698   0.57244   0.03042   0.00000  Uiso   1.00
H368   H     0.15936   0.38882   0.15846   0.00000  Uiso   1.00
H369   H     0.12831   0.34333   0.14787   0.00000  Uiso   1.00
H370   H     0.30334   0.64159   0.35133   0.00000  Uiso   1.00
H371   H     0.25880   0.64438   0.38144   0.00000  Uiso   1.00
H372   H     0.29107   0.59532   0.38674   0.00000  Uiso   1.00
H373   H     0.27167   0.56923   0.31384   0.00000  Uiso   1.00
H374   H     0.22564   0.58138   0.33712   0.00000  Uiso   1.00
H375   H     0.24749   0.61379   0.25377   0.00000  Uiso   1.00
H376   H     0.26029   0.65883   0.28676   0.00000  Uiso   1.00
H377   H     0.22059   0.43808   0.39962   0.00000  Uiso   1.00
H378   H     0.13616   0.43509   0.46924   0.00000  Uiso   1.00
H379   H     0.24523   0.38380   0.41135   0.00000  Uiso   1.00
H380   H     0.27475   0.43310   0.39754   0.00000  Uiso   1.00
H381   H     0.26514   0.38277   0.33344   0.00000  Uiso   1.00
H382   H     0.23750   0.43450   0.32263   0.00000  Uiso   1.00
H383   H     0.17164   0.38952   0.34208   0.00000  Uiso   1.00
H384   H     0.20148   0.34320   0.35200   0.00000  Uiso   1.00
H385   H     0.02620   0.58574   0.15257   0.00000  Uiso   1.00
H386   H     0.04698   0.63555   0.12668   0.00000  Uiso   1.00
H387   H     0.05308   0.57873   0.10442   0.00000  Uiso   1.00
H388   H     0.11701   0.60203   0.14478   0.00000  Uiso   1.00
H389   H     0.19200   0.56882   0.47235   0.00000  Uiso   1.00
H390   H     0.09467   0.55627   0.17307   0.00000  Uiso   1.00
H391   H     0.08013   0.60806   0.23348   0.00000  Uiso   1.00
H392   H     0.07415   0.65262   0.20010   0.00000  Uiso   1.00
H393   H     0.16819   0.61975   0.09634   0.00000  Uiso   1.00
H394   H     0.10348   0.43619   0.34815   0.00000  Uiso   1.00
H395   H     0.19424   0.61442   0.40466   0.00000  Uiso   1.00
H396   H     0.22627   0.42906   0.15131   0.00000  Uiso   1.00
H397   H     0.03226   0.38234   0.23121   0.00000  Uiso   1.00
H398   H     0.27095   0.57108   0.19216   0.00000  Uiso   1.00
H399   H     0.29939   0.38414   0.27117   0.00000  Uiso   1.00
H400   H     0.19264   0.43109   0.03019   0.00000  Uiso   1.00
H401   H     0.06855   0.57255   0.30888   0.00000  Uiso   1.00
H402   H     0.11077   0.42967   0.09796   0.00000  Uiso   1.00
H403   H     0.07953   0.37811   0.09248   0.00000  Uiso   1.00
H404   H     0.05699   0.43255   0.10439   0.00000  Uiso   1.00
H405   H     0.06648   0.38562   0.17111   0.00000  Uiso   1.00
H406   H     0.09663   0.43661   0.17662   0.00000  Uiso   1.00
N407   N     0.16667   0.61736   0.25000   0.00000  Uiso   1.00
N408   N     0.16667   0.38264   0.25000   0.00000  Uiso   1.00
O409   O     0.10655   0.53958   0.24999   0.00000  Uiso   1.00
O410   O     0.10856   0.39338   0.39892   0.00000  Uiso   1.00
O411   O     0.14346   0.60381   0.36434   0.00000  Uiso   1.00
O412   O     0.21822   0.38771   0.09892   0.00000  Uiso   1.00
O413   O     0.06582   0.39783   0.28721   0.00000  Uiso   1.00
O414   O     0.31727   0.61233   0.21291   0.00000  Uiso   1.00
O415   O     0.26808   0.39743   0.21339   0.00000  Uiso   1.00
O416   O     0.01917   0.61058   0.29605   0.00000  Uiso   1.00
O417   O     0.22679   0.46042   0.25000   0.00000  Uiso   1.00
O418   O     0.22679   0.53958   0.25000   0.00000  Uiso   1.00
O419   O     0.10655   0.46042   0.24999   0.00000  Uiso   1.00
O420   O     0.16666   0.53959   0.18573   0.00000  Uiso   1.00
O421   O     0.16667   0.46041   0.31427   0.00000  Uiso   1.00
O422   O     0.16667   0.53959   0.31427   0.00000  Uiso   1.00
O423   O     0.16666   0.46041   0.18573   0.00000  Uiso   1.00
O424   O     0.20856   0.59652   0.14378   0.00000  Uiso   1.00
C425   C     0.42126   0.49941   0.25342   0.00000  Uiso   1.00
C426   C     0.64707   0.53813   0.24377   0.00000  Uiso   1.00
C427   C     0.64523   0.45462   0.24821   0.00000  Uiso   1.00
C428   C     0.35484   0.53777   0.26105   0.00000  Uiso   1.00
C429   C     0.49877   0.54118   0.04811   0.00000  Uiso   1.00
C430   C     0.48144   0.46377   0.45184   0.00000  Uiso   1.00
C431   C     0.51195   0.53946   0.45393   0.00000  Uiso   1.00
C432   C     0.51785   0.46133   0.04831   0.00000  Uiso   1.00
C433   C     0.50716   0.54340   0.09382   0.00000  Uiso   1.00
C434   C     0.47604   0.46499   0.40542   0.00000  Uiso   1.00
C435   C     0.50401   0.54283   0.40833   0.00000  Uiso   1.00
C436   C     0.57903   0.49961   0.24731   0.00000  Uiso   1.00
C437   C     0.52345   0.46206   0.09474   0.00000  Uiso   1.00
C438   C     0.51254   0.50186   0.11809   0.00000  Uiso   1.00
C439   C     0.49145   0.50296   0.38290   0.00000  Uiso   1.00
C440   C     0.50421   0.50038   0.02492   0.00000  Uiso   1.00
C441   C     0.50026   0.50046   0.47614   0.00000  Uiso   1.00
C442   C     0.62401   0.49730   0.24474   0.00000  Uiso   1.00
C443   C     0.37683   0.49689   0.25776   0.00000  Uiso   1.00
C444   C     0.46566   0.37343   0.17037   0.00000  Uiso   1.00
C445   C     0.42698   0.40283   0.16030   0.00000  Uiso   1.00
C446   C     0.41817   0.41121   0.11069   0.00000  Uiso   1.00
C447   C     0.50471   0.50024   0.16579   0.00000  Uiso   1.00
C448   C     0.57318   0.62863   0.28475   0.00000  Uiso   1.00
C449   C     0.58565   0.59735   0.32467   0.00000  Uiso   1.00
C450   C     0.61116   0.62149   0.36311   0.00000  Uiso   1.00
C451   C     0.53206   0.37376   0.33045   0.00000  Uiso   1.00
C452   C     0.57151   0.40235   0.34137   0.00000  Uiso   1.00
C453   C     0.57827   0.41494   0.39049   0.00000  Uiso   1.00
C454   C     0.42834   0.62345   0.20679   0.00000  Uiso   1.00
C455   C     0.42559   0.59309   0.16476   0.00000  Uiso   1.00
C456   C     0.38538   0.59889   0.13547   0.00000  Uiso   1.00
C457   C     0.51609   0.59008   0.11251   0.00000  Uiso   1.00
C458   C     0.49671   0.50056   0.33460   0.00000  Uiso   1.00
C459   C     0.44982   0.42961   0.38150   0.00000  Uiso   1.00
C460   C     0.50437   0.59018   0.39091   0.00000  Uiso   1.00
C461   C     0.54646   0.42424   0.11759   0.00000  Uiso   1.00
C462   C     0.37513   0.40845   0.25580   0.00000  Uiso   1.00
C463   C     0.63202   0.57596   0.21417   0.00000  Uiso   1.00
C464   C     0.62433   0.40904   0.24569   0.00000  Uiso   1.00
C465   C     0.37199   0.57585   0.29047   0.00000  Uiso   1.00
C466   C     0.47658   0.35697   0.21780   0.00000  Uiso   1.00
C467   C     0.52885   0.64316   0.27613   0.00000  Uiso   1.00
C468   C     0.52249   0.35754   0.28267   0.00000  Uiso   1.00
C469   C     0.47069   0.64219   0.22404   0.00000  Uiso   1.00
C470   C     0.35492   0.45435   0.25357   0.00000  Uiso   1.00
Cu471  Cu    0.50000   0.54689   0.25000   0.00000  Uiso   1.00
Cu472  Cu    0.50000   0.45311   0.25000   0.00000  Uiso   1.00
H473   H     0.49031   0.57244   0.03042   0.00000  Uiso   1.00
H474   H     0.49270   0.38882   0.15846   0.00000  Uiso   1.00
H475   H     0.46165   0.34333   0.14787   0.00000  Uiso   1.00
H476   H     0.63667   0.64159   0.35133   0.00000  Uiso   1.00
H477   H     0.59213   0.64438   0.38144   0.00000  Uiso   1.00
H478   H     0.62440   0.59532   0.38674   0.00000  Uiso   1.00
H479   H     0.60500   0.56923   0.31384   0.00000  Uiso   1.00
H480   H     0.55897   0.58138   0.33712   0.00000  Uiso   1.00
H481   H     0.58083   0.61379   0.25377   0.00000  Uiso   1.00
H482   H     0.59362   0.65883   0.28676   0.00000  Uiso   1.00
H483   H     0.55393   0.43808   0.39962   0.00000  Uiso   1.00
H484   H     0.46949   0.43509   0.46924   0.00000  Uiso   1.00
H485   H     0.57856   0.38380   0.41135   0.00000  Uiso   1.00
H486   H     0.60808   0.43310   0.39754   0.00000  Uiso   1.00
H487   H     0.59847   0.38277   0.33344   0.00000  Uiso   1.00
H488   H     0.57083   0.43450   0.32263   0.00000  Uiso   1.00
H489   H     0.50497   0.38952   0.34208   0.00000  Uiso   1.00
H490   H     0.53481   0.34320   0.35200   0.00000  Uiso   1.00
H491   H     0.35954   0.58574   0.15257   0.00000  Uiso   1.00
H492   H     0.38031   0.63555   0.12668   0.00000  Uiso   1.00
H493   H     0.38641   0.57873   0.10442   0.00000  Uiso   1.00
H494   H     0.45035   0.60203   0.14478   0.00000  Uiso   1.00
H495   H     0.52533   0.56882   0.47235   0.00000  Uiso   1.00
H496   H     0.42800   0.55627   0.17307   0.00000  Uiso   1.00
H497   H     0.41346   0.60806   0.23348   0.00000  Uiso   1.00
H498   H     0.40748   0.65262   0.20010   0.00000  Uiso   1.00
H499   H     0.50152   0.61975   0.09634   0.00000  Uiso   1.00
H500   H     0.43682   0.43619   0.34815   0.00000  Uiso   1.00
H501   H     0.52757   0.61442   0.40466   0.00000  Uiso   1.00
H502   H     0.55961   0.42906   0.15131   0.00000  Uiso   1.00
H503   H     0.36560   0.38234   0.23121   0.00000  Uiso   1.00
H504   H     0.60428   0.57108   0.19216   0.00000  Uiso   1.00
H505   H     0.63272   0.38414   0.27117   0.00000  Uiso   1.00
H506   H     0.52597   0.43109   0.03019   0.00000  Uiso   1.00
H507   H     0.40188   0.57255   0.30888   0.00000  Uiso   1.00
H508   H     0.44410   0.42967   0.09796   0.00000  Uiso   1.00
H509   H     0.41286   0.37811   0.09248   0.00000  Uiso   1.00
H510   H     0.39032   0.43255   0.10439   0.00000  Uiso   1.00
H511   H     0.39981   0.38562   0.17111   0.00000  Uiso   1.00
H512   H     0.42997   0.43661   0.17662   0.00000  Uiso   1.00
N513   N     0.50000   0.61736   0.25000   0.00000  Uiso   1.00
N514   N     0.50000   0.38264   0.25000   0.00000  Uiso   1.00
O515   O     0.43988   0.53958   0.24999   0.00000  Uiso   1.00
O516   O     0.44190   0.39338   0.39892   0.00000  Uiso   1.00
O517   O     0.47680   0.60381   0.36434   0.00000  Uiso   1.00
O518   O     0.55155   0.38771   0.09892   0.00000  Uiso   1.00
O519   O     0.39916   0.39783   0.28721   0.00000  Uiso   1.00
O520   O     0.65060   0.61233   0.21291   0.00000  Uiso   1.00
O521   O     0.60141   0.39743   0.21339   0.00000  Uiso   1.00
O522   O     0.35250   0.61058   0.29605   0.00000  Uiso   1.00
O523   O     0.56012   0.46042   0.25000   0.00000  Uiso   1.00
O524   O     0.56012   0.53958   0.25000   0.00000  Uiso   1.00
O525   O     0.43988   0.46042   0.24999   0.00000  Uiso   1.00
O526   O     0.50000   0.53959   0.18573   0.00000  Uiso   1.00
O527   O     0.50000   0.46041   0.31427   0.00000  Uiso   1.00
O528   O     0.50000   0.53959   0.31427   0.00000  Uiso   1.00
O529   O     0.50000   0.46041   0.18573   0.00000  Uiso   1.00
O530   O     0.54189   0.59652   0.14378   0.00000  Uiso   1.00
C531   C     0.75460   0.49941   0.25342   0.00000  Uiso   1.00
C532   C     0.98040   0.53813   0.24377   0.00000  Uiso   1.00
C533   C     0.97857   0.45462   0.24821   0.00000  Uiso   1.00
C534   C     0.68817   0.53777   0.26105   0.00000  Uiso   1.00
C535   C     0.83210   0.54118   0.04811   0.00000  Uiso   1.00
C536   C     0.81478   0.46377   0.45184   0.00000  Uiso   1.00
C537   C     0.84528   0.53946   0.45393   0.00000  Uiso   1.00
C538   C     0.85118   0.46133   0.04831   0.00000  Uiso   1.00
C539   C     0.84049   0.54340   0.09382   0.00000  Uiso   1.00
C540   C     0.80938   0.46499   0.40542   0.00000  Uiso   1.00
C541   C     0.83734   0.54283   0.40833   0.00000  Uiso   1.00
C542   C     0.91237   0.49961   0.24731   0.00000  Uiso   1.00
C543   C     0.85679   0.46206   0.09474   0.00000  Uiso   1.00
C544   C     0.84587   0.50186   0.11809   0.00000  Uiso   1.00
C545   C     0.82478   0.50296   0.38290   0.00000  Uiso   1.00
C546   C     0.83754   0.50038   0.02492   0.00000  Uiso   1.00
C547   C     0.83360   0.50046   0.47614   0.00000  Uiso   1.00
C548   C     0.95734   0.49730   0.24474   0.00000  Uiso   1.00
C549   C     0.71016   0.49689   0.25776   0.00000  Uiso   1.00
C550   C     0.79900   0.37343   0.17037   0.00000  Uiso   1.00
C551   C     0.76032   0.40283   0.16030   0.00000  Uiso   1.00
C552   C     0.75150   0.41121   0.11069   0.00000  Uiso   1.00
C553   C     0.83804   0.50024   0.16579   0.00000  Uiso   1.00
C554   C     0.90651   0.62863   0.28475   0.00000  Uiso   1.00
C555   C     0.91898   0.59735   0.32467   0.00000  Uiso   1.00
C556   C     0.94450   0.62149   0.36311   0.00000  Uiso   1.00
C557   C     0.86539   0.37376   0.33045   0.00000  Uiso   1.00
C558   C     0.90485   0.40235   0.34137   0.00000  Uiso   1.00
C559   C     0.91161   0.41494   0.39049   0.00000  Uiso   1.00
C560   C     0.76167   0.62345   0.20679   0.00000  Uiso   1.00
C561   C     0.75893   0.59309   0.16476   0.00000  Uiso   1.00
C562   C     0.71871   0.59889   0.13547   0.00000  Uiso   1.00
C563   C     0.84943   0.59008   0.11251   0.00000  Uiso   1.00
C564   C     0.83004   0.50056   0.33460   0.00000  Uiso   1.00
C565   C     0.78315   0.42961   0.38150   0.00000  Uiso   1.00
C566   C     0.83771   0.59018   0.39091   0.00000  Uiso   1.00
C567   C     0.87979   0.42424   0.11759   0.00000  Uiso   1.00
C568   C     0.70846   0.40845   0.25580   0.00000  Uiso   1.00
C569   C     0.96535   0.57596   0.21417   0.00000  Uiso   1.00
C570   C     0.95767   0.40904   0.24569   0.00000  Uiso   1.00
C571   C     0.70533   0.57585   0.29047   0.00000  Uiso   1.00
C572   C     0.80991   0.35697   0.21780   0.00000  Uiso   1.00
C573   C     0.86219   0.64316   0.27613   0.00000  Uiso   1.00
C574   C     0.85582   0.35754   0.28267   0.00000  Uiso   1.00
C575   C     0.80403   0.64219   0.22404   0.00000  Uiso   1.00
C576   C     0.68825   0.45435   0.25357   0.00000  Uiso   1.00
Cu577  Cu    0.83333   0.54689   0.25000   0.00000  Uiso   1.00
Cu578  Cu    0.83333   0.45311   0.25000   0.00000  Uiso   1.00
H579   H     0.82365   0.57244   0.03042   0.00000  Uiso   1.00
H580   H     0.82603   0.38882   0.15846   0.00000  Uiso   1.00
H581   H     0.79498   0.34333   0.14787   0.00000  Uiso   1.00
H582   H     0.97001   0.64159   0.35133   0.00000  Uiso   1.00
H583   H     0.92547   0.64438   0.38144   0.00000  Uiso   1.00
H584   H     0.95773   0.59532   0.38674   0.00000  Uiso   1.00
H585   H     0.93833   0.56923   0.31384   0.00000  Uiso   1.00
H586   H     0.89230   0.58138   0.33712   0.00000  Uiso   1.00
H587   H     0.91416   0.61379   0.25377   0.00000  Uiso   1.00
H588   H     0.92695   0.65883   0.28676   0.00000  Uiso   1.00
H589   H     0.88726   0.43808   0.39962   0.00000  Uiso   1.00
H590   H     0.80283   0.43509   0.46924   0.00000  Uiso   1.00
H591   H     0.91189   0.38380   0.41135   0.00000  Uiso   1.00
H592   H     0.94141   0.43310   0.39754   0.00000  Uiso   1.00
H593   H     0.93180   0.38277   0.33344   0.00000  Uiso   1.00
H594   H     0.90417   0.43450   0.32263   0.00000  Uiso   1.00
H595   H     0.83830   0.38952   0.34208   0.00000  Uiso   1.00
H596   H     0.86814   0.34320   0.35200   0.00000  Uiso   1.00
H597   H     0.69287   0.58574   0.15257   0.00000  Uiso   1.00
H598   H     0.71364   0.63555   0.12668   0.00000  Uiso   1.00
H599   H     0.71975   0.57873   0.10442   0.00000  Uiso   1.00
H600   H     0.78368   0.60203   0.14478   0.00000  Uiso   1.00
H601   H     0.85866   0.56882   0.47235   0.00000  Uiso   1.00
H602   H     0.76133   0.55627   0.17307   0.00000  Uiso   1.00
H603   H     0.74680   0.60806   0.23348   0.00000  Uiso   1.00
H604   H     0.74081   0.65262   0.20010   0.00000  Uiso   1.00
H605   H     0.83486   0.61975   0.09634   0.00000  Uiso   1.00
H606   H     0.77015   0.43619   0.34815   0.00000  Uiso   1.00
H607   H     0.86091   0.61442   0.40466   0.00000  Uiso   1.00
H608   H     0.89294   0.42906   0.15131   0.00000  Uiso   1.00
H609   H     0.69893   0.38234   0.23121   0.00000  Uiso   1.00
H610   H     0.93761   0.57108   0.19216   0.00000  Uiso   1.00
H611   H     0.96605   0.38414   0.27117   0.00000  Uiso   1.00
H612   H     0.85930   0.43109   0.03019   0.00000  Uiso   1.00
H613   H     0.73522   0.57255   0.30888   0.00000  Uiso   1.00
H614   H     0.77743   0.42967   0.09796   0.00000  Uiso   1.00
H615   H     0.74619   0.37811   0.09248   0.00000  Uiso   1.00
H616   H     0.72365   0.43255   0.10439   0.00000  Uiso   1.00
H617   H     0.73314   0.38562   0.17111   0.00000  Uiso   1.00
H618   H     0.76330   0.43661   0.17662   0.00000  Uiso   1.00
N619   N     0.83333   0.61736   0.25000   0.00000  Uiso   1.00
N620   N     0.83333   0.38264   0.25000   0.00000  Uiso   1.00
O621   O     0.77321   0.53958   0.24999   0.00000  Uiso   1.00
O622   O     0.77523   0.39338   0.39892   0.00000  Uiso   1.00
O623   O     0.81013   0.60381   0.36434   0.00000  Uiso   1.00
O624   O     0.88488   0.38771   0.09892   0.00000  Uiso   1.00
O625   O     0.73249   0.39783   0.28721   0.00000  Uiso   1.00
O626   O     0.98393   0.61233   0.21291   0.00000  Uiso   1.00
O627   O     0.93475   0.39743   0.21339   0.00000  Uiso   1.00
O628   O     0.68584   0.61058   0.29605   0.00000  Uiso   1.00
O629   O     0.89345   0.46042   0.25000   0.00000  Uiso   1.00
O630   O     0.89345   0.53958   0.25000   0.00000  Uiso   1.00
O631   O     0.77321   0.46042   0.24999   0.00000  Uiso   1.00
O632   O     0.83333   0.53959   0.18573   0.00000  Uiso   1.00
O633   O     0.83334   0.46041   0.31427   0.00000  Uiso   1.00
O634   O     0.83334   0.53959   0.31427   0.00000  Uiso   1.00
O635   O     0.83333   0.46041   0.18573   0.00000  Uiso   1.00
O636   O     0.87523   0.59652   0.14378   0.00000  Uiso   1.00
C637   C     0.08793   0.83274   0.25342   0.00000  Uiso   1.00
C638   C     0.31374   0.87146   0.24377   0.00000  Uiso   1.00
C639   C     0.31190   0.78796   0.24821   0.00000  Uiso   1.00
C640   C     0.02151   0.87110   0.26105   0.00000  Uiso   1.00
C641   C     0.16543   0.87451   0.04811   0.00000  Uiso   1.00
C642   C     0.14811   0.79710   0.45184   0.00000  Uiso   1.00
C643   C     0.17861   0.87279   0.45393   0.00000  Uiso   1.00
C644   C     0.18451   0.79466   0.04831   0.00000  Uiso   1.00
C645   C     0.17382   0.87673   0.09382   0.00000  Uiso   1.00
C646   C     0.14271   0.79833   0.40542   0.00000  Uiso   1.00
C647   C     0.17068   0.87616   0.40833   0.00000  Uiso   1.00
C648   C     0.24570   0.83294   0.24731   0.00000  Uiso   1.00
C649   C     0.19012   0.79539   0.09474   0.00000  Uiso   1.00
C650   C     0.17920   0.83520   0.11809   0.00000  Uiso   1.00
C651   C     0.15812   0.83630   0.38290   0.00000  Uiso   1.00
C652   C     0.17087   0.83372   0.02492   0.00000  Uiso   1.00
C653   C     0.16693   0.83379   0.47614   0.00000  Uiso   1.00
C654   C     0.29067   0.83064   0.24474   0.00000  Uiso   1.00
C655   C     0.04350   0.83023   0.25776   0.00000  Uiso   1.00
C656   C     0.13233   0.70676   0.17037   0.00000  Uiso   1.00
C657   C     0.09365   0.73616   0.16030   0.00000  Uiso   1.00
C658   C     0.08483   0.74455   0.11069   0.00000  Uiso   1.00
C659   C     0.17138   0.83358   0.16579   0.00000  Uiso   1.00
C660   C     0.23984   0.96196   0.28475   0.00000  Uiso   1.00
C661   C     0.25232   0.93068   0.32467   0.00000  Uiso   1.00
C662   C     0.27783   0.95482   0.36311   0.00000  Uiso   1.00
C663   C     0.19873   0.70709   0.33045   0.00000  Uiso   1.00
C664   C     0.23818   0.73568   0.34137   0.00000  Uiso   1.00
C665   C     0.24494   0.74827   0.39049   0.00000  Uiso   1.00
C666   C     0.09501   0.95678   0.20679   0.00000  Uiso   1.00
C667   C     0.09226   0.92642   0.16476   0.00000  Uiso   1.00
C668   C     0.05205   0.93223   0.13547   0.00000  Uiso   1.00
C669   C     0.18276   0.92342   0.11251   0.00000  Uiso   1.00
C670   C     0.16338   0.83390   0.33460   0.00000  Uiso   1.00
C671   C     0.11649   0.76294   0.38150   0.00000  Uiso   1.00
C672   C     0.17104   0.92351   0.39091   0.00000  Uiso   1.00
C673   C     0.21313   0.75757   0.11759   0.00000  Uiso   1.00
C674   C     0.04179   0.74178   0.25580   0.00000  Uiso   1.00
C675   C     0.29868   0.90929   0.21417   0.00000  Uiso   1.00
C676   C     0.29100   0.74237   0.24569   0.00000  Uiso   1.00
C677   C     0.03866   0.90918   0.29047   0.00000  Uiso   1.00
C678   C     0.14324   0.69030   0.21780   0.00000  Uiso   1.00
C679   C     0.19552   0.97649   0.27613   0.00000  Uiso   1.00
C680   C     0.18916   0.69087   0.28267   0.00000  Uiso   1.00
C681   C     0.13736   0.97553   0.22404   0.00000  Uiso   1.00
C682   C     0.02158   0.78768   0.25357   0.00000  Uiso   1.00
Cu683  Cu    0.16667   0.88022   0.25000   0.00000  Uiso   1.00
Cu684  Cu    0.16667   0.78645   0.25000   0.00000  Uiso   1.00
H685   H     0.15698   0.90577   0.03042   0.00000  Uiso   1.00
H686   H     0.15936   0.72215   0.15846   0.00000  Uiso   1.00
H687   H     0.12831   0.67666   0.14787   0.00000  Uiso   1.00
H688   H     0.30334   0.97492   0.35133   0.00000  Uiso   1.00
H689   H     0.25880   0.97771   0.38144   0.00000  Uiso   1.00
H690   H     0.29107   0.92865   0.38674   0.00000  Uiso   1.00
H691   H     0.27167   0.90257   0.31384   0.00000  Uiso   1.00
H692   H     0.22564   0.91472   0.33712   0.00000  Uiso   1.00
H693   H     0.24749   0.94712   0.25377   0.00000  Uiso   1.00
H694   H     0.26029   0.99216   0.28676   0.00000  Uiso   1.00
H695   H     0.22059   0.77141   0.39962   0.00000  Uiso   1.00
H696   H     0.13616   0.76842   0.46924   0.00000  Uiso   1.00
H697   H     0.24523   0.71713   0.41135   0.00000  Uiso   1.00
H698   H     0.27475   0.76643   0.39754   0.00000  Uiso   1.00
H699   H     0.26514   0.71610   0.33344   0.00000  Uiso   1.00
H700   H     0.23750   0.76783   0.32263   0.00000  Uiso   1.00
H701   H     0.17164   0.72285   0.34208   0.00000  Uiso   1.00
H702   H     0.20148   0.67653   0.35200   0.00000  Uiso   1.00
H703   H     0.02620   0.91908   0.15257   0.00000  Uiso   1.00
H704   H     0.04698   0.96889   0.12668   0.00000  Uiso   1.00
H705   H     0.05308   0.91206   0.10442   0.00000  Uiso   1.00
H706   H     0.11701   0.93536   0.14478   0.00000  Uiso   1.00
H707   H     0.19200   0.90216   0.47235   0.00000  Uiso   1.00
H708   H     0.09467   0.88960   0.17307   0.00000  Uiso   1.00
H709   H     0.08013   0.94139   0.23348   0.00000  Uiso   1.00
H710   H     0.07415   0.98595   0.20010   0.00000  Uiso   1.00
H711   H     0.16819   0.95309   0.09634   0.00000  Uiso   1.00
H712   H     0.10348   0.76952   0.34815   0.00000  Uiso   1.00
H713   H     0.19424   0.94776   0.40466   0.00000  Uiso   1.00
H714   H     0.22627   0.76239   0.15131   0.00000  Uiso   1.00
H715   H     0.03226   0.71568   0.23121   0.00000  Uiso   1.00
H716   H     0.27095   0.90441   0.19216   0.00000  Uiso   1.00
H717   H     0.29939   0.71748   0.27117   0.00000  Uiso   1.00
H718   H     0.19264   0.76442   0.03019   0.00000  Uiso   1.00
H719   H     0.06855   0.90589   0.30888   0.00000  Uiso   1.00
H720   H     0.11077   0.76301   0.09796   0.00000  Uiso   1.00
H721   H     0.07953   0.71144   0.09248   0.00000  Uiso   1.00
H722   H     0.05699   0.76589   0.10439   0.00000  Uiso   1.00
H723   H     0.06648   0.71896   0.17111   0.00000  Uiso   1.00
H724   H     0.09663   0.76995   0.17662   0.00000  Uiso   1.00
N725   N     0.16667   0.95069   0.25000   0.00000  Uiso   1.00
N726   N     0.16667   0.71598   0.25000   0.00000  Uiso   1.00
O727   O     0.10655   0.87291   0.24999   0.00000  Uiso   1.00
O728   O     0.10856   0.72671   0.39892   0.00000  Uiso   1.00
O729   O     0.14346   0.93714   0.36434   0.00000  Uiso   1.00
O730   O     0.21822   0.72104   0.09892   0.00000  Uiso   1.00
O731   O     0.06582   0.73116   0.28721   0.00000  Uiso   1.00
O732   O     0.31727   0.94566   0.21291   0.00000  Uiso   1.00
O733   O     0.26808   0.73077   0.21339   0.00000  Uiso   1.00
O734   O     0.01917   0.94391   0.29605   0.00000  Uiso   1.00
O735   O     0.22679   0.79375   0.25000   0.00000  Uiso   1.00
O736   O     0.22679   0.87291   0.25000   0.00000  Uiso   1.00
O737   O     0.10655   0.79375   0.24999   0.00000  Uiso   1.00
O738   O     0.16666   0.87293   0.18573   0.00000  Uiso   1.00
O739   O     0.16667   0.79374   0.31427   0.00000  Uiso   1.00
O740   O     0.16667   0.87293   0.31427   0.00000  Uiso   1.00
O741   O     0.16666   0.79374   0.18573   0.00000  Uiso   1.00
O742   O     0.20856   0.92986   0.14378   0.00000  Uiso   1.00
C743   C     0.42126   0.83274   0.25342   0.00000  Uiso   1.00
C744   C     0.64707   0.87146   0.24377   0.00000  Uiso   1.00
C745   C     0.64523   0.78796   0.24821   0.00000  Uiso   1.00
C746   C     0.35484   0.87110   0.26105   0.00000  Uiso   1.00
C747   C     0.49877   0.87451   0.04811   0.00000  Uiso   1.00
C748   C     0.48144   0.79710   0.45184   0.00000  Uiso   1.00
C749   C     0.51195   0.87279   0.45393   0.00000  Uiso   1.00
C750   C     0.51785   0.79466   0.04831   0.00000  Uiso   1.00
C751   C     0.50716   0.87673   0.09382   0.00000  Uiso   1.00
C752   C     0.47604   0.79833   0.40542   0.00000  Uiso   1.00
C753   C     0.50401   0.87616   0.40833   0.00000  Uiso   1.00
C754   C     0.57903   0.83294   0.24731   0.00000  Uiso   1.00
C755   C     0.52345   0.79539   0.09474   0.00000  Uiso   1.00
C756   C     0.51254   0.83520   0.11809   0.00000  Uiso   1.00
C757   C     0.49145   0.83630   0.38290   0.00000  Uiso   1.00
C758   C     0.50421   0.83372   0.02492   0.00000  Uiso   1.00
C759   C     0.50026   0.83379   0.47614   0.00000  Uiso   1.00
C760   C     0.62401   0.83064   0.24474   0.00000  Uiso   1.00
C761   C     0.37683   0.83023   0.25776   0.00000  Uiso   1.00
C762   C     0.46566   0.70676   0.17037   0.00000  Uiso   1.00
C763   C     0.42698   0.73616   0.16030   0.00000  Uiso   1.00
C764   C     0.41817   0.74455   0.11069   0.00000  Uiso   1.00
C765   C     0.50471   0.83358   0.16579   0.00000  Uiso   1.00
C766   C     0.57318   0.96196   0.28475   0.00000  Uiso   1.00
C767   C     0.58565   0.93068   0.32467   0.00000  Uiso   1.00
C768   C     0.61116   0.95482   0.36311   0.00000  Uiso   1.00
C769   C     0.53206   0.70709   0.33045   0.00000  Uiso   1.00
C770   C     0.57151   0.73568   0.34137   0.00000  Uiso   1.00
C771   C     0.57827   0.74827   0.39049   0.00000  Uiso   1.00
C772   C     0.42834   0.95678   0.20679   0.00000  Uiso   1.00
C773   C     0.42559   0.92642   0.16476   0.00000  Uiso   1.00
C774   C     0.38538   0.93223   0.13547   0.00000  Uiso   1.00
C775   C     0.51609   0.92342   0.11251   0.00000  Uiso   1.00
C776   C     0.49671   0.83390   0.33460   0.00000  Uiso   1.00
C777   C     0.44982   0.76294   0.38150   0.00000  Uiso   1.00
C778   C     0.50437   0.92351   0.39091   0.00000  Uiso   1.00
C779   C     0.54646   0.75757   0.11759   0.00000  Uiso   1.00
C780   C     0.37513   0.74178   0.25580   0.00000  Uiso   1.00
C781   C     0.63202   0.90929   0.21417   0.00000  Uiso   1.00
C782   C     0.62433   0.74237   0.24569   0.00000  Uiso   1.00
C783   C     0.37199   0.90918   0.29047   0.00000  Uiso   1.00
C784   C     0.47658   0.69030   0.21780   0.00000  Uiso   1.00
C785   C     0.52885   0.97649   0.27613   0.00000  Uiso   1.00
C786   C     0.52249   0.69087   0.28267   0.00000  Uiso   1.00
C787   C     0.47069   0.97553   0.22404   0.00000  Uiso   1.00
C788   C     0.35492   0.78768   0.25357   0.00000  Uiso   1.00
Cu789  Cu    0.50000   0.88022   0.25000   0.00000  Uiso   1.00
Cu790  Cu    0.50000   0.78645   0.25000   0.00000  Uiso   1.00
H791   H     0.49031   0.90577   0.03042   0.00000  Uiso   1.00
H792   H     0.49270   0.72215   0.15846   0.00000  Uiso   1.00
H793   H     0.46165   0.67666   0.14787   0.00000  Uiso   1.00
H794   H     0.63667   0.97492   0.35133   0.00000  Uiso   1.00
H795   H     0.59213   0.97771   0.38144   0.00000  Uiso   1.00
H796   H     0.62440   0.92865   0.38674   0.00000  Uiso   1.00
H797   H     0.60500   0.90257   0.31384   0.00000  Uiso   1.00
H798   H     0.55897   0.91472   0.33712   0.00000  Uiso   1.00
H799   H     0.58083   0.94712   0.25377   0.00000  Uiso   1.00
H800   H     0.59362   0.99216   0.28676   0.00000  Uiso   1.00
H801   H     0.55393   0.77141   0.39962   0.00000  Uiso   1.00
H802   H     0.46949   0.76842   0.46924   0.00000  Uiso   1.00
H803   H     0.57856   0.71713   0.41135   0.00000  Uiso   1.00
H804   H     0.60808   0.76643   0.39754   0.00000  Uiso   1.00
H805   H     0.59847   0.71610   0.33344   0.00000  Uiso   1.00
H806   H     0.57083   0.76783   0.32263   0.00000  Uiso   1.00
H807   H     0.50497   0.72285   0.34208   0.00000  Uiso   1.00
H808   H     0.53481   0.67653   0.35200   0.00000  Uiso   1.00
H809   H     0.35954   0.91908   0.15257   0.00000  Uiso   1.00
H810   H     0.38031   0.96889   0.12668   0.00000  Uiso   1.00
H811   H     0.38641   0.91206   0.10442   0.00000  Uiso   1.00
H812   H     0.45035   0.93536   0.14478   0.00000  Uiso   1.00
H813   H     0.52533   0.90216   0.47235   0.00000  Uiso   1.00
H814   H     0.42800   0.88960   0.17307   0.00000  Uiso   1.00
H815   H     0.41346   0.94139   0.23348   0.00000  Uiso   1.00
H816   H     0.40748   0.98595   0.20010   0.00000  Uiso   1.00
H817   H     0.50152   0.95309   0.09634   0.00000  Uiso   1.00
H818   H     0.43682   0.76952   0.34815   0.00000  Uiso   1.00
H819   H     0.52757   0.94776   0.40466   0.00000  Uiso   1.00
H820   H     0.55961   0.76239   0.15131   0.00000  Uiso   1.00
H821   H     0.36560   0.71568   0.23121   0.00000  Uiso   1.00
H822   H     0.60428   0.90441   0.19216   0.00000  Uiso   1.00
H823   H     0.63272   0.71748   0.27117   0.00000  Uiso   1.00
H824   H     0.52597   0.76442   0.03019   0.00000  Uiso   1.00
H825   H     0.40188   0.90589   0.30888   0.00000  Uiso   1.00
H826   H     0.44410   0.76301   0.09796   0.00000  Uiso   1.00
H827   H     0.41286   0.71144   0.09248   0.00000  Uiso   1.00
H828   H     0.39032   0.76589   0.10439   0.00000  Uiso   1.00
H829   H     0.39981   0.71896   0.17111   0.00000  Uiso   1.00
H830   H     0.42997   0.76995   0.17662   0.00000  Uiso   1.00
N831   N     0.50000   0.95069   0.25000   0.00000  Uiso   1.00
N832   N     0.50000   0.71598   0.25000   0.00000  Uiso   1.00
O833   O     0.43988   0.87291   0.24999   0.00000  Uiso   1.00
O834   O     0.44190   0.72671   0.39892   0.00000  Uiso   1.00
O835   O     0.47680   0.93714   0.36434   0.00000  Uiso   1.00
O836   O     0.55155   0.72104   0.09892   0.00000  Uiso   1.00
O837   O     0.39916   0.73116   0.28721   0.00000  Uiso   1.00
O838   O     0.65060   0.94566   0.21291   0.00000  Uiso   1.00
O839   O     0.60141   0.73077   0.21339   0.00000  Uiso   1.00
O840   O     0.35250   0.94391   0.29605   0.00000  Uiso   1.00
O841   O     0.56012   0.79375   0.25000   0.00000  Uiso   1.00
O842   O     0.56012   0.87291   0.25000   0.00000  Uiso   1.00
O843   O     0.43988   0.79375   0.24999   0.00000  Uiso   1.00
O844   O     0.50000   0.87293   0.18573   0.00000  Uiso   1.00
O845   O     0.50000   0.79374   0.31427   0.00000  Uiso   1.00
O846   O     0.50000   0.87293   0.31427   0.00000  Uiso   1.00
O847   O     0.50000   0.79374   0.18573   0.00000  Uiso   1.00
O848   O     0.54189   0.92986   0.14378   0.00000  Uiso   1.00
C849   C     0.75460   0.83274   0.25342   0.00000  Uiso   1.00
C850   C     0.98040   0.87146   0.24377   0.00000  Uiso   1.00
C851   C     0.97857   0.78796   0.24821   0.00000  Uiso   1.00
C852   C     0.68817   0.87110   0.26105   0.00000  Uiso   1.00
C853   C     0.83210   0.87451   0.04811   0.00000  Uiso   1.00
C854   C     0.81478   0.79710   0.45184   0.00000  Uiso   1.00
C855   C     0.84528   0.87279   0.45393   0.00000  Uiso   1.00
C856   C     0.85118   0.79466   0.04831   0.00000  Uiso   1.00
C857   C     0.84049   0.87673   0.09382   0.00000  Uiso   1.00
C858   C     0.80938   0.79833   0.40542   0.00000  Uiso   1.00
C859   C     0.83734   0.87616   0.40833   0.00000  Uiso   1.00
C860   C     0.91237   0.83294   0.24731   0.00000  Uiso   1.00
C861   C     0.85679   0.79539   0.09474   0.00000  Uiso   1.00
C862   C     0.84587   0.83520   0.11809   0.00000  Uiso   1.00
C863   C     0.82478   0.83630   0.38290   0.00000  Uiso   1.00
C864   C     0.83754   0.83372   0.02492   0.00000  Uiso   1.00
C865   C     0.83360   0.83379   0.47614   0.00000  Uiso   1.00
C866   C     0.95734   0.83064   0.24474   0.00000  Uiso   1.00
C867   C     0.71016   0.83023   0.25776   0.00000  Uiso   1.00
C868   C     0.79900   0.70676   0.17037   0.00000  Uiso   1.00
C869   C     0.76032   0.73616   0.16030   0.00000  Uiso   1.00
C870   C     0.75150   0.74455   0.11069   0.00000  Uiso   1.00
C871   C     0.83804   0.83358   0.16579   0.00000  Uiso   1.00
C872   C     0.90651   0.96196   0.28475   0.00000  Uiso   1.00
C873   C     0.91898   0.93068   0.32467   0.00000  Uiso   1.00
C874   C     0.94450   0.95482   0.36311   0.00000  Uiso   1.00
C875   C     0.86539   0.70709   0.33045   0.00000  Uiso   1.00
C876   C     0.90485   0.73568   0.34137   0.00000  Uiso   1.00
C877   C     0.91161   0.74827   0.39049   0.00000  Uiso   1.00
C878   C     0.76167   0.95678   0.20679   0.00000  Uiso   1.00
C879   C     0.75893   0.92642   0.16476   0.00000  Uiso   1.00
C880   C     0.71871   0.93223   0.13547   0.00000  Uiso   1.00
C881   C     0.84943   0.92342   0.11251   0.00000  Uiso   1.00
C882   C     0.83004   0.83390   0.33460   0.00000  Uiso   1.00
C883   C     0.78315   0.76294   0.38150   0.00000  Uiso   1.00
C884   C     0.83771   0.92351   0.39091   0.00000  Uiso   1.00
C885   C     0.87979   0.75757   0.11759   0.00000  Uiso   1.00
C886   C     0.70846   0.74178   0.25580   0.00000  Uiso   1.00
C887   C     0.96535   0.90929   0.21417   0.00000  Uiso   1.00
C888   C     0.95767   0.74237   0.24569   0.00000  Uiso   1.00
C889   C     0.70533   0.90918   0.29047   0.00000  Uiso   1.00
C890   C     0.80991   0.69030   0.21780   0.00000  Uiso   1.00
C891   C     0.86219   0.97649   0.27613   0.00000  Uiso   1.00
C892   C     0.85582   0.69087   0.28267   0.00000  Uiso   1.00
C893   C     0.80403   0.97553   0.22404   0.00000  Uiso   1.00
C894   C     0.68825   0.78768   0.25357   0.00000  Uiso   1.00
Cu895  Cu    0.83333   0.88022   0.25000   0.00000  Uiso   1.00
Cu896  Cu    0.83333   0.78645   0.25000   0.00000  Uiso   1.00
H897   H     0.82365   0.90577   0.03042   0.00000  Uiso   1.00
H898   H     0.82603   0.72215   0.15846   0.00000  Uiso   1.00
H899   H     0.79498   0.67666   0.14787   0.00000  Uiso   1.00
H900   H     0.97001   0.97492   0.35133   0.00000  Uiso   1.00
H901   H     0.92547   0.97771   0.38144   0.00000  Uiso   1.00
H902   H     0.95773   0.92865   0.38674   0.00000  Uiso   1.00
H903   H     0.93833   0.90257   0.31384   0.00000  Uiso   1.00
H904   H     0.89230   0.91472   0.33712   0.00000  Uiso   1.00
H905   H     0.91416   0.94712   0.25377   0.00000  Uiso   1.00
H906   H     0.92695   0.99216   0.28676   0.00000  Uiso   1.00
H907   H     0.88726   0.77141   0.39962   0.00000  Uiso   1.00
H908   H     0.80283   0.76842   0.46924   0.00000  Uiso   1.00
H909   H     0.91189   0.71713   0.41135   0.00000  Uiso   1.00
H910   H     0.94141   0.76643   0.39754   0.00000  Uiso   1.00
H911   H     0.93180   0.71610   0.33344   0.00000  Uiso   1.00
H912   H     0.90417   0.76783   0.32263   0.00000  Uiso   1.00
H913   H     0.83830   0.72285   0.34208   0.00000  Uiso   1.00
H914   H     0.86814   0.67653   0.35200   0.00000  Uiso   1.00
H915   H     0.69287   0.91908   0.15257   0.00000  Uiso   1.00
H916   H     0.71364   0.96889   0.12668   0.00000  Uiso   1.00
H917   H     0.71975   0.91206   0.10442   0.00000  Uiso   1.00
H918   H     0.78368   0.93536   0.14478   0.00000  Uiso   1.00
H919   H     0.85866   0.90216   0.47235   0.00000  Uiso   1.00
H920   H     0.76133   0.88960   0.17307   0.00000  Uiso   1.00
H921   H     0.74680   0.94139   0.23348   0.00000  Uiso   1.00
H922   H     0.74081   0.98595   0.20010   0.00000  Uiso   1.00
H923   H     0.83486   0.95309   0.09634   0.00000  Uiso   1.00
H924   H     0.77015   0.76952   0.34815   0.00000  Uiso   1.00
H925   H     0.86091   0.94776   0.40466   0.00000  Uiso   1.00
H926   H     0.89294   0.76239   0.15131   0.00000  Uiso   1.00
H927   H     0.69893   0.71568   0.23121   0.00000  Uiso   1.00
H928   H     0.93761   0.90441   0.19216   0.00000  Uiso   1.00
H929   H     0.96605   0.71748   0.27117   0.00000  Uiso   1.00
H930   H     0.85930   0.76442   0.03019   0.00000  Uiso   1.00
H931   H     0.73522   0.90589   0.30888   0.00000  Uiso   1.00
H932   H     0.77743   0.76301   0.09796   0.00000  Uiso   1.00
H933   H     0.74619   0.71144   0.09248   0.00000  Uiso   1.00
H934   H     0.72365   0.76589   0.10439   0.00000  Uiso   1.00
H935   H     0.73314   0.71896   0.17111   0.00000  Uiso   1.00
H936   H     0.76330   0.76995   0.17662   0.00000  Uiso   1.00
N937   N     0.83333   0.95069   0.25000   0.00000  Uiso   1.00
N938   N     0.83333   0.71598   0.25000   0.00000  Uiso   1.00
O939   O     0.77321   0.87291   0.24999   0.00000  Uiso   1.00
O940   O     0.77523   0.72671   0.39892   0.00000  Uiso   1.00
O941   O     0.81013   0.93714   0.36434   0.00000  Uiso   1.00
O942   O     0.88488   0.72104   0.09892   0.00000  Uiso   1.00
O943   O     0.73249   0.73116   0.28721   0.00000  Uiso   1.00
O944   O     0.98393   0.94566   0.21291   0.00000  Uiso   1.00
O945   O     0.93475   0.73077   0.21339   0.00000  Uiso   1.00
O946   O     0.68584   0.94391   0.29605   0.00000  Uiso   1.00
O947   O     0.89345   0.79375   0.25000   0.00000  Uiso   1.00
O948   O     0.89345   0.87291   0.25000   0.00000  Uiso   1.00
O949   O     0.77321   0.79375   0.24999   0.00000  Uiso   1.00
O950   O     0.83333   0.87293   0.18573   0.00000  Uiso   1.00
O951   O     0.83334   0.79374   0.31427   0.00000  Uiso   1.00
O952   O     0.83334   0.87293   0.31427   0.00000  Uiso   1.00
O953   O     0.83333   0.79374   0.18573   0.00000  Uiso   1.00
O954   O     0.87523   0.92986   0.14378   0.00000  Uiso   1.00
C955   C     0.08793   0.16607   0.75342   0.00000  Uiso   1.00
C956   C     0.31374   0.20480   0.74377   0.00000  Uiso   1.00
C957   C     0.31190   0.12129   0.74821   0.00000  Uiso   1.00
C958   C     0.02151   0.20444   0.76105   0.00000  Uiso   1.00
C959   C     0.16543   0.20785   0.54811   0.00000  Uiso   1.00
C960   C     0.14811   0.13043   0.95184   0.00000  Uiso   1.00
C961   C     0.17861   0.20612   0.95393   0.00000  Uiso   1.00
C962   C     0.18451   0.12800   0.54831   0.00000  Uiso   1.00
C963   C     0.17382   0.21007   0.59382   0.00000  Uiso   1.00
C964   C     0.14271   0.13166   0.90542   0.00000  Uiso   1.00
C965   C     0.17068   0.20949   0.90833   0.00000  Uiso   1.00
C966   C     0.24570   0.16627   0.74731   0.00000  Uiso   1.00
C967   C     0.19012   0.12873   0.59474   0.00000  Uiso   1.00
C968   C     0.17920   0.16853   0.61809   0.00000  Uiso   1.00
C969   C     0.15812   0.16963   0.88290   0.00000  Uiso   1.00
C970   C     0.17087   0.16705   0.52492   0.00000  Uiso   1.00
C971   C     0.16693   0.16712   0.97614   0.00000  Uiso   1.00
C972   C     0.29067   0.16397   0.74474   0.00000  Uiso   1.00
C973   C     0.04350   0.16356   0.75776   0.00000  Uiso   1.00
C974   C     0.13233   0.04010   0.67037   0.00000  Uiso   1.00
C975   C     0.09365   0.06949   0.66030   0.00000  Uiso   1.00
C976   C     0.08483   0.07788   0.61069   0.00000  Uiso   1.00
C977   C     0.17138   0.16691   0.66579   0.00000  Uiso   1.00
C978   C     0.23984   0.29530   0.78475   0.00000  Uiso   1.00
C979   C     0.25232   0.26402   0.82467   0.00000  Uiso   1.00
C980   C     0.27783   0.28815   0.86311   0.00000  Uiso   1.00
C981   C     0.19873   0.04042   0.83045   0.00000  Uiso   1.00
C982   C     0.23818   0.06901   0.84137   0.00000  Uiso   1.00
C983   C     0.24494   0.08161   0.89049   0.00000  Uiso   1.00
C984   C     0.09501   0.29011   0.70679   0.00000  Uiso   1.00
C985   C     0.09226   0.25976   0.66476   0.00000  Uiso   1.00
C986   C     0.05205   0.26556   0.63547   0.00000  Uiso   1.00
C987   C     0.18276   0.25675   0.61251   0.00000  Uiso   1.00
C988   C     0.16338   0.16723   0.83460   0.00000  Uiso   1.00
C989   C     0.11649   0.09627   0.88150   0.00000  Uiso   1.00
C990   C     0.17104   0.25684   0.89091   0.00000  Uiso   1.00
C991   C     0.21313   0.09091   0.61759   0.00000  Uiso   1.00
C992   C     0.04179   0.07512   0.75580   0.00000  Uiso   1.00
C993   C     0.29868   0.24263   0.71417   0.00000  Uiso   1.00
C994   C     0.29100   0.07571   0.74569   0.00000  Uiso   1.00
C995   C     0.03866   0.24252   0.79047   0.00000  Uiso   1.00
C996   C     0.14324   0.02364   0.71780   0.00000  Uiso   1.00
C997   C     0.19552   0.30982   0.77613   0.00000  Uiso   1.00
C998   C     0.18916   0.02421   0.78267   0.00000  Uiso   1.00
C999   C     0.13736   0.30886   0.72404   0.00000  Uiso   1.00
C1000  C     0.02158   0.12102   0.75357   0.00000  Uiso   1.00
Cu1001 Cu    0.16667   0.21355   0.75000   0.00000  Uiso   1.00
Cu1002 Cu    0.16667   0.11978   0.75000   0.00000  Uiso   1.00
H1003  H     0.15698   0.23910   0.53042   0.00000  Uiso   1.00
H1004  H     0.15936   0.05548   0.65846   0.00000  Uiso   1.00
H1005  H     0.12831   0.00999   0.64787   0.00000  Uiso   1.00
H1006  H     0.30334   0.30825   0.85133   0.00000  Uiso   1.00
H1007  H     0.25880   0.31105   0.88144   0.00000  Uiso   1.00
H1008  H     0.29107   0.26198   0.88674   0.00000  Uiso   1.00
H1009  H     0.27167   0.23590   0.81384   0.00000  Uiso   1.00
H1010  H     0.22564   0.24805   0.83712   0.00000  Uiso   1.00
H1011  H     0.24749   0.28045   0.75377   0.00000  Uiso   1.00
H1012  H     0.26029   0.32549   0.78676   0.00000  Uiso   1.00
H1013  H     0.22059   0.10474   0.89962   0.00000  Uiso   1.00
H1014  H     0.13616   0.10175   0.96924   0.00000  Uiso   1.00
H1015  H     0.24523   0.05046   0.91135   0.00000  Uiso   1.00
H1016  H     0.27475   0.09976   0.89754   0.00000  Uiso   1.00
H1017  H     0.26514   0.04943   0.83344   0.00000  Uiso   1.00
H1018  H     0.23750   0.10117   0.82263   0.00000  Uiso   1.00
H1019  H     0.17164   0.05619   0.84208   0.00000  Uiso   1.00
H1020  H     0.20148   0.00986   0.85200   0.00000  Uiso   1.00
H1021  H     0.02620   0.25241   0.65257   0.00000  Uiso   1.00
H1022  H     0.04698   0.30222   0.62668   0.00000  Uiso   1.00
H1023  H     0.05308   0.24539   0.60442   0.00000  Uiso   1.00
H1024  H     0.11701   0.26869   0.64478   0.00000  Uiso   1.00
H1025  H     0.19200   0.23549   0.97235   0.00000  Uiso   1.00
H1026  H     0.09467   0.22294   0.67307   0.00000  Uiso   1.00
H1027  H     0.08013   0.27472   0.73348   0.00000  Uiso   1.00
H1028  H     0.07415   0.31929   0.70010   0.00000  Uiso   1.00
H1029  H     0.16819   0.28642   0.59634   0.00000  Uiso   1.00
H1030  H     0.10348   0.10285   0.84815   0.00000  Uiso   1.00
H1031  H     0.19424   0.28109   0.90466   0.00000  Uiso   1.00
H1032  H     0.22627   0.09572   0.65131   0.00000  Uiso   1.00
H1033  H     0.03226   0.04901   0.73121   0.00000  Uiso   1.00
H1034  H     0.27095   0.23774   0.69216   0.00000  Uiso   1.00
H1035  H     0.29939   0.05081   0.77117   0.00000  Uiso   1.00
H1036  H     0.19264   0.09775   0.53019   0.00000  Uiso   1.00
H1037  H     0.06855   0.23922   0.80888   0.00000  Uiso   1.00
H1038  H     0.11077   0.09634   0.59796   0.00000  Uiso   1.00
H1039  H     0.07953   0.04477   0.59248   0.00000  Uiso   1.00
H1040  H     0.05699   0.09922   0.60439   0.00000  Uiso   1.00
H1041  H     0.06648   0.05229   0.67111   0.00000  Uiso   1.00
H1042  H     0.09663   0.10328   0.67662   0.00000  Uiso   1.00
N1043  N     0.16667   0.28402   0.75000   0.00000  Uiso   1.00
N1044  N     0.16667   0.04931   0.75000   0.00000  Uiso   1.00
O1045  O     0.10655   0.20625   0.74999   0.00000  Uiso   1.00
O1046  O     0.10856   0.06004   0.89892   0.00000  Uiso   1.00
O1047  O     0.14346   0.27048   0.86434   0.00000  Uiso   1.00
O1048  O     0.21822   0.05437   0.59892   0.00000  Uiso   1.00
O1049  O     0.06582   0.06449   0.78721   0.00000  Uiso   1.00
O1050  O     0.31727   0.27900   0.71291   0.00000  Uiso   1.00
O1051  O     0.26808   0.06410   0.71339   0.00000  Uiso   1.00
O1052  O     0.01917   0.27724   0.79605   0.00000  Uiso   1.00
O1053  O     0.22679   0.12709   0.75000   0.00000  Uiso   1.00
O1054  O     0.22679   0.20625   0.75000   0.00000  Uiso   1.00
O1055  O     0.10655   0.12709   0.74999   0.00000  Uiso   1.00
O1056  O     0.16666   0.20626   0.68573   0.00000  Uiso   1.00
O1057  O     0.16667   0.12707   0.81427   0.00000  Uiso   1.00
O1058  O     0.16667   0.20626   0.81427   0.00000  Uiso   1.00
O1059  O     0.16666   0.12707   0.68573   0.00000  Uiso   1.00
O1060  O     0.20856   0.26319   0.64378   0.00000  Uiso   1.00
C1061  C     0.42126   0.16607   0.75342   0.00000  Uiso   1.00
C1062  C     0.64707   0.20480   0.74377   0.00000  Uiso   1.00
C1063  C     0.64523   0.12129   0.74821   0.00000  Uiso   1.00
C1064  C     0.35484   0.20444   0.76105   0.00000  Uiso   1.00
C1065  C     0.49877   0.20785   0.54811   0.00000  Uiso   1.00
C1066  C     0.48144   0.13043   0.95184   0.00000  Uiso   1.00
C1067  C     0.51195   0.20612   0.95393   0.00000  Uiso   1.00
C1068  C     0.51785   0.12800   0.54831   0.00000  Uiso   1.00
C1069  C     0.50716   0.21007   0.59382   0.00000  Uiso   1.00
C1070  C     0.47604   0.13166   0.90542   0.00000  Uiso   1.00
C1071  C     0.50401   0.20949   0.90833   0.00000  Uiso   1.00
C1072  C     0.57903   0.16627   0.74731   0.00000  Uiso   1.00
C1073  C     0.52345   0.12873   0.59474   0.00000  Uiso   1.00
C1074  C     0.51254   0.16853   0.61809   0.00000  Uiso   1.00
C1075  C     0.49145   0.16963   0.88290   0.00000  Uiso   1.00
C1076  C     0.50421   0.16705   0.52492   0.00000  Uiso   1.00
C1077  C     0.50026   0.16712   0.97614   0.00000  Uiso   1.00
C1078  C     0.62401   0.16397   0.74474   0.00000  Uiso   1.00
C1079  C     0.37683   0.16356   0.75776   0.00000  Uiso   1.00
C1080  C     0.46566   0.04010   0.67037   0.00000  Uiso   1.00
C1081  C     0.42698   0.06949   0.66030   0.00000  Uiso   1.00
C1082  C     0.41817   0.07788   0.61069   0.00000  Uiso   1.00
C1083  C     0.50471   0.16691   0.66579   0.00000  Uiso   1.00
C1084  C     0.57318   0.29530   0.78475   0.00000  Uiso   1.00
C1085  C     0.58565   0.26402   0.82467   0.00000  Uiso   1.00
C1086  C     0.61116   0.28815   0.86311   0.00000  Uiso   1.00
C1087  C     0.53206   0.04042   0.83045   0.00000  Uiso   1.00
C1088  C     0.57151   0.06901   0.84137   0.00000  Uiso   1.00
C1089  C     0.57827   0.08161   0.89049   0.00000  Uiso   1.00
C1090  C     0.42834   0.29011   0.70679   0.00000  Uiso   1.00
C1091  C     0.42559   0.25976   0.66476   0.00000  Uiso   1.00
C1092  C     0.38538   0.26556   0.63547   0.00000  Uiso   1.00
C1093  C     0.51609   0.25675   0.61251   0.00000  Uiso   1.00
C1094  C     0.49671   0.16723   0.83460   0.00000  Uiso   1.00
C1095  C     0.44982   0.09627   0.88150   0.00000  Uiso   1.00
C1096  C     0.50437   0.25684   0.89091   0.00000  Uiso   1.00
C1097  C     0.54646   0.09091   0.61759   0.00000  Uiso   1.00
C1098  C     0.37513   0.07512   0.75580   0.00000  Uiso   1.00
C1099  C     0.63202   0.24263   0.71417   0.00000  Uiso   1.00
C1100  C     0.62433   0.07571   0.74569   0.00000  Uiso   1.00
C1101  C     0.37199   0.24252   0.79047   0.00000  Uiso   1.00
C1102  C     0.47658   0.02364   0.71780   0.00000  Uiso   1.00
C1103  C     0.52885   0.30982   0.77613   0.00000  Uiso   1.00
C1104  C     0.52249   0.02421   0.78267   0.00000  Uiso   1.00
C1105  C     0.47069   0.30886   0.72404   0.00000  Uiso   1.00
C1106  C     0.35492   0.12102   0.75357   0.00000  Uiso   1.00
Cu1107 Cu    0.50000   0.21355   0.75000   0.00000  Uiso   1.00
Cu1108 Cu    0.50000   0.11978   0.75000   0.00000  Uiso   1.00
H1109  H     0.49031   0.23910   0.53042   0.00000  Uiso   1.00
H1110  H     0.49270   0.05548   0.65846   0.00000  Uiso   1.00
H1111  H     0.46165   0.00999   0.64787   0.00000  Uiso   1.00
H1112  H     0.63667   0.30825   0.85133   0.00000  Uiso   1.00
H1113  H     0.59213   0.31105   0.88144   0.00000  Uiso   1.00
H1114  H     0.62440   0.26198   0.88674   0.00000  Uiso   1.00
H1115  H     0.60500   0.23590   0.81384   0.00000  Uiso   1.00
H1116  H     0.55897   0.24805   0.83712   0.00000  Uiso   1.00
H1117  H     0.58083   0.28045   0.75377   0.00000  Uiso   1.00
H1118  H     0.59362   0.32549   0.78676   0.00000  Uiso   1.00
H1119  H     0.55393   0.10474   0.89962   0.00000  Uiso   1.00
H1120  H     0.46949   0.10175   0.96924   0.00000  Uiso   1.00
H1121  H     0.57856   0.05046   0.91135   0.00000  Uiso   1.00
H1122  H     0.60808   0.09976   0.89754   0.00000  Uiso   1.00
H1123  H     0.59847   0.04943   0.83344   0.00000  Uiso   1.00
H1124  H     0.57083   0.10117   0.82263   0.00000  Uiso   1.00
H1125  H     0.50497   0.05619   0.84208   0.00000  Uiso   1.00
H1126  H     0.53481   0.00986   0.85200   0.00000  Uiso   1.00
H1127  H     0.35954   0.25241   0.65257   0.00000  Uiso   1.00
H1128  H     0.38031   0.30222   0.62668   0.00000  Uiso   1.00
H1129  H     0.38641   0.24539   0.60442   0.00000  Uiso   1.00
H1130  H     0.45035   0.26869   0.64478   0.00000  Uiso   1.00
H1131  H     0.52533   0.23549   0.97235   0.00000  Uiso   1.00
H1132  H     0.42800   0.22294   0.67307   0.00000  Uiso   1.00
H1133  H     0.41346   0.27472   0.73348   0.00000  Uiso   1.00
H1134  H     0.40748   0.31929   0.70010   0.00000  Uiso   1.00
H1135  H     0.50152   0.28642   0.59634   0.00000  Uiso   1.00
H1136  H     0.43682   0.10285   0.84815   0.00000  Uiso   1.00
H1137  H     0.52757   0.28109   0.90466   0.00000  Uiso   1.00
H1138  H     0.55961   0.09572   0.65131   0.00000  Uiso   1.00
H1139  H     0.36560   0.04901   0.73121   0.00000  Uiso   1.00
H1140  H     0.60428   0.23774   0.69216   0.00000  Uiso   1.00
H1141  H     0.63272   0.05081   0.77117   0.00000  Uiso   1.00
H1142  H     0.52597   0.09775   0.53019   0.00000  Uiso   1.00
H1143  H     0.40188   0.23922   0.80888   0.00000  Uiso   1.00
H1144  H     0.44410   0.09634   0.59796   0.00000  Uiso   1.00
H1145  H     0.41286   0.04477   0.59248   0.00000  Uiso   1.00
H1146  H     0.39032   0.09922   0.60439   0.00000  Uiso   1.00
H1147  H     0.39981   0.05229   0.67111   0.00000  Uiso   1.00
H1148  H     0.42997   0.10328   0.67662   0.00000  Uiso   1.00
N1149  N     0.50000   0.28402   0.75000   0.00000  Uiso   1.00
N1150  N     0.50000   0.04931   0.75000   0.00000  Uiso   1.00
O1151  O     0.43988   0.20625   0.74999   0.00000  Uiso   1.00
O1152  O     0.44190   0.06004   0.89892   0.00000  Uiso   1.00
O1153  O     0.47680   0.27048   0.86434   0.00000  Uiso   1.00
O1154  O     0.55155   0.05437   0.59892   0.00000  Uiso   1.00
O1155  O     0.39916   0.06449   0.78721   0.00000  Uiso   1.00
O1156  O     0.65060   0.27900   0.71291   0.00000  Uiso   1.00
O1157  O     0.60141   0.06410   0.71339   0.00000  Uiso   1.00
O1158  O     0.35250   0.27724   0.79605   0.00000  Uiso   1.00
O1159  O     0.56012   0.12709   0.75000   0.00000  Uiso   1.00
O1160  O     0.56012   0.20625   0.75000   0.00000  Uiso   1.00
O1161  O     0.43988   0.12709   0.74999   0.00000  Uiso   1.00
O1162  O     0.50000   0.20626   0.68573   0.00000  Uiso   1.00
O1163  O     0.50000   0.12707   0.81427   0.00000  Uiso   1.00
O1164  O     0.50000   0.20626   0.81427   0.00000  Uiso   1.00
O1165  O     0.50000   0.12707   0.68573   0.00000  Uiso   1.00
O1166  O     0.54189   0.26319   0.64378   0.00000  Uiso   1.00
C1167  C     0.75460   0.16607   0.75342   0.00000  Uiso   1.00
C1168  C     0.98040   0.20480   0.74377   0.00000  Uiso   1.00
C1169  C     0.97857   0.12129   0.74821   0.00000  Uiso   1.00
C1170  C     0.68817   0.20444   0.76105   0.00000  Uiso   1.00
C1171  C     0.83210   0.20785   0.54811   0.00000  Uiso   1.00
C1172  C     0.81478   0.13043   0.95184   0.00000  Uiso   1.00
C1173  C     0.84528   0.20612   0.95393   0.00000  Uiso   1.00
C1174  C     0.85118   0.12800   0.54831   0.00000  Uiso   1.00
C1175  C     0.84049   0.21007   0.59382   0.00000  Uiso   1.00
C1176  C     0.80938   0.13166   0.90542   0.00000  Uiso   1.00
C1177  C     0.83734   0.20949   0.90833   0.00000  Uiso   1.00
C1178  C     0.91237   0.16627   0.74731   0.00000  Uiso   1.00
C1179  C     0.85679   0.12873   0.59474   0.00000  Uiso   1.00
C1180  C     0.84587   0.16853   0.61809   0.00000  Uiso   1.00
C1181  C     0.82478   0.16963   0.88290   0.00000  Uiso   1.00
C1182  C     0.83754   0.16705   0.52492   0.00000  Uiso   1.00
C1183  C     0.83360   0.16712   0.97614   0.00000  Uiso   1.00
C1184  C     0.95734   0.16397   0.74474   0.00000  Uiso   1.00
C1185  C     0.71016   0.16356   0.75776   0.00000  Uiso   1.00
C1186  C     0.79900   0.04010   0.67037   0.00000  Uiso   1.00
C1187  C     0.76032   0.06949   0.66030   0.00000  Uiso   1.00
C1188  C     0.75150   0.07788   0.61069   0.00000  Uiso   1.00
C1189  C     0.83804   0.16691   0.66579   0.00000  Uiso   1.00
C1190  C     0.90651   0.29530   0.78475   0.00000  Uiso   1.00
C1191  C     0.91898   0.26402   0.82467   0.00000  Uiso   1.00
C1192  C     0.94450   0.28815   0.86311   0.00000  Uiso   1.00
C1193  C     0.86539   0.04042   0.83045   0.00000  Uiso   1.00
C1194  C     0.90485   0.06901   0.84137   0.00000  Uiso   1.00
C1195  C     0.91161   0.08161   0.89049   0.00000  Uiso   1.00
C1196  C     0.76167   0.29011   0.70679   0.00000  Uiso   1.00
C1197  C     0.75893   0.25976   0.66476   0.00000  Uiso   1.00
C1198  C     0.71871   0.26556   0.63547   0.00000  Uiso   1.00
C1199  C     0.84943   0.25675   0.61251   0.00000  Uiso   1.00
C1200  C     0.83004   0.16723   0.83460   0.00000  Uiso   1.00
C1201  C     0.78315   0.09627   0.88150   0.00000  Uiso   1.00
C1202  C     0.83771   0.25684   0.89091   0.00000  Uiso   1.00
C1203  C     0.87979   0.09091   0.61759   0.00000  Uiso   1.00
C1204  C     0.70846   0.07512   0.75580   0.00000  Uiso   1.00
C1205  C     0.96535   0.24263   0.71417   0.00000  Uiso   1.00
C1206  C     0.95767   0.07571   0.74569   0.00000  Uiso   1.00
C1207  C     0.70533   0.24252   0.79047   0.00000  Uiso   1.00
C1208  C     0.80991   0.02364   0.71780   0.00000  Uiso   1.00
C1209  C     0.86219   0.30982   0.77613   0.00000  Uiso   1.00
C1210  C     0.85582   0.02421   0.78267   0.00000  Uiso   1.00
C1211  C     0.80403   0.30886   0.72404   0.00000  Uiso   1.00
C1212  C     0.68825   0.12102   0.75357   0.00000  Uiso   1.00
Cu1213 Cu    0.83333   0.21355   0.75000   0.00000  Uiso   1.00
Cu1214 Cu    0.83333   0.11978   0.75000   0.00000  Uiso   1.00
H1215  H     0.82365   0.23910   0.53042   0.00000  Uiso   1.00
H1216  H     0.82603   0.05548   0.65846   0.00000  Uiso   1.00
H1217  H     0.79498   0.00999   0.64787   0.00000  Uiso   1.00
H1218  H     0.97001   0.30825   0.85133   0.00000  Uiso   1.00
H1219  H     0.92547   0.31105   0.88144   0.00000  Uiso   1.00
H1220  H     0.95773   0.26198   0.88674   0.00000  Uiso   1.00
H1221  H     0.93833   0.23590   0.81384   0.00000  Uiso   1.00
H1222  H     0.89230   0.24805   0.83712   0.00000  Uiso   1.00
H1223  H     0.91416   0.28045   0.75377   0.00000  Uiso   1.00
H1224  H     0.92695   0.32549   0.78676   0.00000  Uiso   1.00
H1225  H     0.88726   0.10474   0.89962   0.00000  Uiso   1.00
H1226  H     0.80283   0.10175   0.96924   0.00000  Uiso   1.00
H1227  H     0.91189   0.05046   0.91135   0.00000  Uiso   1.00
H1228  H     0.94141   0.09976   0.89754   0.00000  Uiso   1.00
H1229  H     0.93180   0.04943   0.83344   0.00000  Uiso   1.00
H1230  H     0.90417   0.10117   0.82263   0.00000  Uiso   1.00
H1231  H     0.83830   0.05619   0.84208   0.00000  Uiso   1.00
H1232  H     0.86814   0.00986   0.85200   0.00000  Uiso   1.00
H1233  H     0.69287   0.25241   0.65257   0.00000  Uiso   1.00
H1234  H     0.71364   0.30222   0.62668   0.00000  Uiso   1.00
H1235  H     0.71975   0.24539   0.60442   0.00000  Uiso   1.00
H1236  H     0.78368   0.26869   0.64478   0.00000  Uiso   1.00
H1237  H     0.85866   0.23549   0.97235   0.00000  Uiso   1.00
H1238  H     0.76133   0.22294   0.67307   0.00000  Uiso   1.00
H1239  H     0.74680   0.27472   0.73348   0.00000  Uiso   1.00
H1240  H     0.74081   0.31929   0.70010   0.00000  Uiso   1.00
H1241  H     0.83486   0.28642   0.59634   0.00000  Uiso   1.00
H1242  H     0.77015   0.10285   0.84815   0.00000  Uiso   1.00
H1243  H     0.86091   0.28109   0.90466   0.00000  Uiso   1.00
H1244  H     0.89294   0.09572   0.65131   0.00000  Uiso   1.00
H1245  H     0.69893   0.04901   0.73121   0.00000  Uiso   1.00
H1246  H     0.93761   0.23774   0.69216   0.00000  Uiso   1.00
H1247  H     0.96605   0.05081   0.77117   0.00000  Uiso   1.00
H1248  H     0.85930   0.09775   0.53019   0.00000  Uiso   1.00
H1249  H     0.73522   0.23922   0.80888   0.00000  Uiso   1.00
H1250  H     0.77743   0.09634   0.59796   0.00000  Uiso   1.00
H1251  H     0.74619   0.04477   0.59248   0.00000  Uiso   1.00
H1252  H     0.72365   0.09922   0.60439   0.00000  Uiso   1.00
H1253  H     0.73314   0.05229   0.67111   0.00000  Uiso   1.00
H1254  H     0.76330   0.10328   0.67662   0.00000  Uiso   1.00
N1255  N     0.83333   0.28402   0.75000   0.00000  Uiso   1.00
N1256  N     0.83333   0.04931   0.75000   0.00000  Uiso   1.00
O1257  O     0.77321   0.20625   0.74999   0.00000  Uiso   1.00
O1258  O     0.77523   0.06004   0.89892   0.00000  Uiso   1.00
O1259  O     0.81013   0.27048   0.86434   0.00000  Uiso   1.00
O1260  O     0.88488   0.05437   0.59892   0.00000  Uiso   1.00
O1261  O     0.73249   0.06449   0.78721   0.00000  Uiso   1.00
O1262  O     0.98393   0.27900   0.71291   0.00000  Uiso   1.00
O1263  O     0.93475   0.06410   0.71339   0.00000  Uiso   1.00
O1264  O     0.68584   0.27724   0.79605   0.00000  Uiso   1.00
O1265  O     0.89345   0.12709   0.75000   0.00000  Uiso   1.00
O1266  O     0.89345   0.20625   0.75000   0.00000  Uiso   1.00
O1267  O     0.77321   0.12709   0.74999   0.00000  Uiso   1.00
O1268  O     0.83333   0.20626   0.68573   0.00000  Uiso   1.00
O1269  O     0.83334   0.12707   0.81427   0.00000  Uiso   1.00
O1270  O     0.83334   0.20626   0.81427   0.00000  Uiso   1.00
O1271  O     0.83333   0.12707   0.68573   0.00000  Uiso   1.00
O1272  O     0.87523   0.26319   0.64378   0.00000  Uiso   1.00
C1273  C     0.08793   0.49941   0.75342   0.00000  Uiso   1.00
C1274  C     0.31374   0.53813   0.74377   0.00000  Uiso   1.00
C1275  C     0.31190   0.45462   0.74821   0.00000  Uiso   1.00
C1276  C     0.02151   0.53777   0.76105   0.00000  Uiso   1.00
C1277  C     0.16543   0.54118   0.54811   0.00000  Uiso   1.00
C1278  C     0.14811   0.46377   0.95184   0.00000  Uiso   1.00
C1279  C     0.17861   0.53946   0.95393   0.00000  Uiso   1.00
C1280  C     0.18451   0.46133   0.54831   0.00000  Uiso   1.00
C1281  C     0.17382   0.54340   0.59382   0.00000  Uiso   1.00
C1282  C     0.14271   0.46499   0.90542   0.00000  Uiso   1.00
C1283  C     0.17068   0.54283   0.90833   0.00000  Uiso   1.00
C1284  C     0.24570   0.49961   0.74731   0.00000  Uiso   1.00
C1285  C     0.19012   0.46206   0.59474   0.00000  Uiso   1.00
C1286  C     0.17920   0.50186   0.61809   0.00000  Uiso   1.00
C1287  C     0.15812   0.50296   0.88290   0.00000  Uiso   1.00
C1288  C     0.17087   0.50038   0.52492   0.00000  Uiso   1.00
C1289  C     0.16693   0.50046   0.97614   0.00000  Uiso   1.00
C1290  C     0.29067   0.49730   0.74474   0.00000  Uiso   1.00
C1291  C     0.04350   0.49689   0.75776   0.00000  Uiso   1.00
C1292  C     0.13233   0.37343   0.67037   0.00000  Uiso   1.00
C1293  C     0.09365   0.40283   0.66030   0.00000  Uiso   1.00
C1294  C     0.08483   0.41121   0.61069   0.00000  Uiso   1.00
C1295  C     0.17138   0.50024   0.66579   0.00000  Uiso   1.00
C1296  C     0.23984   0.62863   0.78475   0.00000  Uiso   1.00
C1297  C     0.25232   0.59735   0.82467   0.00000  Uiso   1.00
C1298  C     0.27783   0.62149   0.86311   0.00000  Uiso   1.00
C1299  C     0.19873   0.37376   0.83045   0.00000  Uiso   1.00
C1300  C     0.23818   0.40235   0.84137   0.00000  Uiso   1.00
C1301  C     0.24494   0.41494   0.89049   0.00000  Uiso   1.00
C1302  C     0.09501   0.62345   0.70679   0.00000  Uiso   1.00
C1303  C     0.09226   0.59309   0.66476   0.00000  Uiso   1.00
C1304  C     0.05205   0.59889   0.63547   0.00000  Uiso   1.00
C1305  C     0.18276   0.59008   0.61251   0.00000  Uiso   1.00
C1306  C     0.16338   0.50056   0.83460   0.00000  Uiso   1.00
C1307  C     0.11649   0.42961   0.88150   0.00000  Uiso   1.00
C1308  C     0.17104   0.59018   0.89091   0.00000  Uiso   1.00
C1309  C     0.21313   0.42424   0.61759   0.00000  Uiso   1.00
C1310  C     0.04179   0.40845   0.75580   0.00000  Uiso   1.00
C1311  C     0.29868   0.57596   0.71417   0.00000  Uiso   1.00
C1312  C     0.29100   0.40904   0.74569   0.00000  Uiso   1.00
C1313  C     0.03866   0.57585   0.79047   0.00000  Uiso   1.00
C1314  C     0.14324   0.35697   0.71780   0.00000  Uiso   1.00
C1315  C     0.19552   0.64316   0.77613   0.00000  Uiso   1.00
C1316  C     0.18916   0.35754   0.78267   0.00000  Uiso   1.00
C1317  C     0.13736   0.64219   0.72404   0.00000  Uiso   1.00
C1318  C     0.02158   0.45435   0.75357   0.00000  Uiso   1.00
Cu1319 Cu    0.16667   0.54689   0.75000   0.00000  Uiso   1.00
Cu1320 Cu    0.16667   0.45311   0.75000   0.00000  Uiso   1.00
H1321  H     0.15698   0.57244   0.53042   0.00000  Uiso   1.00
H1322  H     0.15936   0.38882   0.65846   0.00000  Uiso   1.00
H1323  H     0.12831   0.34333   0.64787   0.00000  Uiso   1.00
H1324  H     0.30334   0.64159   0.85133   0.00000  Uiso   1.00
H1325  H     0.25880   0.64438   0.88144   0.00000  Uiso   1.00
H1326  H     0.29107   0.59532   0.88674   0.00000  Uiso   1.00
H1327  H     0.27167   0.56923   0.81384   0.00000  Uiso   1.00
H1328  H     0.22564   0.58138   0.83712   0.00000  Uiso   1.00
H1329  H     0.24749   0.61379   0.75377   0.00000  Uiso   1.00
H1330  H     0.26029   0.65883   0.78676   0.00000  Uiso   1.00
H1331  H     0.22059   0.43808   0.89962   0.00000  Uiso   1.00
H1332  H     0.13616   0.43509   0.96924   0.00000  Uiso   1.00
H1333  H     0.24523   0.38380   0.91135   0.00000  Uiso   1.00
H1334  H     0.27475   0.43310   0.89754   0.00000  Uiso   1.00
H1335  H     0.26514   0.38277   0.83344   0.00000  Uiso   1.00
H1336  H     0.23750   0.43450   0.82263   0.00000  Uiso   1.00
H1337  H     0.17164   0.38952   0.84208   0.00000  Uiso   1.00
H1338  H     0.20148   0.34320   0.85200   0.00000  Uiso   1.00
H1339  H     0.02620   0.58574   0.65257   0.00000  Uiso   1.00
H1340  H     0.04698   0.63555   0.62668   0.00000  Uiso   1.00
H1341  H     0.05308   0.57873   0.60442   0.00000  Uiso   1.00
H1342  H     0.11701   0.60203   0.64478   0.00000  Uiso   1.00
H1343  H     0.19200   0.56882   0.97235   0.00000  Uiso   1.00
H1344  H     0.09467   0.55627   0.67307   0.00000  Uiso   1.00
H1345  H     0.08013   0.60806   0.73348   0.00000  Uiso   1.00
H1346  H     0.07415   0.65262   0.70010   0.00000  Uiso   1.00
H1347  H     0.16819   0.61975   0.59634   0.00000  Uiso   1.00
H1348  H     0.10348   0.43619   0.84815   0.00000  Uiso   1.00
H1349  H     0.19424   0.61442   0.90466   0.00000  Uiso   1.00
H1350  H     0.22627   0.42906   0.65131   0.00000  Uiso   1.00
H1351  H     0.03226   0.38234   0.73121   0.00000  Uiso   1.00
H1352  H     0.27095   0.57108   0.69216   0.00000  Uiso   1.00
H1353  H     0.29939   0.38414   0.77117   0.00000  Uiso   1.00
H1354  H     0.19264   0.43109   0.53019   0.00000  Uiso   1.00
H1355  H     0.06855   0.57255   0.80888   0.00000  Uiso   1.00
H1356  H     0.11077   0.42967   0.59796   0.00000  Uiso   1.00
H1357  H     0.07953   0.37811   0.59248   0.00000  Uiso   1.00
H1358  H     0.05699   0.43255   0.60439   0.00000  Uiso   1.00
H1359  H     0.06648   0.38562   0.67111   0.00000  Uiso   1.00
H1360  H     0.09663   0.43661   0.67662   0.00000  Uiso   1.00
N1361  N     0.16667   0.61736   0.75000   0.00000  Uiso   1.00
N1362  N     0.16667   0.38264   0.75000   0.00000  Uiso   1.00
O1363  O     0.10655   0.53958   0.74999   0.00000  Uiso   1.00
O1364  O     0.10856   0.39338   0.89892   0.00000  Uiso   1.00
O1365  O     0.14346   0.60381   0.86434   0.00000  Uiso   1.00
O1366  O     0.21822   0.38771   0.59892   0.00000  Uiso   1.00
O1367  O     0.06582   0.39783   0.78721   0.00000  Uiso   1.00
O1368  O     0.31727   0.61233   0.71291   0.00000  Uiso   1.00
O1369  O     0.26808   0.39743   0.71339   0.00000  Uiso   1.00
O1370  O     0.01917   0.61058   0.79605   0.00000  Uiso   1.00
O1371  O     0.22679   0.46042   0.75000   0.00000  Uiso   1.00
O1372  O     0.22679   0.53958   0.75000   0.00000  Uiso   1.00
O1373  O     0.10655   0.46042   0.74999   0.00000  Uiso   1.00
O1374  O     0.16666   0.53959   0.68573   0.00000  Uiso   1.00
O1375  O     0.16667   0.46041   0.81427   0.00000  Uiso   1.00
O1376  O     0.16667   0.53959   0.81427   0.00000  Uiso   1.00
O1377  O     0.16666   0.46041   0.68573   0.00000  Uiso   1.00
O1378  O     0.20856   0.59652   0.64378   0.00000  Uiso   1.00
C1379  C     0.42126   0.49941   0.75342   0.00000  Uiso   1.00
C1380  C     0.64707   0.53813   0.74377   0.00000  Uiso   1.00
C1381  C     0.64523   0.45462   0.74821   0.00000  Uiso   1.00
C1382  C     0.35484   0.53777   0.76105   0.00000  Uiso   1.00
C1383  C     0.49877   0.54118   0.54811   0.00000  Uiso   1.00
C1384  C     0.48144   0.46377   0.95184   0.00000  Uiso   1.00
C1385  C     0.51195   0.53946   0.95393   0.00000  Uiso   1.00
C1386  C     0.51785   0.46133   0.54831   0.00000  Uiso   1.00
C1387  C     0.50716   0.54340   0.59382   0.00000  Uiso   1.00
C1388  C     0.47604   0.46499   0.90542   0.00000  Uiso   1.00
C1389  C     0.50401   0.54283   0.90833   0.00000  Uiso   1.00
C1390  C     0.57903   0.49961   0.74731   0.00000  Uiso   1.00
C1391  C     0.52345   0.46206   0.59474   0.00000  Uiso   1.00
C1392  C     0.51254   0.50186   0.61809   0.00000  Uiso   1.00
C1393  C     0.49145   0.50296   0.88290   0.00000  Uiso   1.00
C1394  C     0.50421   0.50038   0.52492   0.00000  Uiso   1.00
C1395  C     0.50026   0.50046   0.97614   0.00000  Uiso   1.00
C1396  C     0.62401   0.49730   0.74474   0.00000  Uiso   1.00
C1397  C     0.37683   0.49689   0.75776   0.00000  Uiso   1.00
C1398  C     0.46566   0.37343   0.67037   0.00000  Uiso   1.00
C1399  C     0.42698   0.40283   0.66030   0.00000  Uiso   1.00
C1400  C     0.41817   0.41121   0.61069   0.00000  Uiso   1.00
C1401  C     0.50471   0.50024   0.66579   0.00000  Uiso   1.00
C1402  C     0.57318   0.62863   0.78475   0.00000  Uiso   1.00
C1403  C     0.58565   0.59735   0.82467   0.00000  Uiso   1.00
C1404  C     0.61116   0.62149   0.86311   0.00000  Uiso   1.00
C1405  C     0.53206   0.37376   0.83045   0.00000  Uiso   1.00
C1406  C     0.57151   0.40235   0.84137   0.00000  Uiso   1.00
C1407  C     0.57827   0.41494   0.89049   0.00000  Uiso   1.00
C1408  C     0.42834   0.62345   0.70679   0.00000  Uiso   1.00
C1409  C     0.42559   0.59309   0.66476   0.00000  Uiso   1.00
C1410  C     0.38538   0.59889   0.63547   0.00000  Uiso   1.00
C1411  C     0.51609   0.59008   0.61251   0.00000  Uiso   1.00
C1412  C     0.49671   0.50056   0.83460   0.00000  Uiso   1.00
C1413  C     0.44982   0.42961   0.88150   0.00000  Uiso   1.00
C1414  C     0.50437   0.59018   0.89091   0.00000  Uiso   1.00
C1415  C     0.54646   0.42424   0.61759   0.00000  Uiso   1.00
C1416  C     0.37513   0.40845   0.75580   0.00000  Uiso   1.00
C1417  C     0.63202   0.57596   0.71417   0.00000  Uiso   1.00
C1418  C     0.62433   0.40904   0.74569   0.00000  Uiso   1.00
C1419  C     0.37199   0.57585   0.79047   0.00000  Uiso   1.00
C1420  C     0.47658   0.35697   0.71780   0.00000  Uiso   1.00
C1421  C     0.52885   0.64316   0.77613   0.00000  Uiso   1.00
C1422  C     0.52249   0.35754   0.78267   0.00000  Uiso   1.00
C1423  C     0.47069   0.64219   0.72404   0.00000  Uiso   1.00
C1424  C     0.35492   0.45435   0.75357   0.00000  Uiso   1.00
Cu1425 Cu    0.50000   0.54689   0.75000   0.00000  Uiso   1.00
Cu1426 Cu    0.50000   0.45311   0.75000   0.00000  Uiso   1.00
H1427  H     0.49031   0.57244   0.53042   0.00000  Uiso   1.00
H1428  H     0.49270   0.38882   0.65846   0.00000  Uiso   1.00
H1429  H     0.46165   0.34333   0.64787   0.00000  Uiso   1.00
H1430  H     0.63667   0.64159   0.85133   0.00000  Uiso   1.00
H1431  H     0.59213   0.64438   0.88144   0.00000  Uiso   1.00
H1432  H     0.62440   0.59532   0.88674   0.00000  Uiso   1.00
H1433  H     0.60500   0.56923   0.81384   0.00000  Uiso   1.00
H1434  H     0.55897   0.58138   0.83712   0.00000  Uiso   1.00
H1435  H     0.58083   0.61379   0.75377   0.00000  Uiso   1.00
H1436  H     0.59362   0.65883   0.78676   0.00000  Uiso   1.00
H1437  H     0.55393   0.43808   0.89962   0.00000  Uiso   1.00
H1438  H     0.46949   0.43509   0.96924   0.00000  Uiso   1.00
H1439  H     0.57856   0.38380   0.91135   0.00000  Uiso   1.00
H1440  H     0.60808   0.43310   0.89754   0.00000  Uiso   1.00
H1441  H     0.59847   0.38277   0.83344   0.00000  Uiso   1.00
H1442  H     0.57083   0.43450   0.82263   0.00000  Uiso   1.00
H1443  H     0.50497   0.38952   0.84208   0.00000  Uiso   1.00
H1444  H     0.53481   0.34320   0.85200   0.00000  Uiso   1.00
H1445  H     0.35954   0.58574   0.65257   0.00000  Uiso   1.00
H1446  H     0.38031   0.63555   0.62668   0.00000  Uiso   1.00
H1447  H     0.38641   0.57873   0.60442   0.00000  Uiso   1.00
H1448  H     0.45035   0.60203   0.64478   0.00000  Uiso   1.00
H1449  H     0.52533   0.56882   0.97235   0.00000  Uiso   1.00
H1450  H     0.42800   0.55627   0.67307   0.00000  Uiso   1.00
H1451  H     0.41346   0.60806   0.73348   0.00000  Uiso   1.00
H1452  H     0.40748   0.65262   0.70010   0.00000  Uiso   1.00
H1453  H     0.50152   0.61975   0.59634   0.00000  Uiso   1.00
H1454  H     0.43682   0.43619   0.84815   0.00000  Uiso   1.00
H1455  H     0.52757   0.61442   0.90466   0.00000  Uiso   1.00
H1456  H     0.55961   0.42906   0.65131   0.00000  Uiso   1.00
H1457  H     0.36560   0.38234   0.73121   0.00000  Uiso   1.00
H1458  H     0.60428   0.57108   0.69216   0.00000  Uiso   1.00
H1459  H     0.63272   0.38414   0.77117   0.00000  Uiso   1.00
H1460  H     0.52597   0.43109   0.53019   0.00000  Uiso   1.00
H1461  H     0.40188   0.57255   0.80888   0.00000  Uiso   1.00
H1462  H     0.44410   0.42967   0.59796   0.00000  Uiso   1.00
H1463  H     0.41286   0.37811   0.59248   0.00000  Uiso   1.00
H1464  H     0.39032   0.43255   0.60439   0.00000  Uiso   1.00
H1465  H     0.39981   0.38562   0.67111   0.00000  Uiso   1.00
H1466  H     0.42997   0.43661   0.67662   0.00000  Uiso   1.00
N1467  N     0.50000   0.61736   0.75000   0.00000  Uiso   1.00
N1468  N     0.50000   0.38264   0.75000   0.00000  Uiso   1.00
O1469  O     0.43988   0.53958   0.74999   0.00000  Uiso   1.00
O1470  O     0.44190   0.39338   0.89892   0.00000  Uiso   1.00
O1471  O     0.47680   0.60381   0.86434   0.00000  Uiso   1.00
O1472  O     0.55155   0.38771   0.59892   0.00000  Uiso   1.00
O1473  O     0.39916   0.39783   0.78721   0.00000  Uiso   1.00
O1474  O     0.65060   0.61233   0.71291   0.00000  Uiso   1.00
O1475  O     0.60141   0.39743   0.71339   0.00000  Uiso   1.00
O1476  O     0.35250   0.61058   0.79605   0.00000  Uiso   1.00
O1477  O     0.56012   0.46042   0.75000   0.00000  Uiso   1.00
O1478  O     0.56012   0.53958   0.75000   0.00000  Uiso   1.00
O1479  O     0.43988   0.46042   0.74999   0.00000  Uiso   1.00
O1480  O     0.50000   0.53959   0.68573   0.00000  Uiso   1.00
O1481  O     0.50000   0.46041   0.81427   0.00000  Uiso   1.00
O1482  O     0.50000   0.53959   0.81427   0.00000  Uiso   1.00
O1483  O     0.50000   0.46041   0.68573   0.00000  Uiso   1.00
O1484  O     0.54189   0.59652   0.64378   0.00000  Uiso   1.00
C1485  C     0.75460   0.49941   0.75342   0.00000  Uiso   1.00
C1486  C     0.98040   0.53813   0.74377   0.00000  Uiso   1.00
C1487  C     0.97857   0.45462   0.74821   0.00000  Uiso   1.00
C1488  C     0.68817   0.53777   0.76105   0.00000  Uiso   1.00
C1489  C     0.83210   0.54118   0.54811   0.00000  Uiso   1.00
C1490  C     0.81478   0.46377   0.95184   0.00000  Uiso   1.00
C1491  C     0.84528   0.53946   0.95393   0.00000  Uiso   1.00
C1492  C     0.85118   0.46133   0.54831   0.00000  Uiso   1.00
C1493  C     0.84049   0.54340   0.59382   0.00000  Uiso   1.00
C1494  C     0.80938   0.46499   0.90542   0.00000  Uiso   1.00
C1495  C     0.83734   0.54283   0.90833   0.00000  Uiso   1.00
C1496  C     0.91237   0.49961   0.74731   0.00000  Uiso   1.00
C1497  C     0.85679   0.46206   0.59474   0.00000  Uiso   1.00
C1498  C     0.84587   0.50186   0.61809   0.00000  Uiso   1.00
C1499  C     0.82478   0.50296   0.88290   0.00000  Uiso   1.00
C1500  C     0.83754   0.50038   0.52492   0.00000  Uiso   1.00
C1501  C     0.83360   0.50046   0.97614   0.00000  Uiso   1.00
C1502  C     0.95734   0.49730   0.74474   0.00000  Uiso   1.00
C1503  C     0.71016   0.49689   0.75776   0.00000  Uiso   1.00
C1504  C     0.79900   0.37343   0.67037   0.00000  Uiso   1.00
C1505  C     0.76032   0.40283   0.66030   0.00000  Uiso   1.00
C1506  C     0.75150   0.41121   0.61069   0.00000  Uiso   1.00
C1507  C     0.83804   0.50024   0.66579   0.00000  Uiso   1.00
C1508  C     0.90651   0.62863   0.78475   0.00000  Uiso   1.00
C1509  C     0.91898   0.59735   0.82467   0.00000  Uiso   1.00
C1510  C     0.94450   0.62149   0.86311   0.00000  Uiso   1.00
C1511  C     0.86539   0.37376   0.83045   0.00000  Uiso   1.00
C1512  C     0.90485   0.40235   0.84137   0.00000  Uiso   1.00
C1513  C     0.91161   0.41494   0.89049   0.00000  Uiso   1.00
C1514  C     0.76167   0.62345   0.70679   0.00000  Uiso   1.00
C1515  C     0.75893   0.59309   0.66476   0.00000  Uiso   1.00
C1516  C     0.71871   0.59889   0.63547   0.00000  Uiso   1.00
C1517  C     0.84943   0.59008   0.61251   0.00000  Uiso   1.00
C1518  C     0.83004   0.50056   0.83460   0.00000  Uiso   1.00
C1519  C     0.78315   0.42961   0.88150   0.00000  Uiso   1.00
C1520  C     0.83771   0.59018   0.89091   0.00000  Uiso   1.00
C1521  C     0.87979   0.42424   0.61759   0.00000  Uiso   1.00
C1522  C     0.70846   0.40845   0.75580   0.00000  Uiso   1.00
C1523  C     0.96535   0.57596   0.71417   0.00000  Uiso   1.00
C1524  C     0.95767   0.40904   0.74569   0.00000  Uiso   1.00
C1525  C     0.70533   0.57585   0.79047   0.00000  Uiso   1.00
C1526  C     0.80991   0.35697   0.71780   0.00000  Uiso   1.00
C1527  C     0.86219   0.64316   0.77613   0.00000  Uiso   1.00
C1528  C     0.85582   0.35754   0.78267   0.00000  Uiso   1.00
C1529  C     0.80403   0.64219   0.72404   0.00000  Uiso   1.00
C1530  C     0.68825   0.45435   0.75357   0.00000  Uiso   1.00
Cu1531 Cu    0.83333   0.54689   0.75000   0.00000  Uiso   1.00
Cu1532 Cu    0.83333   0.45311   0.75000   0.00000  Uiso   1.00
H1533  H     0.82365   0.57244   0.53042   0.00000  Uiso   1.00
H1534  H     0.82603   0.38882   0.65846   0.00000  Uiso   1.00
H1535  H     0.79498   0.34333   0.64787   0.00000  Uiso   1.00
H1536  H     0.97001   0.64159   0.85133   0.00000  Uiso   1.00
H1537  H     0.92547   0.64438   0.88144   0.00000  Uiso   1.00
H1538  H     0.95773   0.59532   0.88674   0.00000  Uiso   1.00
H1539  H     0.93833   0.56923   0.81384   0.00000  Uiso   1.00
H1540  H     0.89230   0.58138   0.83712   0.00000  Uiso   1.00
H1541  H     0.91416   0.61379   0.75377   0.00000  Uiso   1.00
H1542  H     0.92695   0.65883   0.78676   0.00000  Uiso   1.00
H1543  H     0.88726   0.43808   0.89962   0.00000  Uiso   1.00
H1544  H     0.80283   0.43509   0.96924   0.00000  Uiso   1.00
H1545  H     0.91189   0.38380   0.91135   0.00000  Uiso   1.00
H1546  H     0.94141   0.43310   0.89754   0.00000  Uiso   1.00
H1547  H     0.93180   0.38277   0.83344   0.00000  Uiso   1.00
H1548  H     0.90417   0.43450   0.82263   0.00000  Uiso   1.00
H1549  H     0.83830   0.38952   0.84208   0.00000  Uiso   1.00
H1550  H     0.86814   0.34320   0.85200   0.00000  Uiso   1.00
H1551  H     0.69287   0.58574   0.65257   0.00000  Uiso   1.00
H1552  H     0.71364   0.63555   0.62668   0.00000  Uiso   1.00
H1553  H     0.71975   0.57873   0.60442   0.00000  Uiso   1.00
H1554  H     0.78368   0.60203   0.64478   0.00000  Uiso   1.00
H1555  H     0.85866   0.56882   0.97235   0.00000  Uiso   1.00
H1556  H     0.76133   0.55627   0.67307   0.00000  Uiso   1.00
H1557  H     0.74680   0.60806   0.73348   0.00000  Uiso   1.00
H1558  H     0.74081   0.65262   0.70010   0.00000  Uiso   1.00
H1559  H     0.83486   0.61975   0.59634   0.00000  Uiso   1.00
H1560  H     0.77015   0.43619   0.84815   0.00000  Uiso   1.00
H1561  H     0.86091   0.61442   0.90466   0.00000  Uiso   1.00
H1562  H     0.89294   0.42906   0.65131   0.00000  Uiso   1.00
H1563  H     0.69893   0.38234   0.73121   0.00000  Uiso   1.00
H1564  H     0.93761   0.57108   0.69216   0.00000  Uiso   1.00
H1565  H     0.96605   0.38414   0.77117   0.00000  Uiso   1.00
H1566  H     0.85930   0.43109   0.53019   0.00000  Uiso   1.00
H1567  H     0.73522   0.57255   0.80888   0.00000  Uiso   1.00
H1568  H     0.77743   0.42967   0.59796   0.00000  Uiso   1.00
H1569  H     0.74619   0.37811   0.59248   0.00000  Uiso   1.00
H1570  H     0.72365   0.43255   0.60439   0.00000  Uiso   1.00
H1571  H     0.73314   0.38562   0.67111   0.00000  Uiso   1.00
H1572  H     0.76330   0.43661   0.67662   0.00000  Uiso   1.00
N1573  N     0.83333   0.61736   0.75000   0.00000  Uiso   1.00
N1574  N     0.83333   0.38264   0.75000   0.00000  Uiso   1.00
O1575  O     0.77321   0.53958   0.74999   0.00000  Uiso   1.00
O1576  O     0.77523   0.39338   0.89892   0.00000  Uiso   1.00
O1577  O     0.81013   0.60381   0.86434   0.00000  Uiso   1.00
O1578  O     0.88488   0.38771   0.59892   0.00000  Uiso   1.00
O1579  O     0.73249   0.39783   0.78721   0.00000  Uiso   1.00
O1580  O     0.98393   0.61233   0.71291   0.00000  Uiso   1.00
O1581  O     0.93475   0.39743   0.71339   0.00000  Uiso   1.00
O1582  O     0.68584   0.61058   0.79605   0.00000  Uiso   1.00
O1583  O     0.89345   0.46042   0.75000   0.00000  Uiso   1.00
O1584  O     0.89345   0.53958   0.75000   0.00000  Uiso   1.00
O1585  O     0.77321   0.46042   0.74999   0.00000  Uiso   1.00
O1586  O     0.83333   0.53959   0.68573   0.00000  Uiso   1.00
O1587  O     0.83334   0.46041   0.81427   0.00000  Uiso   1.00
O1588  O     0.83334   0.53959   0.81427   0.00000  Uiso   1.00
O1589  O     0.83333   0.46041   0.68573   0.00000  Uiso   1.00
O1590  O     0.87523   0.59652   0.64378   0.00000  Uiso   1.00
C1591  C     0.08793   0.83274   0.75342   0.00000  Uiso   1.00
C1592  C     0.31374   0.87146   0.74377   0.00000  Uiso   1.00
C1593  C     0.31190   0.78796   0.74821   0.00000  Uiso   1.00
C1594  C     0.02151   0.87110   0.76105   0.00000  Uiso   1.00
C1595  C     0.16543   0.87451   0.54811   0.00000  Uiso   1.00
C1596  C     0.14811   0.79710   0.95184   0.00000  Uiso   1.00
C1597  C     0.17861   0.87279   0.95393   0.00000  Uiso   1.00
C1598  C     0.18451   0.79466   0.54831   0.00000  Uiso   1.00
C1599  C     0.17382   0.87673   0.59382   0.00000  Uiso   1.00
C1600  C     0.14271   0.79833   0.90542   0.00000  Uiso   1.00
C1601  C     0.17068   0.87616   0.90833   0.00000  Uiso   1.00
C1602  C     0.24570   0.83294   0.74731   0.00000  Uiso   1.00
C1603  C     0.19012   0.79539   0.59474   0.00000  Uiso   1.00
C1604  C     0.17920   0.83520   0.61809   0.00000  Uiso   1.00
C1605  C     0.15812   0.83630   0.88290   0.00000  Uiso   1.00
C1606  C     0.17087   0.83372   0.52492   0.00000  Uiso   1.00
C1607  C     0.16693   0.83379   0.97614   0.00000  Uiso   1.00
C1608  C     0.29067   0.83064   0.74474   0.00000  Uiso   1.00
C1609  C     0.04350   0.83023   0.75776   0.00000  Uiso   1.00
C1610  C     0.13233   0.70676   0.67037   0.00000  Uiso   1.00
C1611  C     0.09365   0.73616   0.66030   0.00000  Uiso   1.00
C1612  C     0.08483   0.74455   0.61069   0.00000  Uiso   1.00
C1613  C     0.17138   0.83358   0.66579   0.00000  Uiso   1.00
C1614  C     0.23984   0.96196   0.78475   0.00000  Uiso   1.00
C1615  C     0.25232   0.93068   0.82467   0.00000  Uiso   1.00
C1616  C     0.27783   0.95482   0.86311   0.00000  Uiso   1.00
C1617  C     0.19873   0.70709   0.83045   0.00000  Uiso   1.00
C1618  C     0.23818   0.73568   0.84137   0.00000  Uiso   1.00
C1619  C     0.24494   0.74827   0.89049   0.00000  Uiso   1.00
C1620  C     0.09501   0.95678   0.70679   0.00000  Uiso   1.00
C1621  C     0.09226   0.92642   0.66476   0.00000  Uiso   1.00
C1622  C     0.05205   0.93223   0.63547   0.00000  Uiso   1.00
C1623  C     0.18276   0.92342   0.61251   0.00000  Uiso   1.00
C1624  C     0.16338   0.83390   0.83460   0.00000  Uiso   1.00
C1625  C     0.11649   0.76294   0.88150   0.00000  Uiso   1.00
C1626  C     0.17104   0.92351   0.89091   0.00000  Uiso   1.00
C1627  C     0.21313   0.75757   0.61759   0.00000  Uiso   1.00
C1628  C     0.04179   0.74178   0.75580   0.00000  Uiso   1.00
C1629  C     0.29868   0.90929   0.71417   0.00000  Uiso   1.00
C1630  C     0.29100   0.74237   0.74569   0.00000  Uiso   1.00
C1631  C     0.03866   0.90918   0.79047   0.00000  Uiso   1.00
C1632  C     0.14324   0.69030   0.71780   0.00000  Uiso   1.00
C1633  C     0.19552   0.97649   0.77613   0.00000  Uiso   1.00
C1634  C     0.18916   0.69087   0.78267   0.00000  Uiso   1.00
C1635  C     0.13736   0.97553   0.72404   0.00000  Uiso   1.00
C1636  C     0.02158   0.78768   0.75357   0.00000  Uiso   1.00
Cu1637 Cu    0.16667   0.88022   0.75000   0.00000  Uiso   1.00
Cu1638 Cu    0.16667   0.78645   0.75000   0.00000  Uiso   1.00
H1639  H     0.15698   0.90577   0.53042   0.00000  Uiso   1.00
H1640  H     0.15936   0.72215   0.65846   0.00000  Uiso   1.00
H1641  H     0.12831   0.67666   0.64787   0.00000  Uiso   1.00
H1642  H     0.30334   0.97492   0.85133   0.00000  Uiso   1.00
H1643  H     0.25880   0.97771   0.88144   0.00000  Uiso   1.00
H1644  H     0.29107   0.92865   0.88674   0.00000  Uiso   1.00
H1645  H     0.27167   0.90257   0.81384   0.00000  Uiso   1.00
H1646  H     0.22564   0.91472   0.83712   0.00000  Uiso   1.00
H1647  H     0.24749   0.94712   0.75377   0.00000  Uiso   1.00
H1648  H     0.26029   0.99216   0.78676   0.00000  Uiso   1.00
H1649  H     0.22059   0.77141   0.89962   0.00000  Uiso   1.00
H1650  H     0.13616   0.76842   0.96924   0.00000  Uiso   1.00
H1651  H     0.24523   0.71713   0.91135   0.00000  Uiso   1.00
H1652  H     0.27475   0.76643   0.89754   0.00000  Uiso   1.00
H1653  H     0.26514   0.71610   0.83344   0.00000  Uiso   1.00
H1654  H     0.23750   0.76783   0.82263   0.00000  Uiso   1.00
H1655  H     0.17164   0.72285   0.84208   0.00000  Uiso   1.00
H1656  H     0.20148   0.67653   0.85200   0.00000  Uiso   1.00
H1657  H     0.02620   0.91908   0.65257   0.00000  Uiso   1.00
H1658  H     0.04698   0.96889   0.62668   0.00000  Uiso   1.00
H1659  H     0.05308   0.91206   0.60442   0.00000  Uiso   1.00
H1660  H     0.11701   0.93536   0.64478   0.00000  Uiso   1.00
H1661  H     0.19200   0.90216   0.97235   0.00000  Uiso   1.00
H1662  H     0.09467   0.88960   0.67307   0.00000  Uiso   1.00
H1663  H     0.08013   0.94139   0.73348   0.00000  Uiso   1.00
H1664  H     0.07415   0.98595   0.70010   0.00000  Uiso   1.00
H1665  H     0.16819   0.95309   0.59634   0.00000  Uiso   1.00
H1666  H     0.10348   0.76952   0.84815   0.00000  Uiso   1.00
H1667  H     0.19424   0.94776   0.90466   0.00000  Uiso   1.00
H1668  H     0.22627   0.76239   0.65131   0.00000  Uiso   1.00
H1669  H     0.03226   0.71568   0.73121   0.00000  Uiso   1.00
H1670  H     0.27095   0.90441   0.69216   0.00000  Uiso   1.00
H1671  H     0.29939   0.71748   0.77117   0.00000  Uiso   1.00
H1672  H     0.19264   0.76442   0.53019   0.00000  Uiso   1.00
H1673  H     0.06855   0.90589   0.80888   0.00000  Uiso   1.00
H1674  H     0.11077   0.76301   0.59796   0.00000  Uiso   1.00
H1675  H     0.07953   0.71144   0.59248   0.00000  Uiso   1.00
H1676  H     0.05699   0.76589   0.60439   0.00000  Uiso   1.00
H1677  H     0.06648   0.71896   0.67111   0.00000  Uiso   1.00
H1678  H     0.09663   0.76995   0.67662   0.00000  Uiso   1.00
N1679  N     0.16667   0.95069   0.75000   0.00000  Uiso   1.00
N1680  N     0.16667   0.71598   0.75000   0.00000  Uiso   1.00
O1681  O     0.10655   0.87291   0.74999   0.00000  Uiso   1.00
O1682  O     0.10856   0.72671   0.89892   0.00000  Uiso   1.00
O1683  O     0.14346   0.93714   0.86434   0.00000  Uiso   1.00
O1684  O     0.21822   0.72104   0.59892   0.00000  Uiso   1.00
O1685  O     0.06582   0.73116   0.78721   0.00000  Uiso   1.00
O1686  O     0.31727   0.94566   0.71291   0.00000  Uiso   1.00
O1687  O     0.26808   0.73077   0.71339   0.00000  Uiso   1.00
O1688  O     0.01917   0.94391   0.79605   0.00000  Uiso   1.00
O1689  O     0.22679   0.79375   0.75000   0.00000  Uiso   1.00
O1690  O     0.22679   0.87291   0.75000   0.00000  Uiso   1.00
O1691  O     0.10655   0.79375   0.74999   0.00000  Uiso   1.00
O1692  O     0.16666   0.87293   0.68573   0.00000  Uiso   1.00
O1693  O     0.16667   0.79374   0.81427   0.00000  Uiso   1.00
O1694  O     0.16667   0.87293   0.81427   0.00000  Uiso   1.00
O1695  O     0.16666   0.79374   0.68573   0.00000  Uiso   1.00
O1696  O     0.20856   0.92986   0.64378   0.00000  Uiso   1.00
C1697  C     0.42126   0.83274   0.75342   0.00000  Uiso   1.00
C1698  C     0.64707   0.87146   0.74377   0.00000  Uiso   1.00
C1699  C     0.64523   0.78796   0.74821   0.00000  Uiso   1.00
C1700  C     0.35484   0.87110   0.76105   0.00000  Uiso   1.00
C1701  C     0.49877   0.87451   0.54811   0.00000  Uiso   1.00
C1702  C     0.48144   0.79710   0.95184   0.00000  Uiso   1.00
C1703  C     0.51195   0.87279   0.95393   0.00000  Uiso   1.00
C1704  C     0.51785   0.79466   0.54831   0.00000  Uiso   1.00
C1705  C     0.50716   0.87673   0.59382   0.00000  Uiso   1.00
C1706  C     0.47604   0.79833   0.90542   0.00000  Uiso   1.00
C1707  C     0.50401   0.87616   0.90833   0.00000  Uiso   1.00
C1708  C     0.57903   0.83294   0.74731   0.00000  Uiso   1.00
C1709  C     0.52345   0.79539   0.59474   0.00000  Uiso   1.00
C1710  C     0.51254   0.83520   0.61809   0.00000  Uiso   1.00
C1711  C     0.49145   0.83630   0.88290   0.00000  Uiso   1.00
C1712  C     0.50421   0.83372   0.52492   0.00000  Uiso   1.00
C1713  C     0.50026   0.83379   0.97614   0.00000  Uiso   1.00
C1714  C     0.62401   0.83064   0.74474   0.00000  Uiso   1.00
C1715  C     0.37683   0.83023   0.75776   0.00000  Uiso   1.00
C1716  C     0.46566   0.70676   0.67037   0.00000  Uiso   1.00
C1717  C     0.42698   0.73616   0.66030   0.00000  Uiso   1.00
C1718  C     0.41817   0.74455   0.61069   0.00000  Uiso   1.00
C1719  C     0.50471   0.83358   0.66579   0.00000  Uiso   1.00
C1720  C     0.57318   0.96196   0.78475   0.00000  Uiso   1.00
C1721  C     0.58565   0.93068   0.82467   0.00000  Uiso   1.00
C1722  C     0.61116   0.95482   0.86311   0.00000  Uiso   1.00
C1723  C     0.53206   0.70709   0.83045   0.00000  Uiso   1.00
C1724  C     0.57151   0.73568   0.84137   0.00000  Uiso   1.00
C1725  C     0.57827   0.74827   0.89049   0.00000  Uiso   1.00
C1726  C     0.42834   0.95678   0.70679   0.00000  Uiso   1.00
C1727  C     0.42559   0.92642   0.66476   0.00000  Uiso   1.00
C1728  C     0.38538   0.93223   0.63547   0.00000  Uiso   1.00
C1729  C     0.51609   0.92342   0.61251   0.00000  Uiso   1.00
C1730  C     0.49671   0.83390   0.83460   0.00000  Uiso   1.00
C1731  C     0.44982   0.76294   0.88150   0.00000  Uiso   1.00
C1732  C     0.50437   0.92351   0.89091   0.00000  Uiso   1.00
C1733  C     0.54646   0.75757   0.61759   0.00000  Uiso   1.00
C1734  C     0.37513   0.74178   0.75580   0.00000  Uiso   1.00
C1735  C     0.63202   0.90929   0.71417   0.00000  Uiso   1.00
C1736  C     0.62433   0.74237   0.74569   0.00000  Uiso   1.00
C1737  C     0.37199   0.90918   0.79047   0.00000  Uiso   1.00
C1738  C     0.47658   0.69030   0.71780   0.00000  Uiso   1.00
C1739  C     0.52885   0.97649   0.77613   0.00000  Uiso   1.00
C1740  C     0.52249   0.69087   0.78267   0.00000  Uiso   1.00
C1741  C     0.47069   0.97553   0.72404   0.00000  Uiso   1.00
C1742  C     0.35492   0.78768   0.75357   0.00000  Uiso   1.00
Cu1743 Cu    0.50000   0.88022   0.75000   0.00000  Uiso   1.00
Cu1744 Cu    0.50000   0.78645   0.75000   0.00000  Uiso   1.00
H1745  H     0.49031   0.90577   0.53042   0.00000  Uiso   1.00
H1746  H     0.49270   0.72215   0.65846   0.00000  Uiso   1.00
H1747  H     0.46165   0.67666   0.64787   0.00000  Uiso   1.00
H1748  H     0.63667   0.97492   0.85133   0.00000  Uiso   1.00
H1749  H     0.59213   0.97771   0.88144   0.00000  Uiso   1.00
H1750  H     0.62440   0.92865   0.88674   0.00000  Uiso   1.00
H1751  H     0.60500   0.90257   0.81384   0.00000  Uiso   1.00
H1752  H     0.55897   0.91472   0.83712   0.00000  Uiso   1.00
H1753  H     0.58083   0.94712   0.75377   0.00000  Uiso   1.00
H1754  H     0.59362   0.99216   0.78676   0.00000  Uiso   1.00
H1755  H     0.55393   0.77141   0.89962   0.00000  Uiso   1.00
H1756  H     0.46949   0.76842   0.96924   0.00000  Uiso   1.00
H1757  H     0.57856   0.71713   0.91135   0.00000  Uiso   1.00
H1758  H     0.60808   0.76643   0.89754   0.00000  Uiso   1.00
H1759  H     0.59847   0.71610   0.83344   0.00000  Uiso   1.00
H1760  H     0.57083   0.76783   0.82263   0.00000  Uiso   1.00
H1761  H     0.50497   0.72285   0.84208   0.00000  Uiso   1.00
H1762  H     0.53481   0.67653   0.85200   0.00000  Uiso   1.00
H1763  H     0.35954   0.91908   0.65257   0.00000  Uiso   1.00
H1764  H     0.38031   0.96889   0.62668   0.00000  Uiso   1.00
H1765  H     0.38641   0.91206   0.60442   0.00000  Uiso   1.00
H1766  H     0.45035   0.93536   0.64478   0.00000  Uiso   1.00
H1767  H     0.52533   0.90216   0.97235   0.00000  Uiso   1.00
H1768  H     0.42800   0.88960   0.67307   0.00000  Uiso   1.00
H1769  H     0.41346   0.94139   0.73348   0.00000  Uiso   1.00
H1770  H     0.40748   0.98595   0.70010   0.00000  Uiso   1.00
H1771  H     0.50152   0.95309   0.59634   0.00000  Uiso   1.00
H1772  H     0.43682   0.76952   0.84815   0.00000  Uiso   1.00
H1773  H     0.52757   0.94776   0.90466   0.00000  Uiso   1.00
H1774  H     0.55961   0.76239   0.65131   0.00000  Uiso   1.00
H1775  H     0.36560   0.71568   0.73121   0.00000  Uiso   1.00
H1776  H     0.60428   0.90441   0.69216   0.00000  Uiso   1.00
H1777  H     0.63272   0.71748   0.77117   0.00000  Uiso   1.00
H1778  H     0.52597   0.76442   0.53019   0.00000  Uiso   1.00
H1779  H     0.40188   0.90589   0.80888   0.00000  Uiso   1.00
H1780  H     0.44410   0.76301   0.59796   0.00000  Uiso   1.00
H1781  H     0.41286   0.71144   0.59248   0.00000  Uiso   1.00
H1782  H     0.39032   0.76589   0.60439   0.00000  Uiso   1.00
H1783  H     0.39981   0.71896   0.67111   0.00000  Uiso   1.00
H1784  H     0.42997   0.76995   0.67662   0.00000  Uiso   1.00
N1785  N     0.50000   0.95069   0.75000   0.00000  Uiso   1.00
N1786  N     0.50000   0.71598   0.75000   0.00000  Uiso   1.00
O1787  O     0.43988   0.87291   0.74999   0.00000  Uiso   1.00
O1788  O     0.44190   0.72671   0.89892   0.00000  Uiso   1.00
O1789  O     0.47680   0.93714   0.86434   0.00000  Uiso   1.00
O1790  O     0.55155   0.72104   0.59892   0.00000  Uiso   1.00
O1791  O     0.39916   0.73116   0.78721   0.00000  Uiso   1.00
O1792  O     0.65060   0.94566   0.71291   0.00000  Uiso   1.00
O1793  O     0.60141   0.73077   0.71339   0.00000  Uiso   1.00
O1794  O     0.35250   0.94391   0.79605   0.00000  Uiso   1.00
O1795  O     0.56012   0.79375   0.75000   0.00000  Uiso   1.00
O1796  O     0.56012   0.87291   0.75000   0.00000  Uiso   1.00
O1797  O     0.43988   0.79375   0.74999   0.00000  Uiso   1.00
O1798  O     0.50000   0.87293   0.68573   0.00000  Uiso   1.00
O1799  O     0.50000   0.79374   0.81427   0.00000  Uiso   1.00
O1800  O     0.50000   0.87293   0.81427   0.00000  Uiso   1.00
O1801  O     0.50000   0.79374   0.68573   0.00000  Uiso   1.00
O1802  O     0.54189   0.92986   0.64378   0.00000  Uiso   1.00
C1803  C     0.75460   0.83274   0.75342   0.00000  Uiso   1.00
C1804  C     0.98040   0.87146   0.74377   0.00000  Uiso   1.00
C1805  C     0.97857   0.78796   0.74821   0.00000  Uiso   1.00
C1806  C     0.68817   0.87110   0.76105   0.00000  Uiso   1.00
C1807  C     0.83210   0.87451   0.54811   0.00000  Uiso   1.00
C1808  C     0.81478   0.79710   0.95184   0.00000  Uiso   1.00
C1809  C     0.84528   0.87279   0.95393   0.00000  Uiso   1.00
C1810  C     0.85118   0.79466   0.54831   0.00000  Uiso   1.00
C1811  C     0.84049   0.87673   0.59382   0.00000  Uiso   1.00
C1812  C     0.80938   0.79833   0.90542   0.00000  Uiso   1.00
C1813  C     0.83734   0.87616   0.90833   0.00000  Uiso   1.00
C1814  C     0.91237   0.83294   0.74731   0.00000  Uiso   1.00
C1815  C     0.85679   0.79539   0.59474   0.00000  Uiso   1.00
C1816  C     0.84587   0.83520   0.61809   0.00000  Uiso   1.00
C1817  C     0.82478   0.83630   0.88290   0.00000  Uiso   1.00
C1818  C     0.83754   0.83372   0.52492   0.00000  Uiso   1.00
C1819  C     0.83360   0.83379   0.97614   0.00000  Uiso   1.00
C1820  C     0.95734   0.83064   0.74474   0.00000  Uiso   1.00
C1821  C     0.71016   0.83023   0.75776   0.00000  Uiso   1.00
C1822  C     0.79900   0.70676   0.67037   0.00000  Uiso   1.00
C1823  C     0.76032   0.73616   0.66030   0.00000  Uiso   1.00
C1824  C     0.75150   0.74455   0.61069   0.00000  Uiso   1.00
C1825  C     0.83804   0.83358   0.66579   0.00000  Uiso   1.00
C1826  C     0.90651   0.96196   0.78475   0.00000  Uiso   1.00
C1827  C     0.91898   0.93068   0.82467   0.00000  Uiso   1.00
C1828  C     0.94450   0.95482   0.86311   0.00000  Uiso   1.00
C1829  C     0.86539   0.70709   0.83045   0.00000  Uiso   1.00
C1830  C     0.90485   0.73568   0.84137   0.00000  Uiso   1.00
C1831  C     0.91161   0.74827   0.89049   0.00000  Uiso   1.00
C1832  C     0.76167   0.95678   0.70679   0.00000  Uiso   1.00
C1833  C     0.75893   0.92642   0.66476   0.00000  Uiso   1.00
C1834  C     0.71871   0.93223   0.63547   0.00000  Uiso   1.00
C1835  C     0.84943   0.92342   0.61251   0.00000  Uiso   1.00
C1836  C     0.83004   0.83390   0.83460   0.00000  Uiso   1.00
C1837  C     0.78315   0.76294   0.88150   0.00000  Uiso   1.00
C1838  C     0.83771   0.92351   0.89091   0.00000  Uiso   1.00
C1839  C     0.87979   0.75757   0.61759   0.00000  Uiso   1.00
C1840  C     0.70846   0.74178   0.75580   0.00000  Uiso   1.00
C1841  C     0.96535   0.90929   0.71417   0.00000  Uiso   1.00
C1842  C     0.95767   0.74237   0.74569   0.00000  Uiso   1.00
C1843  C     0.70533   0.90918   0.79047   0.00000  Uiso   1.00
C1844  C     0.80991   0.69030   0.71780   0.00000  Uiso   1.00
C1845  C     0.86219   0.97649   0.77613   0.00000  Uiso   1.00
C1846  C     0.85582   0.69087   0.78267   0.00000  Uiso   1.00
C1847  C     0.80403   0.97553   0.72404   0.00000  Uiso   1.00
C1848  C     0.68825   0.78768   0.75357   0.00000  Uiso   1.00
Cu1849 Cu    0.83333   0.88022   0.75000   0.00000  Uiso   1.00
Cu1850 Cu    0.83333   0.78645   0.75000   0.00000  Uiso   1.00
H1851  H     0.82365   0.90577   0.53042   0.00000  Uiso   1.00
H1852  H     0.82603   0.72215   0.65846   0.00000  Uiso   1.00
H1853  H     0.79498   0.67666   0.64787   0.00000  Uiso   1.00
H1854  H     0.97001   0.97492   0.85133   0.00000  Uiso   1.00
H1855  H     0.92547   0.97771   0.88144   0.00000  Uiso   1.00
H1856  H     0.95773   0.92865   0.88674   0.00000  Uiso   1.00
H1857  H     0.93833   0.90257   0.81384   0.00000  Uiso   1.00
H1858  H     0.89230   0.91472   0.83712   0.00000  Uiso   1.00
H1859  H     0.91416   0.94712   0.75377   0.00000  Uiso   1.00
H1860  H     0.92695   0.99216   0.78676   0.00000  Uiso   1.00
H1861  H     0.88726   0.77141   0.89962   0.00000  Uiso   1.00
H1862  H     0.80283   0.76842   0.96924   0.00000  Uiso   1.00
H1863  H     0.91189   0.71713   0.91135   0.00000  Uiso   1.00
H1864  H     0.94141   0.76643   0.89754   0.00000  Uiso   1.00
H1865  H     0.93180   0.71610   0.83344   0.00000  Uiso   1.00
H1866  H     0.90417   0.76783   0.82263   0.00000  Uiso   1.00
H1867  H     0.83830   0.72285   0.84208   0.00000  Uiso   1.00
H1868  H     0.86814   0.67653   0.85200   0.00000  Uiso   1.00
H1869  H     0.69287   0.91908   0.65257   0.00000  Uiso   1.00
H1870  H     0.71364   0.96889   0.62668   0.00000  Uiso   1.00
H1871  H     0.71975   0.91206   0.60442   0.00000  Uiso   1.00
H1872  H     0.78368   0.93536   0.64478   0.00000  Uiso   1.00
H1873  H     0.85866   0.90216   0.97235   0.00000  Uiso   1.00
H1874  H     0.76133   0.88960   0.67307   0.00000  Uiso   1.00
H1875  H     0.74680   0.94139   0.73348   0.00000  Uiso   1.00
H1876  H     0.74081   0.98595   0.70010   0.00000  Uiso   1.00
H1877  H     0.83486   0.95309   0.59634   0.00000  Uiso   1.00
H1878  H     0.77015   0.76952   0.84815   0.00000  Uiso   1.00
H1879  H     0.86091   0.94776   0.90466   0.00000  Uiso   1.00
H1880  H     0.89294   0.76239   0.65131   0.00000  Uiso   1.00
H1881  H     0.69893   0.71568   0.73121   0.00000  Uiso   1.00
H1882  H     0.93761   0.90441   0.69216   0.00000  Uiso   1.00
H1883  H     0.96605   0.71748   0.77117   0.00000  Uiso   1.00
H1884  H     0.85930   0.76442   0.53019   0.00000  Uiso   1.00
H1885  H     0.73522   0.90589   0.80888   0.00000  Uiso   1.00
H1886  H     0.77743   0.76301   0.59796   0.00000  Uiso   1.00
H1887  H     0.74619   0.71144   0.59248   0.00000  Uiso   1.00
H1888  H     0.72365   0.76589   0.60439   0.00000  Uiso   1.00
H1889  H     0.73314   0.71896   0.67111   0.00000  Uiso   1.00
H1890  H     0.76330   0.76995   0.67662   0.00000  Uiso   1.00
N1891  N     0.83333   0.95069   0.75000   0.00000  Uiso   1.00
N1892  N     0.83333   0.71598   0.75000   0.00000  Uiso   1.00
O1893  O     0.77321   0.87291   0.74999   0.00000  Uiso   1.00
O1894  O     0.77523   0.72671   0.89892   0.00000  Uiso   1.00
O1895  O     0.81013   0.93714   0.86434   0.00000  Uiso   1.00
O1896  O     0.88488   0.72104   0.59892   0.00000  Uiso   1.00
O1897  O     0.73249   0.73116   0.78721   0.00000  Uiso   1.00
O1898  O     0.98393   0.94566   0.71291   0.00000  Uiso   1.00
O1899  O     0.93475   0.73077   0.71339   0.00000  Uiso   1.00
O1900  O     0.68584   0.94391   0.79605   0.00000  Uiso   1.00
O1901  O     0.89345   0.79375   0.75000   0.00000  Uiso   1.00
O1902  O     0.89345   0.87291   0.75000   0.00000  Uiso   1.00
O1903  O     0.77321   0.79375   0.74999   0.00000  Uiso   1.00
O1904  O     0.83333   0.87293   0.68573   0.00000  Uiso   1.00
O1905  O     0.83334   0.79374   0.81427   0.00000  Uiso   1.00
O1906  O     0.83334   0.87293   0.81427   0.00000  Uiso   1.00
O1907  O     0.83333   0.79374   0.68573   0.00000  Uiso   1.00
O1908  O     0.87523   0.92986   0.64378   0.00000  Uiso   1.00
loop_
_geom_bond_atom_site_label_1
_geom_bond_atom_site_label_2
_geom_bond_distance
_geom_bond_site_symmetry_2
_ccdc_geom_bond_type
C1     C19     1.481   .     S
C1     O101    1.301   .     A
C1     O91     1.325   .     A
C2     C18     1.407   .     A
C2     C39     1.482   .     S
C2     C110    1.398   .     S
C3     C18     1.428   .     A
C3     C40     1.487   .     S
C3     C152    1.406   .     S
C4     C41     1.489   .     S
C4     C19     1.404   .     A
C4     C214    1.398   1_455 S
C5     H49     1.083   .     S
C5     C9      1.389   .     A
C5     C16     1.398   .     A
C6     H60     1.084   .     S
C6     C17     1.397   .     A
C6     C10     1.404   .     A
C7     C11     1.387   .     A
C7     H71     1.084   .     S
C7     C17     1.396   .     A
C8     C13     1.404   .     A
C8     H82     1.084   .     S
C8     C16     1.397   .     A
C9     C33     1.484   .     S
C9     C14     1.423   .     A
C10    C15     1.421   .     A
C10    C35     1.476   .     S
C11    C36     1.480   .     S
C11    C15     1.424   .     A
C12    O99     1.302   .     A
C12    O100    1.329   .     A
C12    C18     1.490   .     S
C13    C37     1.477   .     S
C13    C14     1.421   .     A
C14    C23     1.498   .     S
C15    C34     1.496   .     S
C16    C971    1.474   1_554 S
C17    C970    1.474   .     S
C19    C46     1.426   .     A
C20    H51     1.106   .     S
C20    H50     1.088   .     S
C20    C42     1.530   .     S
C20    C21     1.543   .     S
C21    H87     1.101   .     S
C21    C22     1.527   .     S
C21    H88     1.097   .     S
C22    H85     1.111   .     S
C22    H84     1.108   .     S
C22    H86     1.111   .     S
C23    O102    1.309   .     A
C23    O105    1.327   .     A
C24    H57     1.086   .     S
C24    C25     1.545   .     S
C24    H58     1.100   .     S
C24    C43     1.517   .     S
C25    H56     1.092   .     S
C25    C26     1.530   .     S
C25    H55     1.108   .     S
C26    H54     1.111   .     S
C26    H52     1.109   .     S
C26    H53     1.103   .     S
C27    H65     1.093   .     S
C27    H66     1.107   .     S
C27    C28     1.541   .     S
C27    C44     1.524   .     S
C28    H64     1.098   .     S
C28    C29     1.527   .     S
C28    H63     1.103   .     S
C29    H61     1.109   .     S
C29    H62     1.110   .     S
C29    H59     1.105   .     S
C30    C45     1.531   .     S
C30    C31     1.542   .     S
C30    H74     1.102   .     S
C30    H73     1.086   .     S
C31    H70     1.094   .     S
C31    H72     1.104   .     S
C31    C32     1.527   .     S
C32    H68     1.111   .     S
C32    H67     1.107   .     S
C32    H69     1.111   .     S
C33    H75     1.086   .     S
C33    O106    1.219   .     D
C34    O104    1.306   .     A
C34    O103    1.328   .     A
C35    O92     1.222   .     D
C35    H76     1.078   .     S
C36    O93     1.221   .     D
C36    H77     1.085   .     S
C37    H78     1.078   .     S
C37    O94     1.222   .     D
C38    O95     1.218   .     D
C38    C46     1.495   .     S
C38    H79     1.083   .     S
C39    H80     1.082   .     S
C39    O96     1.221   .     D
C40    O97     1.219   .     D
C40    H81     1.081   .     S
C41    H83     1.085   .     S
C41    O98     1.220   .     D
C42    N90     1.391   .     A
C42    C681    1.429   1_545 S
C43    N89     1.386   .     A
C43    C362    1.421   .     S
C44    N90     1.390   .     A
C44    C679    1.421   1_545 S
C45    N89     1.391   .     A
C45    C360    1.429   .     S
C46    C215    1.406   1_455 S
Cu47   O102    1.962   .     S
Cu47   N89     2.051   .     S
Cu47   O100    1.988   .     S
Cu47   Cu48    2.729   .     S
Cu47   O104    1.966   .     S
Cu47   O91     1.985   .     S
Cu48   O99     1.985   .     S
Cu48   O105    1.966   .     S
Cu48   N90     2.051   .     S
Cu48   O103    1.962   .     S
Cu48   O101    1.988   .     S
C107   C125    1.481   .     S
C107   O207    1.301   .     A
C107   O197    1.325   .     A
C108   C124    1.407   .     A
C108   C145    1.482   .     S
C108   C216    1.398   .     S
C109   C124    1.428   .     A
C109   C146    1.487   .     S
C109   C258    1.406   .     S
C110   C147    1.489   .     S
C110   C125    1.404   .     A
C111   H155    1.083   .     S
C111   C115    1.389   .     A
C111   C122    1.398   .     A
C112   H166    1.084   .     S
C112   C123    1.397   .     A
C112   C116    1.404   .     A
C113   C117    1.387   .     A
C113   H177    1.084   .     S
C113   C123    1.396   .     A
C114   C119    1.404   .     A
C114   H188    1.084   .     S
C114   C122    1.397   .     A
C115   C139    1.484   .     S
C115   C120    1.423   .     A
C116   C121    1.421   .     A
C116   C141    1.476   .     S
C117   C142    1.480   .     S
C117   C121    1.424   .     A
C118   O205    1.302   .     A
C118   O206    1.329   .     A
C118   C124    1.490   .     S
C119   C143    1.477   .     S
C119   C120    1.421   .     A
C120   C129    1.498   .     S
C121   C140    1.496   .     S
C122   C1077   1.474   1_554 S
C123   C1076   1.474   .     S
C125   C152    1.426   .     A
C126   H157    1.106   .     S
C126   H156    1.088   .     S
C126   C148    1.530   .     S
C126   C127    1.543   .     S
C127   H193    1.101   .     S
C127   C128    1.527   .     S
C127   H194    1.097   .     S
C128   H191    1.111   .     S
C128   H190    1.108   .     S
C128   H192    1.111   .     S
C129   O208    1.309   .     A
C129   O211    1.327   .     A
C130   H163    1.086   .     S
C130   C131    1.545   .     S
C130   H164    1.100   .     S
C130   C149    1.517   .     S
C131   H162    1.092   .     S
C131   C132    1.530   .     S
C131   H161    1.108   .     S
C132   H160    1.111   .     S
C132   H158    1.109   .     S
C132   H159    1.103   .     S
C133   H171    1.093   .     S
C133   H172    1.107   .     S
C133   C134    1.541   .     S
C133   C150    1.524   .     S
C134   H170    1.098   .     S
C134   C135    1.527   .     S
C134   H169    1.103   .     S
C135   H167    1.109   .     S
C135   H168    1.110   .     S
C135   H165    1.105   .     S
C136   C151    1.531   .     S
C136   C137    1.542   .     S
C136   H180    1.102   .     S
C136   H179    1.086   .     S
C137   H176    1.094   .     S
C137   H178    1.104   .     S
C137   C138    1.527   .     S
C138   H174    1.111   .     S
C138   H173    1.107   .     S
C138   H175    1.111   .     S
C139   H181    1.086   .     S
C139   O212    1.219   .     D
C140   O210    1.306   .     A
C140   O209    1.328   .     A
C141   O198    1.222   .     D
C141   H182    1.078   .     S
C142   O199    1.221   .     D
C142   H183    1.085   .     S
C143   H184    1.078   .     S
C143   O200    1.222   .     D
C144   O201    1.218   .     D
C144   C152    1.495   .     S
C144   H185    1.083   .     S
C145   H186    1.082   .     S
C145   O202    1.221   .     D
C146   O203    1.219   .     D
C146   H187    1.081   .     S
C147   H189    1.085   .     S
C147   O204    1.220   .     D
C148   N196    1.391   .     A
C148   C787    1.429   1_545 S
C149   N195    1.386   .     A
C149   C468    1.421   .     S
C150   N196    1.390   .     A
C150   C785    1.421   1_545 S
C151   N195    1.391   .     A
C151   C466    1.429   .     S
Cu153  O208    1.962   .     S
Cu153  N195    2.051   .     S
Cu153  O206    1.988   .     S
Cu153  Cu154   2.729   .     S
Cu153  O210    1.966   .     S
Cu153  O197    1.985   .     S
Cu154  O205    1.985   .     S
Cu154  O211    1.966   .     S
Cu154  N196    2.051   .     S
Cu154  O209    1.962   .     S
Cu154  O207    1.988   .     S
C213   C231    1.481   .     S
C213   O313    1.301   .     A
C213   O303    1.325   .     A
C214   C230    1.407   .     A
C214   C251    1.482   .     S
C214   C4      1.398   1_655 S
C215   C230    1.428   .     A
C215   C252    1.487   .     S
C215   C46     1.406   1_655 S
C216   C253    1.489   .     S
C216   C231    1.404   .     A
C217   H261    1.083   .     S
C217   C221    1.389   .     A
C217   C228    1.398   .     A
C218   H272    1.084   .     S
C218   C229    1.397   .     A
C218   C222    1.404   .     A
C219   C223    1.387   .     A
C219   H283    1.084   .     S
C219   C229    1.396   .     A
C220   C225    1.404   .     A
C220   H294    1.084   .     S
C220   C228    1.397   .     A
C221   C245    1.484   .     S
C221   C226    1.423   .     A
C222   C227    1.421   .     A
C222   C247    1.476   .     S
C223   C248    1.480   .     S
C223   C227    1.424   .     A
C224   O311    1.302   .     A
C224   O312    1.329   .     A
C224   C230    1.490   .     S
C225   C249    1.477   .     S
C225   C226    1.421   .     A
C226   C235    1.498   .     S
C227   C246    1.496   .     S
C228   C1183   1.474   1_554 S
C229   C1182   1.474   .     S
C231   C258    1.426   .     A
C232   H263    1.106   .     S
C232   H262    1.088   .     S
C232   C254    1.530   .     S
C232   C233    1.543   .     S
C233   H299    1.101   .     S
C233   C234    1.527   .     S
C233   H300    1.097   .     S
C234   H297    1.111   .     S
C234   H296    1.108   .     S
C234   H298    1.111   .     S
C235   O314    1.309   .     A
C235   O317    1.327   .     A
C236   H269    1.086   .     S
C236   C237    1.545   .     S
C236   H270    1.100   .     S
C236   C255    1.517   .     S
C237   H268    1.092   .     S
C237   C238    1.530   .     S
C237   H267    1.108   .     S
C238   H266    1.111   .     S
C238   H264    1.109   .     S
C238   H265    1.103   .     S
C239   H277    1.093   .     S
C239   H278    1.107   .     S
C239   C240    1.541   .     S
C239   C256    1.524   .     S
C240   H276    1.098   .     S
C240   C241    1.527   .     S
C240   H275    1.103   .     S
C241   H273    1.109   .     S
C241   H274    1.110   .     S
C241   H271    1.105   .     S
C242   C257    1.531   .     S
C242   C243    1.542   .     S
C242   H286    1.102   .     S
C242   H285    1.086   .     S
C243   H282    1.094   .     S
C243   H284    1.104   .     S
C243   C244    1.527   .     S
C244   H280    1.111   .     S
C244   H279    1.107   .     S
C244   H281    1.111   .     S
C245   H287    1.086   .     S
C245   O318    1.219   .     D
C246   O316    1.306   .     A
C246   O315    1.328   .     A
C247   O304    1.222   .     D
C247   H288    1.078   .     S
C248   O305    1.221   .     D
C248   H289    1.085   .     S
C249   H290    1.078   .     S
C249   O306    1.222   .     D
C250   O307    1.218   .     D
C250   C258    1.495   .     S
C250   H291    1.083   .     S
C251   H292    1.082   .     S
C251   O308    1.221   .     D
C252   O309    1.219   .     D
C252   H293    1.081   .     S
C253   H295    1.085   .     S
C253   O310    1.220   .     D
C254   N302    1.391   .     A
C254   C893    1.429   1_545 S
C255   N301    1.386   .     A
C255   C574    1.421   .     S
C256   N302    1.390   .     A
C256   C891    1.421   1_545 S
C257   N301    1.391   .     A
C257   C572    1.429   .     S
Cu259  O314    1.962   .     S
Cu259  N301    2.051   .     S
Cu259  O312    1.988   .     S
Cu259  Cu260   2.729   .     S
Cu259  O316    1.966   .     S
Cu259  O303    1.985   .     S
Cu260  O311    1.985   .     S
Cu260  O317    1.966   .     S
Cu260  N302    2.051   .     S
Cu260  O315    1.962   .     S
Cu260  O313    1.988   .     S
C319   C337    1.481   .     S
C319   O419    1.301   .     A
C319   O409    1.325   .     A
C320   C336    1.407   .     A
C320   C357    1.482   .     S
C320   C428    1.398   .     S
C321   C336    1.428   .     A
C321   C358    1.487   .     S
C321   C470    1.406   .     S
C322   C359    1.489   .     S
C322   C337    1.404   .     A
C322   C532    1.398   1_455 S
C323   H367    1.083   .     S
C323   C327    1.389   .     A
C323   C334    1.398   .     A
C324   H378    1.084   .     S
C324   C335    1.397   .     A
C324   C328    1.404   .     A
C325   C329    1.387   .     A
C325   H389    1.084   .     S
C325   C335    1.396   .     A
C326   C331    1.404   .     A
C326   H400    1.084   .     S
C326   C334    1.397   .     A
C327   C351    1.484   .     S
C327   C332    1.423   .     A
C328   C333    1.421   .     A
C328   C353    1.476   .     S
C329   C354    1.480   .     S
C329   C333    1.424   .     A
C330   O417    1.302   .     A
C330   O418    1.329   .     A
C330   C336    1.490   .     S
C331   C355    1.477   .     S
C331   C332    1.421   .     A
C332   C341    1.498   .     S
C333   C352    1.496   .     S
C334   C1289   1.474   1_554 S
C335   C1288   1.474   .     S
C337   C364    1.426   .     A
C338   H369    1.106   .     S
C338   H368    1.088   .     S
C338   C360    1.530   .     S
C338   C339    1.543   .     S
C339   H405    1.101   .     S
C339   C340    1.527   .     S
C339   H406    1.097   .     S
C340   H403    1.111   .     S
C340   H402    1.108   .     S
C340   H404    1.111   .     S
C341   O420    1.309   .     A
C341   O423    1.327   .     A
C342   H375    1.086   .     S
C342   C343    1.545   .     S
C342   H376    1.100   .     S
C342   C361    1.517   .     S
C343   H374    1.092   .     S
C343   C344    1.530   .     S
C343   H373    1.108   .     S
C344   H372    1.111   .     S
C344   H370    1.109   .     S
C344   H371    1.103   .     S
C345   H383    1.093   .     S
C345   H384    1.107   .     S
C345   C346    1.541   .     S
C345   C362    1.524   .     S
C346   H382    1.098   .     S
C346   C347    1.527   .     S
C346   H381    1.103   .     S
C347   H379    1.109   .     S
C347   H380    1.110   .     S
C347   H377    1.105   .     S
C348   C363    1.531   .     S
C348   C349    1.542   .     S
C348   H392    1.102   .     S
C348   H391    1.086   .     S
C349   H388    1.094   .     S
C349   H390    1.104   .     S
C349   C350    1.527   .     S
C350   H386    1.111   .     S
C350   H385    1.107   .     S
C350   H387    1.111   .     S
C351   H393    1.086   .     S
C351   O424    1.219   .     D
C352   O422    1.306   .     A
C352   O421    1.328   .     A
C353   O410    1.222   .     D
C353   H394    1.078   .     S
C354   O411    1.221   .     D
C354   H395    1.085   .     S
C355   H396    1.078   .     S
C355   O412    1.222   .     D
C356   O413    1.218   .     D
C356   C364    1.495   .     S
C356   H397    1.083   .     S
C357   H398    1.082   .     S
C357   O414    1.221   .     D
C358   O415    1.219   .     D
C358   H399    1.081   .     S
C359   H401    1.085   .     S
C359   O416    1.220   .     D
C360   N408    1.391   .     A
C361   N407    1.386   .     A
C361   C680    1.421   .     S
C362   N408    1.390   .     A
C363   N407    1.391   .     A
C363   C678    1.429   .     S
C364   C533    1.406   1_455 S
Cu365  O420    1.962   .     S
Cu365  N407    2.051   .     S
Cu365  O418    1.988   .     S
Cu365  Cu366   2.729   .     S
Cu365  O422    1.966   .     S
Cu365  O409    1.985   .     S
Cu366  O417    1.985   .     S
Cu366  O423    1.966   .     S
Cu366  N408    2.051   .     S
Cu366  O421    1.962   .     S
Cu366  O419    1.988   .     S
C425   C443    1.481   .     S
C425   O525    1.301   .     A
C425   O515    1.325   .     A
C426   C442    1.407   .     A
C426   C463    1.482   .     S
C426   C534    1.398   .     S
C427   C442    1.428   .     A
C427   C464    1.487   .     S
C427   C576    1.406   .     S
C428   C465    1.489   .     S
C428   C443    1.404   .     A
C429   H473    1.083   .     S
C429   C433    1.389   .     A
C429   C440    1.398   .     A
C430   H484    1.084   .     S
C430   C441    1.397   .     A
C430   C434    1.404   .     A
C431   C435    1.387   .     A
C431   H495    1.084   .     S
C431   C441    1.396   .     A
C432   C437    1.404   .     A
C432   H506    1.084   .     S
C432   C440    1.397   .     A
C433   C457    1.484   .     S
C433   C438    1.423   .     A
C434   C439    1.421   .     A
C434   C459    1.476   .     S
C435   C460    1.480   .     S
C435   C439    1.424   .     A
C436   O523    1.302   .     A
C436   O524    1.329   .     A
C436   C442    1.490   .     S
C437   C461    1.477   .     S
C437   C438    1.421   .     A
C438   C447    1.498   .     S
C439   C458    1.496   .     S
C440   C1395   1.474   1_554 S
C441   C1394   1.474   .     S
C443   C470    1.426   .     A
C444   H475    1.106   .     S
C444   H474    1.088   .     S
C444   C466    1.530   .     S
C444   C445    1.543   .     S
C445   H511    1.101   .     S
C445   C446    1.527   .     S
C445   H512    1.097   .     S
C446   H509    1.111   .     S
C446   H508    1.108   .     S
C446   H510    1.111   .     S
C447   O526    1.309   .     A
C447   O529    1.327   .     A
C448   H481    1.086   .     S
C448   C449    1.545   .     S
C448   H482    1.100   .     S
C448   C467    1.517   .     S
C449   H480    1.092   .     S
C449   C450    1.530   .     S
C449   H479    1.108   .     S
C450   H478    1.111   .     S
C450   H476    1.109   .     S
C450   H477    1.103   .     S
C451   H489    1.093   .     S
C451   H490    1.107   .     S
C451   C452    1.541   .     S
C451   C468    1.524   .     S
C452   H488    1.098   .     S
C452   C453    1.527   .     S
C452   H487    1.103   .     S
C453   H485    1.109   .     S
C453   H486    1.110   .     S
C453   H483    1.105   .     S
C454   C469    1.531   .     S
C454   C455    1.542   .     S
C454   H498    1.102   .     S
C454   H497    1.086   .     S
C455   H494    1.094   .     S
C455   H496    1.104   .     S
C455   C456    1.527   .     S
C456   H492    1.111   .     S
C456   H491    1.107   .     S
C456   H493    1.111   .     S
C457   H499    1.086   .     S
C457   O530    1.219   .     D
C458   O528    1.306   .     A
C458   O527    1.328   .     A
C459   O516    1.222   .     D
C459   H500    1.078   .     S
C460   O517    1.221   .     D
C460   H501    1.085   .     S
C461   H502    1.078   .     S
C461   O518    1.222   .     D
C462   O519    1.218   .     D
C462   C470    1.495   .     S
C462   H503    1.083   .     S
C463   H504    1.082   .     S
C463   O520    1.221   .     D
C464   O521    1.219   .     D
C464   H505    1.081   .     S
C465   H507    1.085   .     S
C465   O522    1.220   .     D
C466   N514    1.391   .     A
C467   N513    1.386   .     A
C467   C786    1.421   .     S
C468   N514    1.390   .     A
C469   N513    1.391   .     A
C469   C784    1.429   .     S
Cu471  O526    1.962   .     S
Cu471  N513    2.051   .     S
Cu471  O524    1.988   .     S
Cu471  Cu472   2.729   .     S
Cu471  O528    1.966   .     S
Cu471  O515    1.985   .     S
Cu472  O523    1.985   .     S
Cu472  O529    1.966   .     S
Cu472  N514    2.051   .     S
Cu472  O527    1.962   .     S
Cu472  O525    1.988   .     S
C531   C549    1.481   .     S
C531   O631    1.301   .     A
C531   O621    1.325   .     A
C532   C548    1.407   .     A
C532   C569    1.482   .     S
C532   C322    1.398   1_655 S
C533   C548    1.428   .     A
C533   C570    1.487   .     S
C533   C364    1.406   1_655 S
C534   C571    1.489   .     S
C534   C549    1.404   .     A
C535   H579    1.083   .     S
C535   C539    1.389   .     A
C535   C546    1.398   .     A
C536   H590    1.084   .     S
C536   C547    1.397   .     A
C536   C540    1.404   .     A
C537   C541    1.387   .     A
C537   H601    1.084   .     S
C537   C547    1.396   .     A
C538   C543    1.404   .     A
C538   H612    1.084   .     S
C538   C546    1.397   .     A
C539   C563    1.484   .     S
C539   C544    1.423   .     A
C540   C545    1.421   .     A
C540   C565    1.476   .     S
C541   C566    1.480   .     S
C541   C545    1.424   .     A
C542   O629    1.302   .     A
C542   O630    1.329   .     A
C542   C548    1.490   .     S
C543   C567    1.477   .     S
C543   C544    1.421   .     A
C544   C553    1.498   .     S
C545   C564    1.496   .     S
C546   C1501   1.474   1_554 S
C547   C1500   1.474   .     S
C549   C576    1.426   .     A
C550   H581    1.106   .     S
C550   H580    1.088   .     S
C550   C572    1.530   .     S
C550   C551    1.543   .     S
C551   H617    1.101   .     S
C551   C552    1.527   .     S
C551   H618    1.097   .     S
C552   H615    1.111   .     S
C552   H614    1.108   .     S
C552   H616    1.111   .     S
C553   O632    1.309   .     A
C553   O635    1.327   .     A
C554   H587    1.086   .     S
C554   C555    1.545   .     S
C554   H588    1.100   .     S
C554   C573    1.517   .     S
C555   H586    1.092   .     S
C555   C556    1.530   .     S
C555   H585    1.108   .     S
C556   H584    1.111   .     S
C556   H582    1.109   .     S
C556   H583    1.103   .     S
C557   H595    1.093   .     S
C557   H596    1.107   .     S
C557   C558    1.541   .     S
C557   C574    1.524   .     S
C558   H594    1.098   .     S
C558   C559    1.527   .     S
C558   H593    1.103   .     S
C559   H591    1.109   .     S
C559   H592    1.110   .     S
C559   H589    1.105   .     S
C560   C575    1.531   .     S
C560   C561    1.542   .     S
C560   H604    1.102   .     S
C560   H603    1.086   .     S
C561   H600    1.094   .     S
C561   H602    1.104   .     S
C561   C562    1.527   .     S
C562   H598    1.111   .     S
C562   H597    1.107   .     S
C562   H599    1.111   .     S
C563   H605    1.086   .     S
C563   O636    1.219   .     D
C564   O634    1.306   .     A
C564   O633    1.328   .     A
C565   O622    1.222   .     D
C565   H606    1.078   .     S
C566   O623    1.221   .     D
C566   H607    1.085   .     S
C567   H608    1.078   .     S
C567   O624    1.222   .     D
C568   O625    1.218   .     D
C568   C576    1.495   .     S
C568   H609    1.083   .     S
C569   H610    1.082   .     S
C569   O626    1.221   .     D
C570   O627    1.219   .     D
C570   H611    1.081   .     S
C571   H613    1.085   .     S
C571   O628    1.220   .     D
C572   N620    1.391   .     A
C573   N619    1.386   .     A
C573   C892    1.421   .     S
C574   N620    1.390   .     A
C575   N619    1.391   .     A
C575   C890    1.429   .     S
Cu577  O632    1.962   .     S
Cu577  N619    2.051   .     S
Cu577  O630    1.988   .     S
Cu577  Cu578   2.729   .     S
Cu577  O634    1.966   .     S
Cu577  O621    1.985   .     S
Cu578  O629    1.985   .     S
Cu578  O635    1.966   .     S
Cu578  N620    2.051   .     S
Cu578  O633    1.962   .     S
Cu578  O631    1.988   .     S
C637   C655    1.481   .     S
C637   O737    1.301   .     A
C637   O727    1.325   .     A
C638   C654    1.407   .     A
C638   C675    1.482   .     S
C638   C746    1.398   .     S
C639   C654    1.428   .     A
C639   C676    1.487   .     S
C639   C788    1.406   .     S
C640   C677    1.489   .     S
C640   C655    1.404   .     A
C640   C850    1.398   1_455 S
C641   H685    1.083   .     S
C641   C645    1.389   .     A
C641   C652    1.398   .     A
C642   H696    1.084   .     S
C642   C653    1.397   .     A
C642   C646    1.404   .     A
C643   C647    1.387   .     A
C643   H707    1.084   .     S
C643   C653    1.396   .     A
C644   C649    1.404   .     A
C644   H718    1.084   .     S
C644   C652    1.397   .     A
C645   C669    1.484   .     S
C645   C650    1.423   .     A
C646   C651    1.421   .     A
C646   C671    1.476   .     S
C647   C672    1.480   .     S
C647   C651    1.424   .     A
C648   O735    1.302   .     A
C648   O736    1.329   .     A
C648   C654    1.490   .     S
C649   C673    1.477   .     S
C649   C650    1.421   .     A
C650   C659    1.498   .     S
C651   C670    1.496   .     S
C652   C1607   1.474   1_554 S
C653   C1606   1.474   .     S
C655   C682    1.426   .     A
C656   H687    1.106   .     S
C656   H686    1.088   .     S
C656   C678    1.530   .     S
C656   C657    1.543   .     S
C657   H723    1.101   .     S
C657   C658    1.527   .     S
C657   H724    1.097   .     S
C658   H721    1.111   .     S
C658   H720    1.108   .     S
C658   H722    1.111   .     S
C659   O738    1.309   .     A
C659   O741    1.327   .     A
C660   H693    1.086   .     S
C660   C661    1.545   .     S
C660   H694    1.100   .     S
C660   C679    1.517   .     S
C661   H692    1.092   .     S
C661   C662    1.530   .     S
C661   H691    1.108   .     S
C662   H690    1.111   .     S
C662   H688    1.109   .     S
C662   H689    1.103   .     S
C663   H701    1.093   .     S
C663   H702    1.107   .     S
C663   C664    1.541   .     S
C663   C680    1.524   .     S
C664   H700    1.098   .     S
C664   C665    1.527   .     S
C664   H699    1.103   .     S
C665   H697    1.109   .     S
C665   H698    1.110   .     S
C665   H695    1.105   .     S
C666   C681    1.531   .     S
C666   C667    1.542   .     S
C666   H710    1.102   .     S
C666   H709    1.086   .     S
C667   H706    1.094   .     S
C667   H708    1.104   .     S
C667   C668    1.527   .     S
C668   H704    1.111   .     S
C668   H703    1.107   .     S
C668   H705    1.111   .     S
C669   H711    1.086   .     S
C669   O742    1.219   .     D
C670   O740    1.306   .     A
C670   O739    1.328   .     A
C671   O728    1.222   .     D
C671   H712    1.078   .     S
C672   O729    1.221   .     D
C672   H713    1.085   .     S
C673   H714    1.078   .     S
C673   O730    1.222   .     D
C674   O731    1.218   .     D
C674   C682    1.495   .     S
C674   H715    1.083   .     S
C675   H716    1.082   .     S
C675   O732    1.221   .     D
C676   O733    1.219   .     D
C676   H717    1.081   .     S
C677   H719    1.085   .     S
C677   O734    1.220   .     D
C678   N726    1.391   .     A
C679   N725    1.386   .     A
C679   C44     1.421   1_565 S
C680   N726    1.390   .     A
C681   N725    1.391   .     A
C681   C42     1.429   1_565 S
C682   C851    1.406   1_455 S
Cu683  O738    1.962   .     S
Cu683  N725    2.051   .     S
Cu683  O736    1.988   .     S
Cu683  Cu684   2.729   .     S
Cu683  O740    1.966   .     S
Cu683  O727    1.985   .     S
Cu684  O735    1.985   .     S
Cu684  O741    1.966   .     S
Cu684  N726    2.051   .     S
Cu684  O739    1.962   .     S
Cu684  O737    1.988   .     S
C743   C761    1.481   .     S
C743   O843    1.301   .     A
C743   O833    1.325   .     A
C744   C760    1.407   .     A
C744   C781    1.482   .     S
C744   C852    1.398   .     S
C745   C760    1.428   .     A
C745   C782    1.487   .     S
C745   C894    1.406   .     S
C746   C783    1.489   .     S
C746   C761    1.404   .     A
C747   H791    1.083   .     S
C747   C751    1.389   .     A
C747   C758    1.398   .     A
C748   H802    1.084   .     S
C748   C759    1.397   .     A
C748   C752    1.404   .     A
C749   C753    1.387   .     A
C749   H813    1.084   .     S
C749   C759    1.396   .     A
C750   C755    1.404   .     A
C750   H824    1.084   .     S
C750   C758    1.397   .     A
C751   C775    1.484   .     S
C751   C756    1.423   .     A
C752   C757    1.421   .     A
C752   C777    1.476   .     S
C753   C778    1.480   .     S
C753   C757    1.424   .     A
C754   O841    1.302   .     A
C754   O842    1.329   .     A
C754   C760    1.490   .     S
C755   C779    1.477   .     S
C755   C756    1.421   .     A
C756   C765    1.498   .     S
C757   C776    1.496   .     S
C758   C1713   1.474   1_554 S
C759   C1712   1.474   .     S
C761   C788    1.426   .     A
C762   H793    1.106   .     S
C762   H792    1.088   .     S
C762   C784    1.530   .     S
C762   C763    1.543   .     S
C763   H829    1.101   .     S
C763   C764    1.527   .     S
C763   H830    1.097   .     S
C764   H827    1.111   .     S
C764   H826    1.108   .     S
C764   H828    1.111   .     S
C765   O844    1.309   .     A
C765   O847    1.327   .     A
C766   H799    1.086   .     S
C766   C767    1.545   .     S
C766   H800    1.100   .     S
C766   C785    1.517   .     S
C767   H798    1.092   .     S
C767   C768    1.530   .     S
C767   H797    1.108   .     S
C768   H796    1.111   .     S
C768   H794    1.109   .     S
C768   H795    1.103   .     S
C769   H807    1.093   .     S
C769   H808    1.107   .     S
C769   C770    1.541   .     S
C769   C786    1.524   .     S
C770   H806    1.098   .     S
C770   C771    1.527   .     S
C770   H805    1.103   .     S
C771   H803    1.109   .     S
C771   H804    1.110   .     S
C771   H801    1.105   .     S
C772   C787    1.531   .     S
C772   C773    1.542   .     S
C772   H816    1.102   .     S
C772   H815    1.086   .     S
C773   H812    1.094   .     S
C773   H814    1.104   .     S
C773   C774    1.527   .     S
C774   H810    1.111   .     S
C774   H809    1.107   .     S
C774   H811    1.111   .     S
C775   H817    1.086   .     S
C775   O848    1.219   .     D
C776   O846    1.306   .     A
C776   O845    1.328   .     A
C777   O834    1.222   .     D
C777   H818    1.078   .     S
C778   O835    1.221   .     D
C778   H819    1.085   .     S
C779   H820    1.078   .     S
C779   O836    1.222   .     D
C780   O837    1.218   .     D
C780   C788    1.495   .     S
C780   H821    1.083   .     S
C781   H822    1.082   .     S
C781   O838    1.221   .     D
C782   O839    1.219   .     D
C782   H823    1.081   .     S
C783   H825    1.085   .     S
C783   O840    1.220   .     D
C784   N832    1.391   .     A
C785   N831    1.386   .     A
C785   C150    1.421   1_565 S
C786   N832    1.390   .     A
C787   N831    1.391   .     A
C787   C148    1.429   1_565 S
Cu789  O844    1.962   .     S
Cu789  N831    2.051   .     S
Cu789  O842    1.988   .     S
Cu789  Cu790   2.729   .     S
Cu789  O846    1.966   .     S
Cu789  O833    1.985   .     S
Cu790  O841    1.985   .     S
Cu790  O847    1.966   .     S
Cu790  N832    2.051   .     S
Cu790  O845    1.962   .     S
Cu790  O843    1.988   .     S
C849   C867    1.481   .     S
C849   O949    1.301   .     A
C849   O939    1.325   .     A
C850   C866    1.407   .     A
C850   C887    1.482   .     S
C850   C640    1.398   1_655 S
C851   C866    1.428   .     A
C851   C888    1.487   .     S
C851   C682    1.406   1_655 S
C852   C889    1.489   .     S
C852   C867    1.404   .     A
C853   H897    1.083   .     S
C853   C857    1.389   .     A
C853   C864    1.398   .     A
C854   H908    1.084   .     S
C854   C865    1.397   .     A
C854   C858    1.404   .     A
C855   C859    1.387   .     A
C855   H919    1.084   .     S
C855   C865    1.396   .     A
C856   C861    1.404   .     A
C856   H930    1.084   .     S
C856   C864    1.397   .     A
C857   C881    1.484   .     S
C857   C862    1.423   .     A
C858   C863    1.421   .     A
C858   C883    1.476   .     S
C859   C884    1.480   .     S
C859   C863    1.424   .     A
C860   O947    1.302   .     A
C860   O948    1.329   .     A
C860   C866    1.490   .     S
C861   C885    1.477   .     S
C861   C862    1.421   .     A
C862   C871    1.498   .     S
C863   C882    1.496   .     S
C864   C1819   1.474   1_554 S
C865   C1818   1.474   .     S
C867   C894    1.426   .     A
C868   H899    1.106   .     S
C868   H898    1.088   .     S
C868   C890    1.530   .     S
C868   C869    1.543   .     S
C869   H935    1.101   .     S
C869   C870    1.527   .     S
C869   H936    1.097   .     S
C870   H933    1.111   .     S
C870   H932    1.108   .     S
C870   H934    1.111   .     S
C871   O950    1.309   .     A
C871   O953    1.327   .     A
C872   H905    1.086   .     S
C872   C873    1.545   .     S
C872   H906    1.100   .     S
C872   C891    1.517   .     S
C873   H904    1.092   .     S
C873   C874    1.530   .     S
C873   H903    1.108   .     S
C874   H902    1.111   .     S
C874   H900    1.109   .     S
C874   H901    1.103   .     S
C875   H913    1.093   .     S
C875   H914    1.107   .     S
C875   C876    1.541   .     S
C875   C892    1.524   .     S
C876   H912    1.098   .     S
C876   C877    1.527   .     S
C876   H911    1.103   .     S
C877   H909    1.109   .     S
C877   H910    1.110   .     S
C877   H907    1.105   .     S
C878   C893    1.531   .     S
C878   C879    1.542   .     S
C878   H922    1.102   .     S
C878   H921    1.086   .     S
C879   H918    1.094   .     S
C879   H920    1.104   .     S
C879   C880    1.527   .     S
C880   H916    1.111   .     S
C880   H915    1.107   .     S
C880   H917    1.111   .     S
C881   H923    1.086   .     S
C881   O954    1.219   .     D
C882   O952    1.306   .     A
C882   O951    1.328   .     A
C883   O940    1.222   .     D
C883   H924    1.078   .     S
C884   O941    1.221   .     D
C884   H925    1.085   .     S
C885   H926    1.078   .     S
C885   O942    1.222   .     D
C886   O943    1.218   .     D
C886   C894    1.495   .     S
C886   H927    1.083   .     S
C887   H928    1.082   .     S
C887   O944    1.221   .     D
C888   O945    1.219   .     D
C888   H929    1.081   .     S
C889   H931    1.085   .     S
C889   O946    1.220   .     D
C890   N938    1.391   .     A
C891   N937    1.386   .     A
C891   C256    1.421   1_565 S
C892   N938    1.390   .     A
C893   N937    1.391   .     A
C893   C254    1.429   1_565 S
Cu895  O950    1.962   .     S
Cu895  N937    2.051   .     S
Cu895  O948    1.988   .     S
Cu895  Cu896   2.729   .     S
Cu895  O952    1.966   .     S
Cu895  O939    1.985   .     S
Cu896  O947    1.985   .     S
Cu896  O953    1.966   .     S
Cu896  N938    2.051   .     S
Cu896  O951    1.962   .     S
Cu896  O949    1.988   .     S
C955   C973    1.481   .     S
C955   O1055   1.301   .     A
C955   O1045   1.325   .     A
C956   C972    1.407   .     A
C956   C993    1.482   .     S
C956   C1064   1.398   .     S
C957   C972    1.428   .     A
C957   C994    1.487   .     S
C957   C1106   1.406   .     S
C958   C995    1.489   .     S
C958   C973    1.404   .     A
C958   C1168   1.398   1_455 S
C959   H1003   1.083   .     S
C959   C963    1.389   .     A
C959   C970    1.398   .     A
C960   H1014   1.084   .     S
C960   C971    1.397   .     A
C960   C964    1.404   .     A
C961   C965    1.387   .     A
C961   H1025   1.084   .     S
C961   C971    1.396   .     A
C962   C967    1.404   .     A
C962   H1036   1.084   .     S
C962   C970    1.397   .     A
C963   C987    1.484   .     S
C963   C968    1.423   .     A
C964   C969    1.421   .     A
C964   C989    1.476   .     S
C965   C990    1.480   .     S
C965   C969    1.424   .     A
C966   O1053   1.302   .     A
C966   O1054   1.329   .     A
C966   C972    1.490   .     S
C967   C991    1.477   .     S
C967   C968    1.421   .     A
C968   C977    1.498   .     S
C969   C988    1.496   .     S
C971   C16     1.474   1_556 S
C973   C1000   1.426   .     A
C974   H1005   1.106   .     S
C974   H1004   1.088   .     S
C974   C996    1.530   .     S
C974   C975    1.543   .     S
C975   H1041   1.101   .     S
C975   C976    1.527   .     S
C975   H1042   1.097   .     S
C976   H1039   1.111   .     S
C976   H1038   1.108   .     S
C976   H1040   1.111   .     S
C977   O1056   1.309   .     A
C977   O1059   1.327   .     A
C978   H1011   1.086   .     S
C978   C979    1.545   .     S
C978   H1012   1.100   .     S
C978   C997    1.517   .     S
C979   H1010   1.092   .     S
C979   C980    1.530   .     S
C979   H1009   1.108   .     S
C980   H1008   1.111   .     S
C980   H1006   1.109   .     S
C980   H1007   1.103   .     S
C981   H1019   1.093   .     S
C981   H1020   1.107   .     S
C981   C982    1.541   .     S
C981   C998    1.524   .     S
C982   H1018   1.098   .     S
C982   C983    1.527   .     S
C982   H1017   1.103   .     S
C983   H1015   1.109   .     S
C983   H1016   1.110   .     S
C983   H1013   1.105   .     S
C984   C999    1.531   .     S
C984   C985    1.542   .     S
C984   H1028   1.102   .     S
C984   H1027   1.086   .     S
C985   H1024   1.094   .     S
C985   H1026   1.104   .     S
C985   C986    1.527   .     S
C986   H1022   1.111   .     S
C986   H1021   1.107   .     S
C986   H1023   1.111   .     S
C987   H1029   1.086   .     S
C987   O1060   1.219   .     D
C988   O1058   1.306   .     A
C988   O1057   1.328   .     A
C989   O1046   1.222   .     D
C989   H1030   1.078   .     S
C990   O1047   1.221   .     D
C990   H1031   1.085   .     S
C991   H1032   1.078   .     S
C991   O1048   1.222   .     D
C992   O1049   1.218   .     D
C992   C1000   1.495   .     S
C992   H1033   1.083   .     S
C993   H1034   1.082   .     S
C993   O1050   1.221   .     D
C994   O1051   1.219   .     D
C994   H1035   1.081   .     S
C995   H1037   1.085   .     S
C995   O1052   1.220   .     D
C996   N1044   1.391   .     A
C996   C1635   1.429   1_545 S
C997   N1043   1.386   .     A
C997   C1316   1.421   .     S
C998   N1044   1.390   .     A
C998   C1633   1.421   1_545 S
C999   N1043   1.391   .     A
C999   C1314   1.429   .     S
C1000  C1169   1.406   1_455 S
Cu1001 O1056   1.962   .     S
Cu1001 N1043   2.051   .     S
Cu1001 O1054   1.988   .     S
Cu1001 Cu1002  2.729   .     S
Cu1001 O1058   1.966   .     S
Cu1001 O1045   1.985   .     S
Cu1002 O1053   1.985   .     S
Cu1002 O1059   1.966   .     S
Cu1002 N1044   2.051   .     S
Cu1002 O1057   1.962   .     S
Cu1002 O1055   1.988   .     S
C1061  C1079   1.481   .     S
C1061  O1161   1.301   .     A
C1061  O1151   1.325   .     A
C1062  C1078   1.407   .     A
C1062  C1099   1.482   .     S
C1062  C1170   1.398   .     S
C1063  C1078   1.428   .     A
C1063  C1100   1.487   .     S
C1063  C1212   1.406   .     S
C1064  C1101   1.489   .     S
C1064  C1079   1.404   .     A
C1065  H1109   1.083   .     S
C1065  C1069   1.389   .     A
C1065  C1076   1.398   .     A
C1066  H1120   1.084   .     S
C1066  C1077   1.397   .     A
C1066  C1070   1.404   .     A
C1067  C1071   1.387   .     A
C1067  H1131   1.084   .     S
C1067  C1077   1.396   .     A
C1068  C1073   1.404   .     A
C1068  H1142   1.084   .     S
C1068  C1076   1.397   .     A
C1069  C1093   1.484   .     S
C1069  C1074   1.423   .     A
C1070  C1075   1.421   .     A
C1070  C1095   1.476   .     S
C1071  C1096   1.480   .     S
C1071  C1075   1.424   .     A
C1072  O1159   1.302   .     A
C1072  O1160   1.329   .     A
C1072  C1078   1.490   .     S
C1073  C1097   1.477   .     S
C1073  C1074   1.421   .     A
C1074  C1083   1.498   .     S
C1075  C1094   1.496   .     S
C1077  C122    1.474   1_556 S
C1079  C1106   1.426   .     A
C1080  H1111   1.106   .     S
C1080  H1110   1.088   .     S
C1080  C1102   1.530   .     S
C1080  C1081   1.543   .     S
C1081  H1147   1.101   .     S
C1081  C1082   1.527   .     S
C1081  H1148   1.097   .     S
C1082  H1145   1.111   .     S
C1082  H1144   1.108   .     S
C1082  H1146   1.111   .     S
C1083  O1162   1.309   .     A
C1083  O1165   1.327   .     A
C1084  H1117   1.086   .     S
C1084  C1085   1.545   .     S
C1084  H1118   1.100   .     S
C1084  C1103   1.517   .     S
C1085  H1116   1.092   .     S
C1085  C1086   1.530   .     S
C1085  H1115   1.108   .     S
C1086  H1114   1.111   .     S
C1086  H1112   1.109   .     S
C1086  H1113   1.103   .     S
C1087  H1125   1.093   .     S
C1087  H1126   1.107   .     S
C1087  C1088   1.541   .     S
C1087  C1104   1.524   .     S
C1088  H1124   1.098   .     S
C1088  C1089   1.527   .     S
C1088  H1123   1.103   .     S
C1089  H1121   1.109   .     S
C1089  H1122   1.110   .     S
C1089  H1119   1.105   .     S
C1090  C1105   1.531   .     S
C1090  C1091   1.542   .     S
C1090  H1134   1.102   .     S
C1090  H1133   1.086   .     S
C1091  H1130   1.094   .     S
C1091  H1132   1.104   .     S
C1091  C1092   1.527   .     S
C1092  H1128   1.111   .     S
C1092  H1127   1.107   .     S
C1092  H1129   1.111   .     S
C1093  H1135   1.086   .     S
C1093  O1166   1.219   .     D
C1094  O1164   1.306   .     A
C1094  O1163   1.328   .     A
C1095  O1152   1.222   .     D
C1095  H1136   1.078   .     S
C1096  O1153   1.221   .     D
C1096  H1137   1.085   .     S
C1097  H1138   1.078   .     S
C1097  O1154   1.222   .     D
C1098  O1155   1.218   .     D
C1098  C1106   1.495   .     S
C1098  H1139   1.083   .     S
C1099  H1140   1.082   .     S
C1099  O1156   1.221   .     D
C1100  O1157   1.219   .     D
C1100  H1141   1.081   .     S
C1101  H1143   1.085   .     S
C1101  O1158   1.220   .     D
C1102  N1150   1.391   .     A
C1102  C1741   1.429   1_545 S
C1103  N1149   1.386   .     A
C1103  C1422   1.421   .     S
C1104  N1150   1.390   .     A
C1104  C1739   1.421   1_545 S
C1105  N1149   1.391   .     A
C1105  C1420   1.429   .     S
Cu1107 O1162   1.962   .     S
Cu1107 N1149   2.051   .     S
Cu1107 O1160   1.988   .     S
Cu1107 Cu1108  2.729   .     S
Cu1107 O1164   1.966   .     S
Cu1107 O1151   1.985   .     S
Cu1108 O1159   1.985   .     S
Cu1108 O1165   1.966   .     S
Cu1108 N1150   2.051   .     S
Cu1108 O1163   1.962   .     S
Cu1108 O1161   1.988   .     S
C1167  C1185   1.481   .     S
C1167  O1267   1.301   .     A
C1167  O1257   1.325   .     A
C1168  C1184   1.407   .     A
C1168  C1205   1.482   .     S
C1168  C958    1.398   1_655 S
C1169  C1184   1.428   .     A
C1169  C1206   1.487   .     S
C1169  C1000   1.406   1_655 S
C1170  C1207   1.489   .     S
C1170  C1185   1.404   .     A
C1171  H1215   1.083   .     S
C1171  C1175   1.389   .     A
C1171  C1182   1.398   .     A
C1172  H1226   1.084   .     S
C1172  C1183   1.397   .     A
C1172  C1176   1.404   .     A
C1173  C1177   1.387   .     A
C1173  H1237   1.084   .     S
C1173  C1183   1.396   .     A
C1174  C1179   1.404   .     A
C1174  H1248   1.084   .     S
C1174  C1182   1.397   .     A
C1175  C1199   1.484   .     S
C1175  C1180   1.423   .     A
C1176  C1181   1.421   .     A
C1176  C1201   1.476   .     S
C1177  C1202   1.480   .     S
C1177  C1181   1.424   .     A
C1178  O1265   1.302   .     A
C1178  O1266   1.329   .     A
C1178  C1184   1.490   .     S
C1179  C1203   1.477   .     S
C1179  C1180   1.421   .     A
C1180  C1189   1.498   .     S
C1181  C1200   1.496   .     S
C1183  C228    1.474   1_556 S
C1185  C1212   1.426   .     A
C1186  H1217   1.106   .     S
C1186  H1216   1.088   .     S
C1186  C1208   1.530   .     S
C1186  C1187   1.543   .     S
C1187  H1253   1.101   .     S
C1187  C1188   1.527   .     S
C1187  H1254   1.097   .     S
C1188  H1251   1.111   .     S
C1188  H1250   1.108   .     S
C1188  H1252   1.111   .     S
C1189  O1268   1.309   .     A
C1189  O1271   1.327   .     A
C1190  H1223   1.086   .     S
C1190  C1191   1.545   .     S
C1190  H1224   1.100   .     S
C1190  C1209   1.517   .     S
C1191  H1222   1.092   .     S
C1191  C1192   1.530   .     S
C1191  H1221   1.108   .     S
C1192  H1220   1.111   .     S
C1192  H1218   1.109   .     S
C1192  H1219   1.103   .     S
C1193  H1231   1.093   .     S
C1193  H1232   1.107   .     S
C1193  C1194   1.541   .     S
C1193  C1210   1.524   .     S
C1194  H1230   1.098   .     S
C1194  C1195   1.527   .     S
C1194  H1229   1.103   .     S
C1195  H1227   1.109   .     S
C1195  H1228   1.110   .     S
C1195  H1225   1.105   .     S
C1196  C1211   1.531   .     S
C1196  C1197   1.542   .     S
C1196  H1240   1.102   .     S
C1196  H1239   1.086   .     S
C1197  H1236   1.094   .     S
C1197  H1238   1.104   .     S
C1197  C1198   1.527   .     S
C1198  H1234   1.111   .     S
C1198  H1233   1.107   .     S
C1198  H1235   1.111   .     S
C1199  H1241   1.086   .     S
C1199  O1272   1.219   .     D
C1200  O1270   1.306   .     A
C1200  O1269   1.328   .     A
C1201  O1258   1.222   .     D
C1201  H1242   1.078   .     S
C1202  O1259   1.221   .     D
C1202  H1243   1.085   .     S
C1203  H1244   1.078   .     S
C1203  O1260   1.222   .     D
C1204  O1261   1.218   .     D
C1204  C1212   1.495   .     S
C1204  H1245   1.083   .     S
C1205  H1246   1.082   .     S
C1205  O1262   1.221   .     D
C1206  O1263   1.219   .     D
C1206  H1247   1.081   .     S
C1207  H1249   1.085   .     S
C1207  O1264   1.220   .     D
C1208  N1256   1.391   .     A
C1208  C1847   1.429   1_545 S
C1209  N1255   1.386   .     A
C1209  C1528   1.421   .     S
C1210  N1256   1.390   .     A
C1210  C1845   1.421   1_545 S
C1211  N1255   1.391   .     A
C1211  C1526   1.429   .     S
Cu1213 O1268   1.962   .     S
Cu1213 N1255   2.051   .     S
Cu1213 O1266   1.988   .     S
Cu1213 Cu1214  2.729   .     S
Cu1213 O1270   1.966   .     S
Cu1213 O1257   1.985   .     S
Cu1214 O1265   1.985   .     S
Cu1214 O1271   1.966   .     S
Cu1214 N1256   2.051   .     S
Cu1214 O1269   1.962   .     S
Cu1214 O1267   1.988   .     S
C1273  C1291   1.481   .     S
C1273  O1373   1.301   .     A
C1273  O1363   1.325   .     A
C1274  C1290   1.407   .     A
C1274  C1311   1.482   .     S
C1274  C1382   1.398   .     S
C1275  C1290   1.428   .     A
C1275  C1312   1.487   .     S
C1275  C1424   1.406   .     S
C1276  C1313   1.489   .     S
C1276  C1291   1.404   .     A
C1276  C1486   1.398   1_455 S
C1277  H1321   1.083   .     S
C1277  C1281   1.389   .     A
C1277  C1288   1.398   .     A
C1278  H1332   1.084   .     S
C1278  C1289   1.397   .     A
C1278  C1282   1.404   .     A
C1279  C1283   1.387   .     A
C1279  H1343   1.084   .     S
C1279  C1289   1.396   .     A
C1280  C1285   1.404   .     A
C1280  H1354   1.084   .     S
C1280  C1288   1.397   .     A
C1281  C1305   1.484   .     S
C1281  C1286   1.423   .     A
C1282  C1287   1.421   .     A
C1282  C1307   1.476   .     S
C1283  C1308   1.480   .     S
C1283  C1287   1.424   .     A
C1284  O1371   1.302   .     A
C1284  O1372   1.329   .     A
C1284  C1290   1.490   .     S
C1285  C1309   1.477   .     S
C1285  C1286   1.421   .     A
C1286  C1295   1.498   .     S
C1287  C1306   1.496   .     S
C1289  C334    1.474   1_556 S
C1291  C1318   1.426   .     A
C1292  H1323   1.106   .     S
C1292  H1322   1.088   .     S
C1292  C1314   1.530   .     S
C1292  C1293   1.543   .     S
C1293  H1359   1.101   .     S
C1293  C1294   1.527   .     S
C1293  H1360   1.097   .     S
C1294  H1357   1.111   .     S
C1294  H1356   1.108   .     S
C1294  H1358   1.111   .     S
C1295  O1374   1.309   .     A
C1295  O1377   1.327   .     A
C1296  H1329   1.086   .     S
C1296  C1297   1.545   .     S
C1296  H1330   1.100   .     S
C1296  C1315   1.517   .     S
C1297  H1328   1.092   .     S
C1297  C1298   1.530   .     S
C1297  H1327   1.108   .     S
C1298  H1326   1.111   .     S
C1298  H1324   1.109   .     S
C1298  H1325   1.103   .     S
C1299  H1337   1.093   .     S
C1299  H1338   1.107   .     S
C1299  C1300   1.541   .     S
C1299  C1316   1.524   .     S
C1300  H1336   1.098   .     S
C1300  C1301   1.527   .     S
C1300  H1335   1.103   .     S
C1301  H1333   1.109   .     S
C1301  H1334   1.110   .     S
C1301  H1331   1.105   .     S
C1302  C1317   1.531   .     S
C1302  C1303   1.542   .     S
C1302  H1346   1.102   .     S
C1302  H1345   1.086   .     S
C1303  H1342   1.094   .     S
C1303  H1344   1.104   .     S
C1303  C1304   1.527   .     S
C1304  H1340   1.111   .     S
C1304  H1339   1.107   .     S
C1304  H1341   1.111   .     S
C1305  H1347   1.086   .     S
C1305  O1378   1.219   .     D
C1306  O1376   1.306   .     A
C1306  O1375   1.328   .     A
C1307  O1364   1.222   .     D
C1307  H1348   1.078   .     S
C1308  O1365   1.221   .     D
C1308  H1349   1.085   .     S
C1309  H1350   1.078   .     S
C1309  O1366   1.222   .     D
C1310  O1367   1.218   .     D
C1310  C1318   1.495   .     S
C1310  H1351   1.083   .     S
C1311  H1352   1.082   .     S
C1311  O1368   1.221   .     D
C1312  O1369   1.219   .     D
C1312  H1353   1.081   .     S
C1313  H1355   1.085   .     S
C1313  O1370   1.220   .     D
C1314  N1362   1.391   .     A
C1315  N1361   1.386   .     A
C1315  C1634   1.421   .     S
C1316  N1362   1.390   .     A
C1317  N1361   1.391   .     A
C1317  C1632   1.429   .     S
C1318  C1487   1.406   1_455 S
Cu1319 O1374   1.962   .     S
Cu1319 N1361   2.051   .     S
Cu1319 O1372   1.988   .     S
Cu1319 Cu1320  2.729   .     S
Cu1319 O1376   1.966   .     S
Cu1319 O1363   1.985   .     S
Cu1320 O1371   1.985   .     S
Cu1320 O1377   1.966   .     S
Cu1320 N1362   2.051   .     S
Cu1320 O1375   1.962   .     S
Cu1320 O1373   1.988   .     S
C1379  C1397   1.481   .     S
C1379  O1479   1.301   .     A
C1379  O1469   1.325   .     A
C1380  C1396   1.407   .     A
C1380  C1417   1.482   .     S
C1380  C1488   1.398   .     S
C1381  C1396   1.428   .     A
C1381  C1418   1.487   .     S
C1381  C1530   1.406   .     S
C1382  C1419   1.489   .     S
C1382  C1397   1.404   .     A
C1383  H1427   1.083   .     S
C1383  C1387   1.389   .     A
C1383  C1394   1.398   .     A
C1384  H1438   1.084   .     S
C1384  C1395   1.397   .     A
C1384  C1388   1.404   .     A
C1385  C1389   1.387   .     A
C1385  H1449   1.084   .     S
C1385  C1395   1.396   .     A
C1386  C1391   1.404   .     A
C1386  H1460   1.084   .     S
C1386  C1394   1.397   .     A
C1387  C1411   1.484   .     S
C1387  C1392   1.423   .     A
C1388  C1393   1.421   .     A
C1388  C1413   1.476   .     S
C1389  C1414   1.480   .     S
C1389  C1393   1.424   .     A
C1390  O1477   1.302   .     A
C1390  O1478   1.329   .     A
C1390  C1396   1.490   .     S
C1391  C1415   1.477   .     S
C1391  C1392   1.421   .     A
C1392  C1401   1.498   .     S
C1393  C1412   1.496   .     S
C1395  C440    1.474   1_556 S
C1397  C1424   1.426   .     A
C1398  H1429   1.106   .     S
C1398  H1428   1.088   .     S
C1398  C1420   1.530   .     S
C1398  C1399   1.543   .     S
C1399  H1465   1.101   .     S
C1399  C1400   1.527   .     S
C1399  H1466   1.097   .     S
C1400  H1463   1.111   .     S
C1400  H1462   1.108   .     S
C1400  H1464   1.111   .     S
C1401  O1480   1.309   .     A
C1401  O1483   1.327   .     A
C1402  H1435   1.086   .     S
C1402  C1403   1.545   .     S
C1402  H1436   1.100   .     S
C1402  C1421   1.517   .     S
C1403  H1434   1.092   .     S
C1403  C1404   1.530   .     S
C1403  H1433   1.108   .     S
C1404  H1432   1.111   .     S
C1404  H1430   1.109   .     S
C1404  H1431   1.103   .     S
C1405  H1443   1.093   .     S
C1405  H1444   1.107   .     S
C1405  C1406   1.541   .     S
C1405  C1422   1.524   .     S
C1406  H1442   1.098   .     S
C1406  C1407   1.527   .     S
C1406  H1441   1.103   .     S
C1407  H1439   1.109   .     S
C1407  H1440   1.110   .     S
C1407  H1437   1.105   .     S
C1408  C1423   1.531   .     S
C1408  C1409   1.542   .     S
C1408  H1452   1.102   .     S
C1408  H1451   1.086   .     S
C1409  H1448   1.094   .     S
C1409  H1450   1.104   .     S
C1409  C1410   1.527   .     S
C1410  H1446   1.111   .     S
C1410  H1445   1.107   .     S
C1410  H1447   1.111   .     S
C1411  H1453   1.086   .     S
C1411  O1484   1.219   .     D
C1412  O1482   1.306   .     A
C1412  O1481   1.328   .     A
C1413  O1470   1.222   .     D
C1413  H1454   1.078   .     S
C1414  O1471   1.221   .     D
C1414  H1455   1.085   .     S
C1415  H1456   1.078   .     S
C1415  O1472   1.222   .     D
C1416  O1473   1.218   .     D
C1416  C1424   1.495   .     S
C1416  H1457   1.083   .     S
C1417  H1458   1.082   .     S
C1417  O1474   1.221   .     D
C1418  O1475   1.219   .     D
C1418  H1459   1.081   .     S
C1419  H1461   1.085   .     S
C1419  O1476   1.220   .     D
C1420  N1468   1.391   .     A
C1421  N1467   1.386   .     A
C1421  C1740   1.421   .     S
C1422  N1468   1.390   .     A
C1423  N1467   1.391   .     A
C1423  C1738   1.429   .     S
Cu1425 O1480   1.962   .     S
Cu1425 N1467   2.051   .     S
Cu1425 O1478   1.988   .     S
Cu1425 Cu1426  2.729   .     S
Cu1425 O1482   1.966   .     S
Cu1425 O1469   1.985   .     S
Cu1426 O1477   1.985   .     S
Cu1426 O1483   1.966   .     S
Cu1426 N1468   2.051   .     S
Cu1426 O1481   1.962   .     S
Cu1426 O1479   1.988   .     S
C1485  C1503   1.481   .     S
C1485  O1585   1.301   .     A
C1485  O1575   1.325   .     A
C1486  C1502   1.407   .     A
C1486  C1523   1.482   .     S
C1486  C1276   1.398   1_655 S
C1487  C1502   1.428   .     A
C1487  C1524   1.487   .     S
C1487  C1318   1.406   1_655 S
C1488  C1525   1.489   .     S
C1488  C1503   1.404   .     A
C1489  H1533   1.083   .     S
C1489  C1493   1.389   .     A
C1489  C1500   1.398   .     A
C1490  H1544   1.084   .     S
C1490  C1501   1.397   .     A
C1490  C1494   1.404   .     A
C1491  C1495   1.387   .     A
C1491  H1555   1.084   .     S
C1491  C1501   1.396   .     A
C1492  C1497   1.404   .     A
C1492  H1566   1.084   .     S
C1492  C1500   1.397   .     A
C1493  C1517   1.484   .     S
C1493  C1498   1.423   .     A
C1494  C1499   1.421   .     A
C1494  C1519   1.476   .     S
C1495  C1520   1.480   .     S
C1495  C1499   1.424   .     A
C1496  O1583   1.302   .     A
C1496  O1584   1.329   .     A
C1496  C1502   1.490   .     S
C1497  C1521   1.477   .     S
C1497  C1498   1.421   .     A
C1498  C1507   1.498   .     S
C1499  C1518   1.496   .     S
C1501  C546    1.474   1_556 S
C1503  C1530   1.426   .     A
C1504  H1535   1.106   .     S
C1504  H1534   1.088   .     S
C1504  C1526   1.530   .     S
C1504  C1505   1.543   .     S
C1505  H1571   1.101   .     S
C1505  C1506   1.527   .     S
C1505  H1572   1.097   .     S
C1506  H1569   1.111   .     S
C1506  H1568   1.108   .     S
C1506  H1570   1.111   .     S
C1507  O1586   1.309   .     A
C1507  O1589   1.327   .     A
C1508  H1541   1.086   .     S
C1508  C1509   1.545   .     S
C1508  H1542   1.100   .     S
C1508  C1527   1.517   .     S
C1509  H1540   1.092   .     S
C1509  C1510   1.530   .     S
C1509  H1539   1.108   .     S
C1510  H1538   1.111   .     S
C1510  H1536   1.109   .     S
C1510  H1537   1.103   .     S
C1511  H1549   1.093   .     S
C1511  H1550   1.107   .     S
C1511  C1512   1.541   .     S
C1511  C1528   1.524   .     S
C1512  H1548   1.098   .     S
C1512  C1513   1.527   .     S
C1512  H1547   1.103   .     S
C1513  H1545   1.109   .     S
C1513  H1546   1.110   .     S
C1513  H1543   1.105   .     S
C1514  C1529   1.531   .     S
C1514  C1515   1.542   .     S
C1514  H1558   1.102   .     S
C1514  H1557   1.086   .     S
C1515  H1554   1.094   .     S
C1515  H1556   1.104   .     S
C1515  C1516   1.527   .     S
C1516  H1552   1.111   .     S
C1516  H1551   1.107   .     S
C1516  H1553   1.111   .     S
C1517  H1559   1.086   .     S
C1517  O1590   1.219   .     D
C1518  O1588   1.306   .     A
C1518  O1587   1.328   .     A
C1519  O1576   1.222   .     D
C1519  H1560   1.078   .     S
C1520  O1577   1.221   .     D
C1520  H1561   1.085   .     S
C1521  H1562   1.078   .     S
C1521  O1578   1.222   .     D
C1522  O1579   1.218   .     D
C1522  C1530   1.495   .     S
C1522  H1563   1.083   .     S
C1523  H1564   1.082   .     S
C1523  O1580   1.221   .     D
C1524  O1581   1.219   .     D
C1524  H1565   1.081   .     S
C1525  H1567   1.085   .     S
C1525  O1582   1.220   .     D
C1526  N1574   1.391   .     A
C1527  N1573   1.386   .     A
C1527  C1846   1.421   .     S
C1528  N1574   1.390   .     A
C1529  N1573   1.391   .     A
C1529  C1844   1.429   .     S
Cu1531 O1586   1.962   .     S
Cu1531 N1573   2.051   .     S
Cu1531 O1584   1.988   .     S
Cu1531 Cu1532  2.729   .     S
Cu1531 O1588   1.966   .     S
Cu1531 O1575   1.985   .     S
Cu1532 O1583   1.985   .     S
Cu1532 O1589   1.966   .     S
Cu1532 N1574   2.051   .     S
Cu1532 O1587   1.962   .     S
Cu1532 O1585   1.988   .     S
C1591  C1609   1.481   .     S
C1591  O1691   1.301   .     A
C1591  O1681   1.325   .     A
C1592  C1608   1.407   .     A
C1592  C1629   1.482   .     S
C1592  C1700   1.398   .     S
C1593  C1608   1.428   .     A
C1593  C1630   1.487   .     S
C1593  C1742   1.406   .     S
C1594  C1631   1.489   .     S
C1594  C1609   1.404   .     A
C1594  C1804   1.398   1_455 S
C1595  H1639   1.083   .     S
C1595  C1599   1.389   .     A
C1595  C1606   1.398   .     A
C1596  H1650   1.084   .     S
C1596  C1607   1.397   .     A
C1596  C1600   1.404   .     A
C1597  C1601   1.387   .     A
C1597  H1661   1.084   .     S
C1597  C1607   1.396   .     A
C1598  C1603   1.404   .     A
C1598  H1672   1.084   .     S
C1598  C1606   1.397   .     A
C1599  C1623   1.484   .     S
C1599  C1604   1.423   .     A
C1600  C1605   1.421   .     A
C1600  C1625   1.476   .     S
C1601  C1626   1.480   .     S
C1601  C1605   1.424   .     A
C1602  O1689   1.302   .     A
C1602  O1690   1.329   .     A
C1602  C1608   1.490   .     S
C1603  C1627   1.477   .     S
C1603  C1604   1.421   .     A
C1604  C1613   1.498   .     S
C1605  C1624   1.496   .     S
C1607  C652    1.474   1_556 S
C1609  C1636   1.426   .     A
C1610  H1641   1.106   .     S
C1610  H1640   1.088   .     S
C1610  C1632   1.530   .     S
C1610  C1611   1.543   .     S
C1611  H1677   1.101   .     S
C1611  C1612   1.527   .     S
C1611  H1678   1.097   .     S
C1612  H1675   1.111   .     S
C1612  H1674   1.108   .     S
C1612  H1676   1.111   .     S
C1613  O1692   1.309   .     A
C1613  O1695   1.327   .     A
C1614  H1647   1.086   .     S
C1614  C1615   1.545   .     S
C1614  H1648   1.100   .     S
C1614  C1633   1.517   .     S
C1615  H1646   1.092   .     S
C1615  C1616   1.530   .     S
C1615  H1645   1.108   .     S
C1616  H1644   1.111   .     S
C1616  H1642   1.109   .     S
C1616  H1643   1.103   .     S
C1617  H1655   1.093   .     S
C1617  H1656   1.107   .     S
C1617  C1618   1.541   .     S
C1617  C1634   1.524   .     S
C1618  H1654   1.098   .     S
C1618  C1619   1.527   .     S
C1618  H1653   1.103   .     S
C1619  H1651   1.109   .     S
C1619  H1652   1.110   .     S
C1619  H1649   1.105   .     S
C1620  C1635   1.531   .     S
C1620  C1621   1.542   .     S
C1620  H1664   1.102   .     S
C1620  H1663   1.086   .     S
C1621  H1660   1.094   .     S
C1621  H1662   1.104   .     S
C1621  C1622   1.527   .     S
C1622  H1658   1.111   .     S
C1622  H1657   1.107   .     S
C1622  H1659   1.111   .     S
C1623  H1665   1.086   .     S
C1623  O1696   1.219   .     D
C1624  O1694   1.306   .     A
C1624  O1693   1.328   .     A
C1625  O1682   1.222   .     D
C1625  H1666   1.078   .     S
C1626  O1683   1.221   .     D
C1626  H1667   1.085   .     S
C1627  H1668   1.078   .     S
C1627  O1684   1.222   .     D
C1628  O1685   1.218   .     D
C1628  C1636   1.495   .     S
C1628  H1669   1.083   .     S
C1629  H1670   1.082   .     S
C1629  O1686   1.221   .     D
C1630  O1687   1.219   .     D
C1630  H1671   1.081   .     S
C1631  H1673   1.085   .     S
C1631  O1688   1.220   .     D
C1632  N1680   1.391   .     A
C1633  N1679   1.386   .     A
C1633  C998    1.421   1_565 S
C1634  N1680   1.390   .     A
C1635  N1679   1.391   .     A
C1635  C996    1.429   1_565 S
C1636  C1805   1.406   1_455 S
Cu1637 O1692   1.962   .     S
Cu1637 N1679   2.051   .     S
Cu1637 O1690   1.988   .     S
Cu1637 Cu1638  2.729   .     S
Cu1637 O1694   1.966   .     S
Cu1637 O1681   1.985   .     S
Cu1638 O1689   1.985   .     S
Cu1638 O1695   1.966   .     S
Cu1638 N1680   2.051   .     S
Cu1638 O1693   1.962   .     S
Cu1638 O1691   1.988   .     S
C1697  C1715   1.481   .     S
C1697  O1797   1.301   .     A
C1697  O1787   1.325   .     A
C1698  C1714   1.407   .     A
C1698  C1735   1.482   .     S
C1698  C1806   1.398   .     S
C1699  C1714   1.428   .     A
C1699  C1736   1.487   .     S
C1699  C1848   1.406   .     S
C1700  C1737   1.489   .     S
C1700  C1715   1.404   .     A
C1701  H1745   1.083   .     S
C1701  C1705   1.389   .     A
C1701  C1712   1.398   .     A
C1702  H1756   1.084   .     S
C1702  C1713   1.397   .     A
C1702  C1706   1.404   .     A
C1703  C1707   1.387   .     A
C1703  H1767   1.084   .     S
C1703  C1713   1.396   .     A
C1704  C1709   1.404   .     A
C1704  H1778   1.084   .     S
C1704  C1712   1.397   .     A
C1705  C1729   1.484   .     S
C1705  C1710   1.423   .     A
C1706  C1711   1.421   .     A
C1706  C1731   1.476   .     S
C1707  C1732   1.480   .     S
C1707  C1711   1.424   .     A
C1708  O1795   1.302   .     A
C1708  O1796   1.329   .     A
C1708  C1714   1.490   .     S
C1709  C1733   1.477   .     S
C1709  C1710   1.421   .     A
C1710  C1719   1.498   .     S
C1711  C1730   1.496   .     S
C1713  C758    1.474   1_556 S
C1715  C1742   1.426   .     A
C1716  H1747   1.106   .     S
C1716  H1746   1.088   .     S
C1716  C1738   1.530   .     S
C1716  C1717   1.543   .     S
C1717  H1783   1.101   .     S
C1717  C1718   1.527   .     S
C1717  H1784   1.097   .     S
C1718  H1781   1.111   .     S
C1718  H1780   1.108   .     S
C1718  H1782   1.111   .     S
C1719  O1798   1.309   .     A
C1719  O1801   1.327   .     A
C1720  H1753   1.086   .     S
C1720  C1721   1.545   .     S
C1720  H1754   1.100   .     S
C1720  C1739   1.517   .     S
C1721  H1752   1.092   .     S
C1721  C1722   1.530   .     S
C1721  H1751   1.108   .     S
C1722  H1750   1.111   .     S
C1722  H1748   1.109   .     S
C1722  H1749   1.103   .     S
C1723  H1761   1.093   .     S
C1723  H1762   1.107   .     S
C1723  C1724   1.541   .     S
C1723  C1740   1.524   .     S
C1724  H1760   1.098   .     S
C1724  C1725   1.527   .     S
C1724  H1759   1.103   .     S
C1725  H1757   1.109   .     S
C1725  H1758   1.110   .     S
C1725  H1755   1.105   .     S
C1726  C1741   1.531   .     S
C1726  C1727   1.542   .     S
C1726  H1770   1.102   .     S
C1726  H1769   1.086   .     S
C1727  H1766   1.094   .     S
C1727  H1768   1.104   .     S
C1727  C1728   1.527   .     S
C1728  H1764   1.111   .     S
C1728  H1763   1.107   .     S
C1728  H1765   1.111   .     S
C1729  H1771   1.086   .     S
C1729  O1802   1.219   .     D
C1730  O1800   1.306   .     A
C1730  O1799   1.328   .     A
C1731  O1788   1.222   .     D
C1731  H1772   1.078   .     S
C1732  O1789   1.221   .     D
C1732  H1773   1.085   .     S
C1733  H1774   1.078   .     S
C1733  O1790   1.222   .     D
C1734  O1791   1.218   .     D
C1734  C1742   1.495   .     S
C1734  H1775   1.083   .     S
C1735  H1776   1.082   .     S
C1735  O1792   1.221   .     D
C1736  O1793   1.219   .     D
C1736  H1777   1.081   .     S
C1737  H1779   1.085   .     S
C1737  O1794   1.220   .     D
C1738  N1786   1.391   .     A
C1739  N1785   1.386   .     A
C1739  C1104   1.421   1_565 S
C1740  N1786   1.390   .     A
C1741  N1785   1.391   .     A
C1741  C1102   1.429   1_565 S
Cu1743 O1798   1.962   .     S
Cu1743 N1785   2.051   .     S
Cu1743 O1796   1.988   .     S
Cu1743 Cu1744  2.729   .     S
Cu1743 O1800   1.966   .     S
Cu1743 O1787   1.985   .     S
Cu1744 O1795   1.985   .     S
Cu1744 O1801   1.966   .     S
Cu1744 N1786   2.051   .     S
Cu1744 O1799   1.962   .     S
Cu1744 O1797   1.988   .     S
C1803  C1821   1.481   .     S
C1803  O1903   1.301   .     A
C1803  O1893   1.325   .     A
C1804  C1820   1.407   .     A
C1804  C1841   1.482   .     S
C1804  C1594   1.398   1_655 S
C1805  C1820   1.428   .     A
C1805  C1842   1.487   .     S
C1805  C1636   1.406   1_655 S
C1806  C1843   1.489   .     S
C1806  C1821   1.404   .     A
C1807  H1851   1.083   .     S
C1807  C1811   1.389   .     A
C1807  C1818   1.398   .     A
C1808  H1862   1.084   .     S
C1808  C1819   1.397   .     A
C1808  C1812   1.404   .     A
C1809  C1813   1.387   .     A
C1809  H1873   1.084   .     S
C1809  C1819   1.396   .     A
C1810  C1815   1.404   .     A
C1810  H1884   1.084   .     S
C1810  C1818   1.397   .     A
C1811  C1835   1.484   .     S
C1811  C1816   1.423   .     A
C1812  C1817   1.421   .     A
C1812  C1837   1.476   .     S
C1813  C1838   1.480   .     S
C1813  C1817   1.424   .     A
C1814  O1901   1.302   .     A
C1814  O1902   1.329   .     A
C1814  C1820   1.490   .     S
C1815  C1839   1.477   .     S
C1815  C1816   1.421   .     A
C1816  C1825   1.498   .     S
C1817  C1836   1.496   .     S
C1819  C864    1.474   1_556 S
C1821  C1848   1.426   .     A
C1822  H1853   1.106   .     S
C1822  H1852   1.088   .     S
C1822  C1844   1.530   .     S
C1822  C1823   1.543   .     S
C1823  H1889   1.101   .     S
C1823  C1824   1.527   .     S
C1823  H1890   1.097   .     S
C1824  H1887   1.111   .     S
C1824  H1886   1.108   .     S
C1824  H1888   1.111   .     S
C1825  O1904   1.309   .     A
C1825  O1907   1.327   .     A
C1826  H1859   1.086   .     S
C1826  C1827   1.545   .     S
C1826  H1860   1.100   .     S
C1826  C1845   1.517   .     S
C1827  H1858   1.092   .     S
C1827  C1828   1.530   .     S
C1827  H1857   1.108   .     S
C1828  H1856   1.111   .     S
C1828  H1854   1.109   .     S
C1828  H1855   1.103   .     S
C1829  H1867   1.093   .     S
C1829  H1868   1.107   .     S
C1829  C1830   1.541   .     S
C1829  C1846   1.524   .     S
C1830  H1866   1.098   .     S
C1830  C1831   1.527   .     S
C1830  H1865   1.103   .     S
C1831  H1863   1.109   .     S
C1831  H1864   1.110   .     S
C1831  H1861   1.105   .     S
C1832  C1847   1.531   .     S
C1832  C1833   1.542   .     S
C1832  H1876   1.102   .     S
C1832  H1875   1.086   .     S
C1833  H1872   1.094   .     S
C1833  H1874   1.104   .     S
C1833  C1834   1.527   .     S
C1834  H1870   1.111   .     S
C1834  H1869   1.107   .     S
C1834  H1871   1.111   .     S
C1835  H1877   1.086   .     S
C1835  O1908   1.219   .     D
C1836  O1906   1.306   .     A
C1836  O1905   1.328   .     A
C1837  O1894   1.222   .     D
C1837  H1878   1.078   .     S
C1838  O1895   1.221   .     D
C1838  H1879   1.085   .     S
C1839  H1880   1.078   .     S
C1839  O1896   1.222   .     D
C1840  O1897   1.218   .     D
C1840  C1848   1.495   .     S
C1840  H1881   1.083   .     S
C1841  H1882   1.082   .     S
C1841  O1898   1.221   .     D
C1842  O1899   1.219   .     D
C1842  H1883   1.081   .     S
C1843  H1885   1.085   .     S
C1843  O1900   1.220   .     D
C1844  N1892   1.391   .     A
C1845  N1891   1.386   .     A
C1845  C1210   1.421   1_565 S
C1846  N1892   1.390   .     A
C1847  N1891   1.391   .     A
C1847  C1208   1.429   1_565 S
Cu1849 O1904   1.962   .     S
Cu1849 N1891   2.051   .     S
Cu1849 O1902   1.988   .     S
Cu1849 Cu1850  2.729   .     S
Cu1849 O1906   1.966   .     S
Cu1849 O1893   1.985   .     S
Cu1850 O1901   1.985   .     S
Cu1850 O1907   1.966   .     S
Cu1850 N1892   2.051   .     S
Cu1850 O1905   1.962   .     S
Cu1850 O1903   1.988   .     S
