data_str_m2_o1_o10_pcu_sym.86
_audit_creation_date              2020-01-03
_audit_creation_method            'Materials Studio'
_symmetry_space_group_name_H-M    'P1'
_symmetry_Int_Tables_number       1
_symmetry_cell_setting            triclinic
loop_
_symmetry_equiv_pos_as_xyz
  x,y,z
_cell_length_a                    26.1519
_cell_length_b                    32.4068
_cell_length_c                    28.6017
_cell_angle_alpha                 90.1018
_cell_angle_beta                  97.8298
_cell_angle_gamma                 90.7748
loop_
_atom_site_label
_atom_site_type_symbol
_atom_site_fract_x
_atom_site_fract_y
_atom_site_fract_z
_atom_site_U_iso_or_equiv
_atom_site_adp_type
_atom_site_occupancy
C1     C     0.16742   0.08742   0.16665   0.00000  Uiso   1.00
C2     C     0.14251   0.02171   0.19958   0.00000  Uiso   1.00
C3     C     0.16520   0.29048   0.16662   0.00000  Uiso   1.00
C4     C     0.16745   0.04280   0.16632   0.00000  Uiso   1.00
C5     C     0.13411   0.14122   0.02084   0.00000  Uiso   1.00
C6     C     0.19955   0.19190   0.31242   0.00000  Uiso   1.00
C7     C     0.13349   0.14111   0.30409   0.00000  Uiso   1.00
C8     C     0.20005   0.19233   0.02946   0.00000  Uiso   1.00
C9     C     0.19649   0.03709   0.05546   0.00000  Uiso   1.00
C10    C     0.22743   0.06149   0.02331   0.00000  Uiso   1.00
C11    C     0.06266   0.28553   0.21202   0.00000  Uiso   1.00
C12    C     0.16602   0.24589   0.16668   0.00000  Uiso   1.00
C13    C     0.03305   0.26650   0.24898   0.00000  Uiso   1.00
C14    C     0.05374   0.10644   0.28595   0.00000  Uiso   1.00
C15    C     0.04741   0.06335   0.30590   0.00000  Uiso   1.00
C16    C     0.26336   0.24657   0.03986   0.00000  Uiso   1.00
C17    C     0.31393   0.22890   0.02795   0.00000  Uiso   1.00
C18    C     0.06792   0.16657   0.15461   0.00000  Uiso   1.00
C19    C     0.26539   0.16732   0.17871   0.00000  Uiso   1.00
C20    C     0.01263   0.16567   0.14800   0.00000  Uiso   1.00
C21    C     0.32063   0.16912   0.18521   0.00000  Uiso   1.00
C22    C     0.19093   0.02113   0.13243   0.00000  Uiso   1.00
C23    C     0.14009   0.31225   0.19925   0.00000  Uiso   1.00
C24    C     0.19037   0.31155   0.13361   0.00000  Uiso   1.00
Cu25   Cu    0.16667   0.16667   0.21355   0.00000  Uiso   1.00
Cu26   Cu    0.16667   0.16666   0.11978   0.00000  Uiso   1.00
H27    H     0.32598   0.16145   0.11240   0.00000  Uiso   1.00
H28    H     0.06015   0.26392   0.18142   0.00000  Uiso   1.00
H29    H     0.04381   0.31514   0.20035   0.00000  Uiso   1.00
H30    H     0.03328   0.28830   0.27903   0.00000  Uiso   1.00
H31    H     0.32579   0.26004   0.23341   0.00000  Uiso   1.00
H32    H     0.05127   0.23718   0.26207   0.00000  Uiso   1.00
H33    H     0.10955   0.12037   0.03734   0.00000  Uiso   1.00
H34    H     0.22551   0.21085   0.29520   0.00000  Uiso   1.00
H35    H     0.02707   0.10803   0.25241   0.00000  Uiso   1.00
H36    H     0.04078   0.13047   0.30952   0.00000  Uiso   1.00
H37    H     0.07249   0.05957   0.00669   0.00000  Uiso   1.00
H38    H     0.00718   0.17360   0.22077   0.00000  Uiso   1.00
H39    H     0.00667   0.05824   0.31157   0.00000  Uiso   1.00
H40    H     0.05753   0.03969   0.28071   0.00000  Uiso   1.00
H41    H     0.27411   0.27115   0.06657   0.00000  Uiso   1.00
H42    H     0.24098   0.26270   0.00963   0.00000  Uiso   1.00
H43    H     0.30702   0.20218   0.00353   0.00000  Uiso   1.00
H44    H     0.00224   0.25317   0.01129   0.00000  Uiso   1.00
H45    H     0.00477   0.21879   0.06071   0.00000  Uiso   1.00
H46    H     0.21087   0.29462   0.10959   0.00000  Uiso   1.00
H47    H     0.12386   0.03841   0.22525   0.00000  Uiso   1.00
H48    H     0.15646   0.04907   0.05108   0.00000  Uiso   1.00
H49    H     0.19557   0.00421   0.04402   0.00000  Uiso   1.00
H50    H     0.26682   0.04871   0.02525   0.00000  Uiso   1.00
H51    H     0.20812   0.05945   0.31961   0.00000  Uiso   1.00
H52    H     0.23051   0.09439   0.03432   0.00000  Uiso   1.00
N53    N     0.16668   0.16668   0.28403   0.00000  Uiso   1.00
N54    N     0.16665   0.16666   0.04931   0.00000  Uiso   1.00
O55    O     0.16666   0.10655   0.20625   0.00000  Uiso   1.00
O56    O     0.11456   0.29209   0.23199   0.00000  Uiso   1.00
O57    O     0.10459   0.11235   0.27511   0.00000  Uiso   1.00
O58    O     0.23419   0.21629   0.06063   0.00000  Uiso   1.00
O59    O     0.16667   0.22678   0.12709   0.00000  Uiso   1.00
O60    O     0.16666   0.10654   0.12706   0.00000  Uiso   1.00
O61    O     0.16667   0.22679   0.20628   0.00000  Uiso   1.00
O62    O     0.09161   0.16667   0.19712   0.00000  Uiso   1.00
O63    O     0.24172   0.16666   0.13621   0.00000  Uiso   1.00
O64    O     0.09161   0.16666   0.11793   0.00000  Uiso   1.00
O65    O     0.24172   0.16667   0.21540   0.00000  Uiso   1.00
O66    O     0.22005   0.04186   0.10267   0.00000  Uiso   1.00
C67    C     0.50076   0.08742   0.16665   0.00000  Uiso   1.00
C68    C     0.47584   0.02171   0.19958   0.00000  Uiso   1.00
C69    C     0.49853   0.29048   0.16662   0.00000  Uiso   1.00
C70    C     0.50078   0.04280   0.16632   0.00000  Uiso   1.00
C71    C     0.46744   0.14122   0.02084   0.00000  Uiso   1.00
C72    C     0.53289   0.19190   0.31242   0.00000  Uiso   1.00
C73    C     0.46682   0.14111   0.30409   0.00000  Uiso   1.00
C74    C     0.53339   0.19233   0.02946   0.00000  Uiso   1.00
C75    C     0.52982   0.03709   0.05546   0.00000  Uiso   1.00
C76    C     0.56076   0.06149   0.02331   0.00000  Uiso   1.00
C77    C     0.39599   0.28553   0.21202   0.00000  Uiso   1.00
C78    C     0.49935   0.24589   0.16668   0.00000  Uiso   1.00
C79    C     0.36639   0.26650   0.24898   0.00000  Uiso   1.00
C80    C     0.38708   0.10644   0.28595   0.00000  Uiso   1.00
C81    C     0.38074   0.06335   0.30590   0.00000  Uiso   1.00
C82    C     0.59670   0.24657   0.03986   0.00000  Uiso   1.00
C83    C     0.64727   0.22890   0.02795   0.00000  Uiso   1.00
C84    C     0.40126   0.16657   0.15461   0.00000  Uiso   1.00
C85    C     0.59872   0.16732   0.17871   0.00000  Uiso   1.00
C86    C     0.34596   0.16567   0.14800   0.00000  Uiso   1.00
C87    C     0.65396   0.16912   0.18521   0.00000  Uiso   1.00
C88    C     0.52426   0.02113   0.13243   0.00000  Uiso   1.00
C89    C     0.47342   0.31225   0.19925   0.00000  Uiso   1.00
C90    C     0.52371   0.31155   0.13361   0.00000  Uiso   1.00
Cu91   Cu    0.50000   0.16667   0.21355   0.00000  Uiso   1.00
Cu92   Cu    0.50000   0.16666   0.11978   0.00000  Uiso   1.00
H93    H     0.65931   0.16145   0.11240   0.00000  Uiso   1.00
H94    H     0.39348   0.26392   0.18142   0.00000  Uiso   1.00
H95    H     0.37714   0.31514   0.20035   0.00000  Uiso   1.00
H96    H     0.36661   0.28830   0.27903   0.00000  Uiso   1.00
H97    H     0.65912   0.26004   0.23341   0.00000  Uiso   1.00
H98    H     0.38461   0.23718   0.26207   0.00000  Uiso   1.00
H99    H     0.44288   0.12037   0.03734   0.00000  Uiso   1.00
H100   H     0.55884   0.21085   0.29520   0.00000  Uiso   1.00
H101   H     0.36041   0.10803   0.25241   0.00000  Uiso   1.00
H102   H     0.37412   0.13047   0.30952   0.00000  Uiso   1.00
H103   H     0.40583   0.05957   0.00669   0.00000  Uiso   1.00
H104   H     0.34052   0.17360   0.22077   0.00000  Uiso   1.00
H105   H     0.34000   0.05824   0.31157   0.00000  Uiso   1.00
H106   H     0.39086   0.03969   0.28071   0.00000  Uiso   1.00
H107   H     0.60745   0.27115   0.06657   0.00000  Uiso   1.00
H108   H     0.57431   0.26270   0.00963   0.00000  Uiso   1.00
H109   H     0.64036   0.20218   0.00353   0.00000  Uiso   1.00
H110   H     0.33558   0.25317   0.01129   0.00000  Uiso   1.00
H111   H     0.33810   0.21879   0.06071   0.00000  Uiso   1.00
H112   H     0.54420   0.29462   0.10959   0.00000  Uiso   1.00
H113   H     0.45719   0.03841   0.22525   0.00000  Uiso   1.00
H114   H     0.48979   0.04907   0.05108   0.00000  Uiso   1.00
H115   H     0.52890   0.00421   0.04402   0.00000  Uiso   1.00
H116   H     0.60015   0.04871   0.02525   0.00000  Uiso   1.00
H117   H     0.54145   0.05945   0.31961   0.00000  Uiso   1.00
H118   H     0.56384   0.09439   0.03432   0.00000  Uiso   1.00
N119   N     0.50001   0.16668   0.28403   0.00000  Uiso   1.00
N120   N     0.49999   0.16666   0.04931   0.00000  Uiso   1.00
O121   O     0.50000   0.10655   0.20625   0.00000  Uiso   1.00
O122   O     0.44790   0.29209   0.23199   0.00000  Uiso   1.00
O123   O     0.43793   0.11235   0.27511   0.00000  Uiso   1.00
O124   O     0.56753   0.21629   0.06063   0.00000  Uiso   1.00
O125   O     0.50000   0.22678   0.12709   0.00000  Uiso   1.00
O126   O     0.50000   0.10654   0.12706   0.00000  Uiso   1.00
O127   O     0.50000   0.22679   0.20628   0.00000  Uiso   1.00
O128   O     0.42495   0.16667   0.19712   0.00000  Uiso   1.00
O129   O     0.57505   0.16666   0.13621   0.00000  Uiso   1.00
O130   O     0.42494   0.16666   0.11793   0.00000  Uiso   1.00
O131   O     0.57506   0.16667   0.21540   0.00000  Uiso   1.00
O132   O     0.55338   0.04186   0.10267   0.00000  Uiso   1.00
C133   C     0.83409   0.08742   0.16665   0.00000  Uiso   1.00
C134   C     0.80917   0.02171   0.19958   0.00000  Uiso   1.00
C135   C     0.83187   0.29048   0.16662   0.00000  Uiso   1.00
C136   C     0.83411   0.04280   0.16632   0.00000  Uiso   1.00
C137   C     0.80078   0.14122   0.02084   0.00000  Uiso   1.00
C138   C     0.86622   0.19190   0.31242   0.00000  Uiso   1.00
C139   C     0.80016   0.14111   0.30409   0.00000  Uiso   1.00
C140   C     0.86672   0.19233   0.02946   0.00000  Uiso   1.00
C141   C     0.86316   0.03709   0.05546   0.00000  Uiso   1.00
C142   C     0.89409   0.06149   0.02331   0.00000  Uiso   1.00
C143   C     0.72932   0.28553   0.21202   0.00000  Uiso   1.00
C144   C     0.83269   0.24589   0.16668   0.00000  Uiso   1.00
C145   C     0.69972   0.26650   0.24898   0.00000  Uiso   1.00
C146   C     0.72041   0.10644   0.28595   0.00000  Uiso   1.00
C147   C     0.71407   0.06335   0.30590   0.00000  Uiso   1.00
C148   C     0.93003   0.24657   0.03986   0.00000  Uiso   1.00
C149   C     0.98060   0.22890   0.02795   0.00000  Uiso   1.00
C150   C     0.73459   0.16657   0.15461   0.00000  Uiso   1.00
C151   C     0.93205   0.16732   0.17871   0.00000  Uiso   1.00
C152   C     0.67929   0.16567   0.14800   0.00000  Uiso   1.00
C153   C     0.98730   0.16912   0.18521   0.00000  Uiso   1.00
C154   C     0.85760   0.02113   0.13243   0.00000  Uiso   1.00
C155   C     0.80675   0.31225   0.19925   0.00000  Uiso   1.00
C156   C     0.85704   0.31155   0.13361   0.00000  Uiso   1.00
Cu157  Cu    0.83333   0.16667   0.21355   0.00000  Uiso   1.00
Cu158  Cu    0.83333   0.16666   0.11978   0.00000  Uiso   1.00
H159   H     0.99265   0.16145   0.11240   0.00000  Uiso   1.00
H160   H     0.72682   0.26392   0.18142   0.00000  Uiso   1.00
H161   H     0.71047   0.31514   0.20035   0.00000  Uiso   1.00
H162   H     0.69994   0.28830   0.27903   0.00000  Uiso   1.00
H163   H     0.99245   0.26004   0.23341   0.00000  Uiso   1.00
H164   H     0.71794   0.23718   0.26207   0.00000  Uiso   1.00
H165   H     0.77621   0.12037   0.03734   0.00000  Uiso   1.00
H166   H     0.89218   0.21085   0.29520   0.00000  Uiso   1.00
H167   H     0.69374   0.10803   0.25241   0.00000  Uiso   1.00
H168   H     0.70745   0.13047   0.30952   0.00000  Uiso   1.00
H169   H     0.73916   0.05957   0.00669   0.00000  Uiso   1.00
H170   H     0.67385   0.17360   0.22077   0.00000  Uiso   1.00
H171   H     0.67333   0.05824   0.31157   0.00000  Uiso   1.00
H172   H     0.72420   0.03969   0.28071   0.00000  Uiso   1.00
H173   H     0.94078   0.27115   0.06657   0.00000  Uiso   1.00
H174   H     0.90765   0.26270   0.00963   0.00000  Uiso   1.00
H175   H     0.97369   0.20218   0.00353   0.00000  Uiso   1.00
H176   H     0.66891   0.25317   0.01129   0.00000  Uiso   1.00
H177   H     0.67144   0.21879   0.06071   0.00000  Uiso   1.00
H178   H     0.87753   0.29462   0.10959   0.00000  Uiso   1.00
H179   H     0.79052   0.03841   0.22525   0.00000  Uiso   1.00
H180   H     0.82312   0.04907   0.05108   0.00000  Uiso   1.00
H181   H     0.86224   0.00421   0.04402   0.00000  Uiso   1.00
H182   H     0.93349   0.04871   0.02525   0.00000  Uiso   1.00
H183   H     0.87478   0.05945   0.31961   0.00000  Uiso   1.00
H184   H     0.89718   0.09439   0.03432   0.00000  Uiso   1.00
N185   N     0.83335   0.16668   0.28403   0.00000  Uiso   1.00
N186   N     0.83332   0.16666   0.04931   0.00000  Uiso   1.00
O187   O     0.83333   0.10655   0.20625   0.00000  Uiso   1.00
O188   O     0.78123   0.29209   0.23199   0.00000  Uiso   1.00
O189   O     0.77126   0.11235   0.27511   0.00000  Uiso   1.00
O190   O     0.90086   0.21629   0.06063   0.00000  Uiso   1.00
O191   O     0.83334   0.22678   0.12709   0.00000  Uiso   1.00
O192   O     0.83333   0.10654   0.12706   0.00000  Uiso   1.00
O193   O     0.83334   0.22679   0.20628   0.00000  Uiso   1.00
O194   O     0.75828   0.16667   0.19712   0.00000  Uiso   1.00
O195   O     0.90839   0.16666   0.13621   0.00000  Uiso   1.00
O196   O     0.75828   0.16666   0.11793   0.00000  Uiso   1.00
O197   O     0.90839   0.16667   0.21540   0.00000  Uiso   1.00
O198   O     0.88671   0.04186   0.10267   0.00000  Uiso   1.00
C199   C     0.16742   0.42076   0.16665   0.00000  Uiso   1.00
C200   C     0.14251   0.35504   0.19958   0.00000  Uiso   1.00
C201   C     0.16520   0.62382   0.16662   0.00000  Uiso   1.00
C202   C     0.16745   0.37613   0.16632   0.00000  Uiso   1.00
C203   C     0.13411   0.47455   0.02084   0.00000  Uiso   1.00
C204   C     0.19955   0.52523   0.31242   0.00000  Uiso   1.00
C205   C     0.13349   0.47445   0.30409   0.00000  Uiso   1.00
C206   C     0.20005   0.52567   0.02946   0.00000  Uiso   1.00
C207   C     0.19649   0.37042   0.05546   0.00000  Uiso   1.00
C208   C     0.22743   0.39482   0.02331   0.00000  Uiso   1.00
C209   C     0.06266   0.61886   0.21202   0.00000  Uiso   1.00
C210   C     0.16602   0.57922   0.16668   0.00000  Uiso   1.00
C211   C     0.03305   0.59984   0.24898   0.00000  Uiso   1.00
C212   C     0.05374   0.43978   0.28595   0.00000  Uiso   1.00
C213   C     0.04741   0.39669   0.30590   0.00000  Uiso   1.00
C214   C     0.26336   0.57990   0.03986   0.00000  Uiso   1.00
C215   C     0.31393   0.56224   0.02795   0.00000  Uiso   1.00
C216   C     0.06792   0.49990   0.15461   0.00000  Uiso   1.00
C217   C     0.26539   0.50065   0.17871   0.00000  Uiso   1.00
C218   C     0.01263   0.49900   0.14800   0.00000  Uiso   1.00
C219   C     0.32063   0.50246   0.18521   0.00000  Uiso   1.00
C220   C     0.19093   0.35446   0.13243   0.00000  Uiso   1.00
C221   C     0.14009   0.64559   0.19925   0.00000  Uiso   1.00
C222   C     0.19037   0.64488   0.13361   0.00000  Uiso   1.00
Cu223  Cu    0.16667   0.50001   0.21355   0.00000  Uiso   1.00
Cu224  Cu    0.16667   0.49999   0.11978   0.00000  Uiso   1.00
H225   H     0.32598   0.49478   0.11240   0.00000  Uiso   1.00
H226   H     0.06015   0.59725   0.18142   0.00000  Uiso   1.00
H227   H     0.04381   0.64848   0.20035   0.00000  Uiso   1.00
H228   H     0.03328   0.62164   0.27903   0.00000  Uiso   1.00
H229   H     0.32579   0.59338   0.23341   0.00000  Uiso   1.00
H230   H     0.05127   0.57051   0.26207   0.00000  Uiso   1.00
H231   H     0.10955   0.45370   0.03734   0.00000  Uiso   1.00
H232   H     0.22551   0.54419   0.29520   0.00000  Uiso   1.00
H233   H     0.02707   0.44136   0.25241   0.00000  Uiso   1.00
H234   H     0.04078   0.46381   0.30952   0.00000  Uiso   1.00
H235   H     0.07249   0.39291   0.00669   0.00000  Uiso   1.00
H236   H     0.00718   0.50694   0.22077   0.00000  Uiso   1.00
H237   H     0.00667   0.39158   0.31157   0.00000  Uiso   1.00
H238   H     0.05753   0.37302   0.28071   0.00000  Uiso   1.00
H239   H     0.27411   0.60448   0.06657   0.00000  Uiso   1.00
H240   H     0.24098   0.59604   0.00963   0.00000  Uiso   1.00
H241   H     0.30702   0.53551   0.00353   0.00000  Uiso   1.00
H242   H     0.00224   0.58651   0.01129   0.00000  Uiso   1.00
H243   H     0.00477   0.55212   0.06071   0.00000  Uiso   1.00
H244   H     0.21087   0.62796   0.10959   0.00000  Uiso   1.00
H245   H     0.12386   0.37175   0.22525   0.00000  Uiso   1.00
H246   H     0.15646   0.38241   0.05108   0.00000  Uiso   1.00
H247   H     0.19557   0.33755   0.04402   0.00000  Uiso   1.00
H248   H     0.26682   0.38205   0.02525   0.00000  Uiso   1.00
H249   H     0.20812   0.39278   0.31961   0.00000  Uiso   1.00
H250   H     0.23051   0.42773   0.03432   0.00000  Uiso   1.00
N251   N     0.16668   0.50001   0.28403   0.00000  Uiso   1.00
N252   N     0.16665   0.49999   0.04931   0.00000  Uiso   1.00
O253   O     0.16666   0.43989   0.20625   0.00000  Uiso   1.00
O254   O     0.11456   0.62542   0.23199   0.00000  Uiso   1.00
O255   O     0.10459   0.44568   0.27511   0.00000  Uiso   1.00
O256   O     0.23419   0.54963   0.06063   0.00000  Uiso   1.00
O257   O     0.16667   0.56011   0.12709   0.00000  Uiso   1.00
O258   O     0.16666   0.43988   0.12706   0.00000  Uiso   1.00
O259   O     0.16667   0.56012   0.20628   0.00000  Uiso   1.00
O260   O     0.09161   0.50000   0.19712   0.00000  Uiso   1.00
O261   O     0.24172   0.50000   0.13621   0.00000  Uiso   1.00
O262   O     0.09161   0.49999   0.11793   0.00000  Uiso   1.00
O263   O     0.24172   0.50001   0.21540   0.00000  Uiso   1.00
O264   O     0.22005   0.37519   0.10267   0.00000  Uiso   1.00
C265   C     0.50076   0.42076   0.16665   0.00000  Uiso   1.00
C266   C     0.47584   0.35504   0.19958   0.00000  Uiso   1.00
C267   C     0.49853   0.62382   0.16662   0.00000  Uiso   1.00
C268   C     0.50078   0.37613   0.16632   0.00000  Uiso   1.00
C269   C     0.46744   0.47455   0.02084   0.00000  Uiso   1.00
C270   C     0.53289   0.52523   0.31242   0.00000  Uiso   1.00
C271   C     0.46682   0.47445   0.30409   0.00000  Uiso   1.00
C272   C     0.53339   0.52567   0.02946   0.00000  Uiso   1.00
C273   C     0.52982   0.37042   0.05546   0.00000  Uiso   1.00
C274   C     0.56076   0.39482   0.02331   0.00000  Uiso   1.00
C275   C     0.39599   0.61886   0.21202   0.00000  Uiso   1.00
C276   C     0.49935   0.57922   0.16668   0.00000  Uiso   1.00
C277   C     0.36639   0.59984   0.24898   0.00000  Uiso   1.00
C278   C     0.38708   0.43978   0.28595   0.00000  Uiso   1.00
C279   C     0.38074   0.39669   0.30590   0.00000  Uiso   1.00
C280   C     0.59670   0.57990   0.03986   0.00000  Uiso   1.00
C281   C     0.64727   0.56224   0.02795   0.00000  Uiso   1.00
C282   C     0.40126   0.49990   0.15461   0.00000  Uiso   1.00
C283   C     0.59872   0.50065   0.17871   0.00000  Uiso   1.00
C284   C     0.34596   0.49900   0.14800   0.00000  Uiso   1.00
C285   C     0.65396   0.50246   0.18521   0.00000  Uiso   1.00
C286   C     0.52426   0.35446   0.13243   0.00000  Uiso   1.00
C287   C     0.47342   0.64559   0.19925   0.00000  Uiso   1.00
C288   C     0.52371   0.64488   0.13361   0.00000  Uiso   1.00
Cu289  Cu    0.50000   0.50001   0.21355   0.00000  Uiso   1.00
Cu290  Cu    0.50000   0.49999   0.11978   0.00000  Uiso   1.00
H291   H     0.65931   0.49478   0.11240   0.00000  Uiso   1.00
H292   H     0.39348   0.59725   0.18142   0.00000  Uiso   1.00
H293   H     0.37714   0.64848   0.20035   0.00000  Uiso   1.00
H294   H     0.36661   0.62164   0.27903   0.00000  Uiso   1.00
H295   H     0.65912   0.59338   0.23341   0.00000  Uiso   1.00
H296   H     0.38461   0.57051   0.26207   0.00000  Uiso   1.00
H297   H     0.44288   0.45370   0.03734   0.00000  Uiso   1.00
H298   H     0.55884   0.54419   0.29520   0.00000  Uiso   1.00
H299   H     0.36041   0.44136   0.25241   0.00000  Uiso   1.00
H300   H     0.37412   0.46381   0.30952   0.00000  Uiso   1.00
H301   H     0.40583   0.39291   0.00669   0.00000  Uiso   1.00
H302   H     0.34052   0.50694   0.22077   0.00000  Uiso   1.00
H303   H     0.34000   0.39158   0.31157   0.00000  Uiso   1.00
H304   H     0.39086   0.37302   0.28071   0.00000  Uiso   1.00
H305   H     0.60745   0.60448   0.06657   0.00000  Uiso   1.00
H306   H     0.57431   0.59604   0.00963   0.00000  Uiso   1.00
H307   H     0.64036   0.53551   0.00353   0.00000  Uiso   1.00
H308   H     0.33558   0.58651   0.01129   0.00000  Uiso   1.00
H309   H     0.33810   0.55212   0.06071   0.00000  Uiso   1.00
H310   H     0.54420   0.62796   0.10959   0.00000  Uiso   1.00
H311   H     0.45719   0.37175   0.22525   0.00000  Uiso   1.00
H312   H     0.48979   0.38241   0.05108   0.00000  Uiso   1.00
H313   H     0.52890   0.33755   0.04402   0.00000  Uiso   1.00
H314   H     0.60015   0.38205   0.02525   0.00000  Uiso   1.00
H315   H     0.54145   0.39278   0.31961   0.00000  Uiso   1.00
H316   H     0.56384   0.42773   0.03432   0.00000  Uiso   1.00
N317   N     0.50001   0.50001   0.28403   0.00000  Uiso   1.00
N318   N     0.49999   0.49999   0.04931   0.00000  Uiso   1.00
O319   O     0.50000   0.43989   0.20625   0.00000  Uiso   1.00
O320   O     0.44790   0.62542   0.23199   0.00000  Uiso   1.00
O321   O     0.43793   0.44568   0.27511   0.00000  Uiso   1.00
O322   O     0.56753   0.54963   0.06063   0.00000  Uiso   1.00
O323   O     0.50000   0.56011   0.12709   0.00000  Uiso   1.00
O324   O     0.50000   0.43988   0.12706   0.00000  Uiso   1.00
O325   O     0.50000   0.56012   0.20628   0.00000  Uiso   1.00
O326   O     0.42495   0.50000   0.19712   0.00000  Uiso   1.00
O327   O     0.57505   0.50000   0.13621   0.00000  Uiso   1.00
O328   O     0.42494   0.49999   0.11793   0.00000  Uiso   1.00
O329   O     0.57506   0.50001   0.21540   0.00000  Uiso   1.00
O330   O     0.55338   0.37519   0.10267   0.00000  Uiso   1.00
C331   C     0.83409   0.42076   0.16665   0.00000  Uiso   1.00
C332   C     0.80917   0.35504   0.19958   0.00000  Uiso   1.00
C333   C     0.83187   0.62382   0.16662   0.00000  Uiso   1.00
C334   C     0.83411   0.37613   0.16632   0.00000  Uiso   1.00
C335   C     0.80078   0.47455   0.02084   0.00000  Uiso   1.00
C336   C     0.86622   0.52523   0.31242   0.00000  Uiso   1.00
C337   C     0.80016   0.47445   0.30409   0.00000  Uiso   1.00
C338   C     0.86672   0.52567   0.02946   0.00000  Uiso   1.00
C339   C     0.86316   0.37042   0.05546   0.00000  Uiso   1.00
C340   C     0.89409   0.39482   0.02331   0.00000  Uiso   1.00
C341   C     0.72932   0.61886   0.21202   0.00000  Uiso   1.00
C342   C     0.83269   0.57922   0.16668   0.00000  Uiso   1.00
C343   C     0.69972   0.59984   0.24898   0.00000  Uiso   1.00
C344   C     0.72041   0.43978   0.28595   0.00000  Uiso   1.00
C345   C     0.71407   0.39669   0.30590   0.00000  Uiso   1.00
C346   C     0.93003   0.57990   0.03986   0.00000  Uiso   1.00
C347   C     0.98060   0.56224   0.02795   0.00000  Uiso   1.00
C348   C     0.73459   0.49990   0.15461   0.00000  Uiso   1.00
C349   C     0.93205   0.50065   0.17871   0.00000  Uiso   1.00
C350   C     0.67929   0.49900   0.14800   0.00000  Uiso   1.00
C351   C     0.98730   0.50246   0.18521   0.00000  Uiso   1.00
C352   C     0.85760   0.35446   0.13243   0.00000  Uiso   1.00
C353   C     0.80675   0.64559   0.19925   0.00000  Uiso   1.00
C354   C     0.85704   0.64488   0.13361   0.00000  Uiso   1.00
Cu355  Cu    0.83333   0.50001   0.21355   0.00000  Uiso   1.00
Cu356  Cu    0.83333   0.49999   0.11978   0.00000  Uiso   1.00
H357   H     0.99265   0.49478   0.11240   0.00000  Uiso   1.00
H358   H     0.72682   0.59725   0.18142   0.00000  Uiso   1.00
H359   H     0.71047   0.64848   0.20035   0.00000  Uiso   1.00
H360   H     0.69994   0.62164   0.27903   0.00000  Uiso   1.00
H361   H     0.99245   0.59338   0.23341   0.00000  Uiso   1.00
H362   H     0.71794   0.57051   0.26207   0.00000  Uiso   1.00
H363   H     0.77621   0.45370   0.03734   0.00000  Uiso   1.00
H364   H     0.89218   0.54419   0.29520   0.00000  Uiso   1.00
H365   H     0.69374   0.44136   0.25241   0.00000  Uiso   1.00
H366   H     0.70745   0.46381   0.30952   0.00000  Uiso   1.00
H367   H     0.73916   0.39291   0.00669   0.00000  Uiso   1.00
H368   H     0.67385   0.50694   0.22077   0.00000  Uiso   1.00
H369   H     0.67333   0.39158   0.31157   0.00000  Uiso   1.00
H370   H     0.72420   0.37302   0.28071   0.00000  Uiso   1.00
H371   H     0.94078   0.60448   0.06657   0.00000  Uiso   1.00
H372   H     0.90765   0.59604   0.00963   0.00000  Uiso   1.00
H373   H     0.97369   0.53551   0.00353   0.00000  Uiso   1.00
H374   H     0.66891   0.58651   0.01129   0.00000  Uiso   1.00
H375   H     0.67144   0.55212   0.06071   0.00000  Uiso   1.00
H376   H     0.87753   0.62796   0.10959   0.00000  Uiso   1.00
H377   H     0.79052   0.37175   0.22525   0.00000  Uiso   1.00
H378   H     0.82312   0.38241   0.05108   0.00000  Uiso   1.00
H379   H     0.86224   0.33755   0.04402   0.00000  Uiso   1.00
H380   H     0.93349   0.38205   0.02525   0.00000  Uiso   1.00
H381   H     0.87478   0.39278   0.31961   0.00000  Uiso   1.00
H382   H     0.89718   0.42773   0.03432   0.00000  Uiso   1.00
N383   N     0.83335   0.50001   0.28403   0.00000  Uiso   1.00
N384   N     0.83332   0.49999   0.04931   0.00000  Uiso   1.00
O385   O     0.83333   0.43989   0.20625   0.00000  Uiso   1.00
O386   O     0.78123   0.62542   0.23199   0.00000  Uiso   1.00
O387   O     0.77126   0.44568   0.27511   0.00000  Uiso   1.00
O388   O     0.90086   0.54963   0.06063   0.00000  Uiso   1.00
O389   O     0.83334   0.56011   0.12709   0.00000  Uiso   1.00
O390   O     0.83333   0.43988   0.12706   0.00000  Uiso   1.00
O391   O     0.83334   0.56012   0.20628   0.00000  Uiso   1.00
O392   O     0.75828   0.50000   0.19712   0.00000  Uiso   1.00
O393   O     0.90839   0.50000   0.13621   0.00000  Uiso   1.00
O394   O     0.75828   0.49999   0.11793   0.00000  Uiso   1.00
O395   O     0.90839   0.50001   0.21540   0.00000  Uiso   1.00
O396   O     0.88671   0.37519   0.10267   0.00000  Uiso   1.00
C397   C     0.16742   0.75409   0.16665   0.00000  Uiso   1.00
C398   C     0.14251   0.68838   0.19958   0.00000  Uiso   1.00
C399   C     0.16520   0.95715   0.16662   0.00000  Uiso   1.00
C400   C     0.16745   0.70946   0.16632   0.00000  Uiso   1.00
C401   C     0.13411   0.80789   0.02084   0.00000  Uiso   1.00
C402   C     0.19955   0.85856   0.31242   0.00000  Uiso   1.00
C403   C     0.13349   0.80778   0.30409   0.00000  Uiso   1.00
C404   C     0.20005   0.85900   0.02946   0.00000  Uiso   1.00
C405   C     0.19649   0.70376   0.05546   0.00000  Uiso   1.00
C406   C     0.22743   0.72815   0.02331   0.00000  Uiso   1.00
C407   C     0.06266   0.95219   0.21202   0.00000  Uiso   1.00
C408   C     0.16602   0.91256   0.16668   0.00000  Uiso   1.00
C409   C     0.03305   0.93317   0.24898   0.00000  Uiso   1.00
C410   C     0.05374   0.77311   0.28595   0.00000  Uiso   1.00
C411   C     0.04741   0.73002   0.30590   0.00000  Uiso   1.00
C412   C     0.26336   0.91324   0.03986   0.00000  Uiso   1.00
C413   C     0.31393   0.89557   0.02795   0.00000  Uiso   1.00
C414   C     0.06792   0.83324   0.15461   0.00000  Uiso   1.00
C415   C     0.26539   0.83399   0.17871   0.00000  Uiso   1.00
C416   C     0.01263   0.83233   0.14800   0.00000  Uiso   1.00
C417   C     0.32063   0.83579   0.18521   0.00000  Uiso   1.00
C418   C     0.19093   0.68779   0.13243   0.00000  Uiso   1.00
C419   C     0.14009   0.97892   0.19925   0.00000  Uiso   1.00
C420   C     0.19037   0.97821   0.13361   0.00000  Uiso   1.00
Cu421  Cu    0.16667   0.83334   0.21355   0.00000  Uiso   1.00
Cu422  Cu    0.16667   0.83333   0.11978   0.00000  Uiso   1.00
H423   H     0.32598   0.82812   0.11240   0.00000  Uiso   1.00
H424   H     0.06015   0.93058   0.18142   0.00000  Uiso   1.00
H425   H     0.04381   0.98181   0.20035   0.00000  Uiso   1.00
H426   H     0.03328   0.95497   0.27903   0.00000  Uiso   1.00
H427   H     0.32579   0.92671   0.23341   0.00000  Uiso   1.00
H428   H     0.05127   0.90385   0.26207   0.00000  Uiso   1.00
H429   H     0.10955   0.78704   0.03734   0.00000  Uiso   1.00
H430   H     0.22551   0.87752   0.29520   0.00000  Uiso   1.00
H431   H     0.02707   0.77470   0.25241   0.00000  Uiso   1.00
H432   H     0.04078   0.79714   0.30952   0.00000  Uiso   1.00
H433   H     0.07249   0.72624   0.00669   0.00000  Uiso   1.00
H434   H     0.00718   0.84027   0.22077   0.00000  Uiso   1.00
H435   H     0.00667   0.72491   0.31157   0.00000  Uiso   1.00
H436   H     0.05753   0.70636   0.28071   0.00000  Uiso   1.00
H437   H     0.27411   0.93782   0.06657   0.00000  Uiso   1.00
H438   H     0.24098   0.92937   0.00963   0.00000  Uiso   1.00
H439   H     0.30702   0.86884   0.00353   0.00000  Uiso   1.00
H440   H     0.00224   0.91984   0.01129   0.00000  Uiso   1.00
H441   H     0.00477   0.88546   0.06071   0.00000  Uiso   1.00
H442   H     0.21087   0.96129   0.10959   0.00000  Uiso   1.00
H443   H     0.12386   0.70508   0.22525   0.00000  Uiso   1.00
H444   H     0.15646   0.71574   0.05108   0.00000  Uiso   1.00
H445   H     0.19557   0.67088   0.04402   0.00000  Uiso   1.00
H446   H     0.26682   0.71538   0.02525   0.00000  Uiso   1.00
H447   H     0.20812   0.72612   0.31961   0.00000  Uiso   1.00
H448   H     0.23051   0.76106   0.03432   0.00000  Uiso   1.00
N449   N     0.16668   0.83334   0.28403   0.00000  Uiso   1.00
N450   N     0.16665   0.83332   0.04931   0.00000  Uiso   1.00
O451   O     0.16666   0.77322   0.20625   0.00000  Uiso   1.00
O452   O     0.11456   0.95875   0.23199   0.00000  Uiso   1.00
O453   O     0.10459   0.77901   0.27511   0.00000  Uiso   1.00
O454   O     0.23419   0.88296   0.06063   0.00000  Uiso   1.00
O455   O     0.16667   0.89345   0.12709   0.00000  Uiso   1.00
O456   O     0.16666   0.77321   0.12706   0.00000  Uiso   1.00
O457   O     0.16667   0.89346   0.20628   0.00000  Uiso   1.00
O458   O     0.09161   0.83334   0.19712   0.00000  Uiso   1.00
O459   O     0.24172   0.83333   0.13621   0.00000  Uiso   1.00
O460   O     0.09161   0.83333   0.11793   0.00000  Uiso   1.00
O461   O     0.24172   0.83334   0.21540   0.00000  Uiso   1.00
O462   O     0.22005   0.70853   0.10267   0.00000  Uiso   1.00
C463   C     0.50076   0.75409   0.16665   0.00000  Uiso   1.00
C464   C     0.47584   0.68838   0.19958   0.00000  Uiso   1.00
C465   C     0.49853   0.95715   0.16662   0.00000  Uiso   1.00
C466   C     0.50078   0.70946   0.16632   0.00000  Uiso   1.00
C467   C     0.46744   0.80789   0.02084   0.00000  Uiso   1.00
C468   C     0.53289   0.85856   0.31242   0.00000  Uiso   1.00
C469   C     0.46682   0.80778   0.30409   0.00000  Uiso   1.00
C470   C     0.53339   0.85900   0.02946   0.00000  Uiso   1.00
C471   C     0.52982   0.70376   0.05546   0.00000  Uiso   1.00
C472   C     0.56076   0.72815   0.02331   0.00000  Uiso   1.00
C473   C     0.39599   0.95219   0.21202   0.00000  Uiso   1.00
C474   C     0.49935   0.91256   0.16668   0.00000  Uiso   1.00
C475   C     0.36639   0.93317   0.24898   0.00000  Uiso   1.00
C476   C     0.38708   0.77311   0.28595   0.00000  Uiso   1.00
C477   C     0.38074   0.73002   0.30590   0.00000  Uiso   1.00
C478   C     0.59670   0.91324   0.03986   0.00000  Uiso   1.00
C479   C     0.64727   0.89557   0.02795   0.00000  Uiso   1.00
C480   C     0.40126   0.83324   0.15461   0.00000  Uiso   1.00
C481   C     0.59872   0.83399   0.17871   0.00000  Uiso   1.00
C482   C     0.34596   0.83233   0.14800   0.00000  Uiso   1.00
C483   C     0.65396   0.83579   0.18521   0.00000  Uiso   1.00
C484   C     0.52426   0.68779   0.13243   0.00000  Uiso   1.00
C485   C     0.47342   0.97892   0.19925   0.00000  Uiso   1.00
C486   C     0.52371   0.97821   0.13361   0.00000  Uiso   1.00
Cu487  Cu    0.50000   0.83334   0.21355   0.00000  Uiso   1.00
Cu488  Cu    0.50000   0.83333   0.11978   0.00000  Uiso   1.00
H489   H     0.65931   0.82812   0.11240   0.00000  Uiso   1.00
H490   H     0.39348   0.93058   0.18142   0.00000  Uiso   1.00
H491   H     0.37714   0.98181   0.20035   0.00000  Uiso   1.00
H492   H     0.36661   0.95497   0.27903   0.00000  Uiso   1.00
H493   H     0.65912   0.92671   0.23341   0.00000  Uiso   1.00
H494   H     0.38461   0.90385   0.26207   0.00000  Uiso   1.00
H495   H     0.44288   0.78704   0.03734   0.00000  Uiso   1.00
H496   H     0.55884   0.87752   0.29520   0.00000  Uiso   1.00
H497   H     0.36041   0.77470   0.25241   0.00000  Uiso   1.00
H498   H     0.37412   0.79714   0.30952   0.00000  Uiso   1.00
H499   H     0.40583   0.72624   0.00669   0.00000  Uiso   1.00
H500   H     0.34052   0.84027   0.22077   0.00000  Uiso   1.00
H501   H     0.34000   0.72491   0.31157   0.00000  Uiso   1.00
H502   H     0.39086   0.70636   0.28071   0.00000  Uiso   1.00
H503   H     0.60745   0.93782   0.06657   0.00000  Uiso   1.00
H504   H     0.57431   0.92937   0.00963   0.00000  Uiso   1.00
H505   H     0.64036   0.86884   0.00353   0.00000  Uiso   1.00
H506   H     0.33558   0.91984   0.01129   0.00000  Uiso   1.00
H507   H     0.33810   0.88546   0.06071   0.00000  Uiso   1.00
H508   H     0.54420   0.96129   0.10959   0.00000  Uiso   1.00
H509   H     0.45719   0.70508   0.22525   0.00000  Uiso   1.00
H510   H     0.48979   0.71574   0.05108   0.00000  Uiso   1.00
H511   H     0.52890   0.67088   0.04402   0.00000  Uiso   1.00
H512   H     0.60015   0.71538   0.02525   0.00000  Uiso   1.00
H513   H     0.54145   0.72612   0.31961   0.00000  Uiso   1.00
H514   H     0.56384   0.76106   0.03432   0.00000  Uiso   1.00
N515   N     0.50001   0.83334   0.28403   0.00000  Uiso   1.00
N516   N     0.49999   0.83332   0.04931   0.00000  Uiso   1.00
O517   O     0.50000   0.77322   0.20625   0.00000  Uiso   1.00
O518   O     0.44790   0.95875   0.23199   0.00000  Uiso   1.00
O519   O     0.43793   0.77901   0.27511   0.00000  Uiso   1.00
O520   O     0.56753   0.88296   0.06063   0.00000  Uiso   1.00
O521   O     0.50000   0.89345   0.12709   0.00000  Uiso   1.00
O522   O     0.50000   0.77321   0.12706   0.00000  Uiso   1.00
O523   O     0.50000   0.89346   0.20628   0.00000  Uiso   1.00
O524   O     0.42495   0.83334   0.19712   0.00000  Uiso   1.00
O525   O     0.57505   0.83333   0.13621   0.00000  Uiso   1.00
O526   O     0.42494   0.83333   0.11793   0.00000  Uiso   1.00
O527   O     0.57506   0.83334   0.21540   0.00000  Uiso   1.00
O528   O     0.55338   0.70853   0.10267   0.00000  Uiso   1.00
C529   C     0.83409   0.75409   0.16665   0.00000  Uiso   1.00
C530   C     0.80917   0.68838   0.19958   0.00000  Uiso   1.00
C531   C     0.83187   0.95715   0.16662   0.00000  Uiso   1.00
C532   C     0.83411   0.70946   0.16632   0.00000  Uiso   1.00
C533   C     0.80078   0.80789   0.02084   0.00000  Uiso   1.00
C534   C     0.86622   0.85856   0.31242   0.00000  Uiso   1.00
C535   C     0.80016   0.80778   0.30409   0.00000  Uiso   1.00
C536   C     0.86672   0.85900   0.02946   0.00000  Uiso   1.00
C537   C     0.86316   0.70376   0.05546   0.00000  Uiso   1.00
C538   C     0.89409   0.72815   0.02331   0.00000  Uiso   1.00
C539   C     0.72932   0.95219   0.21202   0.00000  Uiso   1.00
C540   C     0.83269   0.91256   0.16668   0.00000  Uiso   1.00
C541   C     0.69972   0.93317   0.24898   0.00000  Uiso   1.00
C542   C     0.72041   0.77311   0.28595   0.00000  Uiso   1.00
C543   C     0.71407   0.73002   0.30590   0.00000  Uiso   1.00
C544   C     0.93003   0.91324   0.03986   0.00000  Uiso   1.00
C545   C     0.98060   0.89557   0.02795   0.00000  Uiso   1.00
C546   C     0.73459   0.83324   0.15461   0.00000  Uiso   1.00
C547   C     0.93205   0.83399   0.17871   0.00000  Uiso   1.00
C548   C     0.67929   0.83233   0.14800   0.00000  Uiso   1.00
C549   C     0.98730   0.83579   0.18521   0.00000  Uiso   1.00
C550   C     0.85760   0.68779   0.13243   0.00000  Uiso   1.00
C551   C     0.80675   0.97892   0.19925   0.00000  Uiso   1.00
C552   C     0.85704   0.97821   0.13361   0.00000  Uiso   1.00
Cu553  Cu    0.83333   0.83334   0.21355   0.00000  Uiso   1.00
Cu554  Cu    0.83333   0.83333   0.11978   0.00000  Uiso   1.00
H555   H     0.99265   0.82812   0.11240   0.00000  Uiso   1.00
H556   H     0.72682   0.93058   0.18142   0.00000  Uiso   1.00
H557   H     0.71047   0.98181   0.20035   0.00000  Uiso   1.00
H558   H     0.69994   0.95497   0.27903   0.00000  Uiso   1.00
H559   H     0.99245   0.92671   0.23341   0.00000  Uiso   1.00
H560   H     0.71794   0.90385   0.26207   0.00000  Uiso   1.00
H561   H     0.77621   0.78704   0.03734   0.00000  Uiso   1.00
H562   H     0.89218   0.87752   0.29520   0.00000  Uiso   1.00
H563   H     0.69374   0.77470   0.25241   0.00000  Uiso   1.00
H564   H     0.70745   0.79714   0.30952   0.00000  Uiso   1.00
H565   H     0.73916   0.72624   0.00669   0.00000  Uiso   1.00
H566   H     0.67385   0.84027   0.22077   0.00000  Uiso   1.00
H567   H     0.67333   0.72491   0.31157   0.00000  Uiso   1.00
H568   H     0.72420   0.70636   0.28071   0.00000  Uiso   1.00
H569   H     0.94078   0.93782   0.06657   0.00000  Uiso   1.00
H570   H     0.90765   0.92937   0.00963   0.00000  Uiso   1.00
H571   H     0.97369   0.86884   0.00353   0.00000  Uiso   1.00
H572   H     0.66891   0.91984   0.01129   0.00000  Uiso   1.00
H573   H     0.67144   0.88546   0.06071   0.00000  Uiso   1.00
H574   H     0.87753   0.96129   0.10959   0.00000  Uiso   1.00
H575   H     0.79052   0.70508   0.22525   0.00000  Uiso   1.00
H576   H     0.82312   0.71574   0.05108   0.00000  Uiso   1.00
H577   H     0.86224   0.67088   0.04402   0.00000  Uiso   1.00
H578   H     0.93349   0.71538   0.02525   0.00000  Uiso   1.00
H579   H     0.87478   0.72612   0.31961   0.00000  Uiso   1.00
H580   H     0.89718   0.76106   0.03432   0.00000  Uiso   1.00
N581   N     0.83335   0.83334   0.28403   0.00000  Uiso   1.00
N582   N     0.83332   0.83332   0.04931   0.00000  Uiso   1.00
O583   O     0.83333   0.77322   0.20625   0.00000  Uiso   1.00
O584   O     0.78123   0.95875   0.23199   0.00000  Uiso   1.00
O585   O     0.77126   0.77901   0.27511   0.00000  Uiso   1.00
O586   O     0.90086   0.88296   0.06063   0.00000  Uiso   1.00
O587   O     0.83334   0.89345   0.12709   0.00000  Uiso   1.00
O588   O     0.83333   0.77321   0.12706   0.00000  Uiso   1.00
O589   O     0.83334   0.89346   0.20628   0.00000  Uiso   1.00
O590   O     0.75828   0.83334   0.19712   0.00000  Uiso   1.00
O591   O     0.90839   0.83333   0.13621   0.00000  Uiso   1.00
O592   O     0.75828   0.83333   0.11793   0.00000  Uiso   1.00
O593   O     0.90839   0.83334   0.21540   0.00000  Uiso   1.00
O594   O     0.88671   0.70853   0.10267   0.00000  Uiso   1.00
C595   C     0.16742   0.08742   0.49998   0.00000  Uiso   1.00
C596   C     0.14251   0.02171   0.53292   0.00000  Uiso   1.00
C597   C     0.16520   0.29048   0.49995   0.00000  Uiso   1.00
C598   C     0.16745   0.04280   0.49965   0.00000  Uiso   1.00
C599   C     0.13411   0.14122   0.35417   0.00000  Uiso   1.00
C600   C     0.19955   0.19190   0.64575   0.00000  Uiso   1.00
C601   C     0.13349   0.14111   0.63742   0.00000  Uiso   1.00
C602   C     0.20005   0.19233   0.36279   0.00000  Uiso   1.00
C603   C     0.19649   0.03709   0.38880   0.00000  Uiso   1.00
C604   C     0.22743   0.06149   0.35664   0.00000  Uiso   1.00
C605   C     0.06266   0.28553   0.54535   0.00000  Uiso   1.00
C606   C     0.16602   0.24589   0.50001   0.00000  Uiso   1.00
C607   C     0.03305   0.26650   0.58232   0.00000  Uiso   1.00
C608   C     0.05374   0.10644   0.61929   0.00000  Uiso   1.00
C609   C     0.04741   0.06335   0.63924   0.00000  Uiso   1.00
C610   C     0.26336   0.24657   0.37319   0.00000  Uiso   1.00
C611   C     0.31393   0.22890   0.36128   0.00000  Uiso   1.00
C612   C     0.06792   0.16657   0.48794   0.00000  Uiso   1.00
C613   C     0.26539   0.16732   0.51204   0.00000  Uiso   1.00
C614   C     0.01263   0.16567   0.48133   0.00000  Uiso   1.00
C615   C     0.32063   0.16912   0.51854   0.00000  Uiso   1.00
C616   C     0.19093   0.02113   0.46577   0.00000  Uiso   1.00
C617   C     0.14009   0.31225   0.53259   0.00000  Uiso   1.00
C618   C     0.19037   0.31155   0.46695   0.00000  Uiso   1.00
Cu619  Cu    0.16667   0.16667   0.54689   0.00000  Uiso   1.00
Cu620  Cu    0.16667   0.16666   0.45311   0.00000  Uiso   1.00
H621   H     0.32598   0.16145   0.44573   0.00000  Uiso   1.00
H622   H     0.06015   0.26392   0.51475   0.00000  Uiso   1.00
H623   H     0.04381   0.31514   0.53369   0.00000  Uiso   1.00
H624   H     0.03328   0.28830   0.61236   0.00000  Uiso   1.00
H625   H     0.32579   0.26004   0.56674   0.00000  Uiso   1.00
H626   H     0.05127   0.23718   0.59540   0.00000  Uiso   1.00
H627   H     0.10955   0.12037   0.37068   0.00000  Uiso   1.00
H628   H     0.22551   0.21085   0.62853   0.00000  Uiso   1.00
H629   H     0.02707   0.10803   0.58574   0.00000  Uiso   1.00
H630   H     0.04078   0.13047   0.64285   0.00000  Uiso   1.00
H631   H     0.07249   0.05957   0.34002   0.00000  Uiso   1.00
H632   H     0.00718   0.17360   0.55410   0.00000  Uiso   1.00
H633   H     0.00667   0.05824   0.64490   0.00000  Uiso   1.00
H634   H     0.05753   0.03969   0.61404   0.00000  Uiso   1.00
H635   H     0.27411   0.27115   0.39991   0.00000  Uiso   1.00
H636   H     0.24098   0.26270   0.34296   0.00000  Uiso   1.00
H637   H     0.30702   0.20218   0.33686   0.00000  Uiso   1.00
H638   H     0.00224   0.25317   0.34462   0.00000  Uiso   1.00
H639   H     0.00477   0.21879   0.39405   0.00000  Uiso   1.00
H640   H     0.21087   0.29462   0.44293   0.00000  Uiso   1.00
H641   H     0.12386   0.03841   0.55858   0.00000  Uiso   1.00
H642   H     0.15646   0.04907   0.38441   0.00000  Uiso   1.00
H643   H     0.19557   0.00421   0.37735   0.00000  Uiso   1.00
H644   H     0.26682   0.04871   0.35859   0.00000  Uiso   1.00
H645   H     0.20812   0.05945   0.65295   0.00000  Uiso   1.00
H646   H     0.23051   0.09439   0.36766   0.00000  Uiso   1.00
N647   N     0.16668   0.16668   0.61736   0.00000  Uiso   1.00
N648   N     0.16665   0.16666   0.38264   0.00000  Uiso   1.00
O649   O     0.16666   0.10655   0.53958   0.00000  Uiso   1.00
O650   O     0.11456   0.29209   0.56532   0.00000  Uiso   1.00
O651   O     0.10459   0.11235   0.60844   0.00000  Uiso   1.00
O652   O     0.23419   0.21629   0.39396   0.00000  Uiso   1.00
O653   O     0.16667   0.22678   0.46042   0.00000  Uiso   1.00
O654   O     0.16666   0.10654   0.46039   0.00000  Uiso   1.00
O655   O     0.16667   0.22679   0.53961   0.00000  Uiso   1.00
O656   O     0.09161   0.16667   0.53046   0.00000  Uiso   1.00
O657   O     0.24172   0.16666   0.46954   0.00000  Uiso   1.00
O658   O     0.09161   0.16666   0.45127   0.00000  Uiso   1.00
O659   O     0.24172   0.16667   0.54873   0.00000  Uiso   1.00
O660   O     0.22005   0.04186   0.43600   0.00000  Uiso   1.00
C661   C     0.50076   0.08742   0.49998   0.00000  Uiso   1.00
C662   C     0.47584   0.02171   0.53292   0.00000  Uiso   1.00
C663   C     0.49853   0.29048   0.49995   0.00000  Uiso   1.00
C664   C     0.50078   0.04280   0.49965   0.00000  Uiso   1.00
C665   C     0.46744   0.14122   0.35417   0.00000  Uiso   1.00
C666   C     0.53289   0.19190   0.64575   0.00000  Uiso   1.00
C667   C     0.46682   0.14111   0.63742   0.00000  Uiso   1.00
C668   C     0.53339   0.19233   0.36279   0.00000  Uiso   1.00
C669   C     0.52982   0.03709   0.38880   0.00000  Uiso   1.00
C670   C     0.56076   0.06149   0.35664   0.00000  Uiso   1.00
C671   C     0.39599   0.28553   0.54535   0.00000  Uiso   1.00
C672   C     0.49935   0.24589   0.50001   0.00000  Uiso   1.00
C673   C     0.36639   0.26650   0.58232   0.00000  Uiso   1.00
C674   C     0.38708   0.10644   0.61929   0.00000  Uiso   1.00
C675   C     0.38074   0.06335   0.63924   0.00000  Uiso   1.00
C676   C     0.59670   0.24657   0.37319   0.00000  Uiso   1.00
C677   C     0.64727   0.22890   0.36128   0.00000  Uiso   1.00
C678   C     0.40126   0.16657   0.48794   0.00000  Uiso   1.00
C679   C     0.59872   0.16732   0.51204   0.00000  Uiso   1.00
C680   C     0.34596   0.16567   0.48133   0.00000  Uiso   1.00
C681   C     0.65396   0.16912   0.51854   0.00000  Uiso   1.00
C682   C     0.52426   0.02113   0.46577   0.00000  Uiso   1.00
C683   C     0.47342   0.31225   0.53259   0.00000  Uiso   1.00
C684   C     0.52371   0.31155   0.46695   0.00000  Uiso   1.00
Cu685  Cu    0.50000   0.16667   0.54689   0.00000  Uiso   1.00
Cu686  Cu    0.50000   0.16666   0.45311   0.00000  Uiso   1.00
H687   H     0.65931   0.16145   0.44573   0.00000  Uiso   1.00
H688   H     0.39348   0.26392   0.51475   0.00000  Uiso   1.00
H689   H     0.37714   0.31514   0.53369   0.00000  Uiso   1.00
H690   H     0.36661   0.28830   0.61236   0.00000  Uiso   1.00
H691   H     0.65912   0.26004   0.56674   0.00000  Uiso   1.00
H692   H     0.38461   0.23718   0.59540   0.00000  Uiso   1.00
H693   H     0.44288   0.12037   0.37068   0.00000  Uiso   1.00
H694   H     0.55884   0.21085   0.62853   0.00000  Uiso   1.00
H695   H     0.36041   0.10803   0.58574   0.00000  Uiso   1.00
H696   H     0.37412   0.13047   0.64285   0.00000  Uiso   1.00
H697   H     0.40583   0.05957   0.34002   0.00000  Uiso   1.00
H698   H     0.34052   0.17360   0.55410   0.00000  Uiso   1.00
H699   H     0.34000   0.05824   0.64490   0.00000  Uiso   1.00
H700   H     0.39086   0.03969   0.61404   0.00000  Uiso   1.00
H701   H     0.60745   0.27115   0.39991   0.00000  Uiso   1.00
H702   H     0.57431   0.26270   0.34296   0.00000  Uiso   1.00
H703   H     0.64036   0.20218   0.33686   0.00000  Uiso   1.00
H704   H     0.33558   0.25317   0.34462   0.00000  Uiso   1.00
H705   H     0.33810   0.21879   0.39405   0.00000  Uiso   1.00
H706   H     0.54420   0.29462   0.44293   0.00000  Uiso   1.00
H707   H     0.45719   0.03841   0.55858   0.00000  Uiso   1.00
H708   H     0.48979   0.04907   0.38441   0.00000  Uiso   1.00
H709   H     0.52890   0.00421   0.37735   0.00000  Uiso   1.00
H710   H     0.60015   0.04871   0.35859   0.00000  Uiso   1.00
H711   H     0.54145   0.05945   0.65295   0.00000  Uiso   1.00
H712   H     0.56384   0.09439   0.36766   0.00000  Uiso   1.00
N713   N     0.50001   0.16668   0.61736   0.00000  Uiso   1.00
N714   N     0.49999   0.16666   0.38264   0.00000  Uiso   1.00
O715   O     0.50000   0.10655   0.53958   0.00000  Uiso   1.00
O716   O     0.44790   0.29209   0.56532   0.00000  Uiso   1.00
O717   O     0.43793   0.11235   0.60844   0.00000  Uiso   1.00
O718   O     0.56753   0.21629   0.39396   0.00000  Uiso   1.00
O719   O     0.50000   0.22678   0.46042   0.00000  Uiso   1.00
O720   O     0.50000   0.10654   0.46039   0.00000  Uiso   1.00
O721   O     0.50000   0.22679   0.53961   0.00000  Uiso   1.00
O722   O     0.42495   0.16667   0.53046   0.00000  Uiso   1.00
O723   O     0.57505   0.16666   0.46954   0.00000  Uiso   1.00
O724   O     0.42494   0.16666   0.45127   0.00000  Uiso   1.00
O725   O     0.57506   0.16667   0.54873   0.00000  Uiso   1.00
O726   O     0.55338   0.04186   0.43600   0.00000  Uiso   1.00
C727   C     0.83409   0.08742   0.49998   0.00000  Uiso   1.00
C728   C     0.80917   0.02171   0.53292   0.00000  Uiso   1.00
C729   C     0.83187   0.29048   0.49995   0.00000  Uiso   1.00
C730   C     0.83411   0.04280   0.49965   0.00000  Uiso   1.00
C731   C     0.80078   0.14122   0.35417   0.00000  Uiso   1.00
C732   C     0.86622   0.19190   0.64575   0.00000  Uiso   1.00
C733   C     0.80016   0.14111   0.63742   0.00000  Uiso   1.00
C734   C     0.86672   0.19233   0.36279   0.00000  Uiso   1.00
C735   C     0.86316   0.03709   0.38880   0.00000  Uiso   1.00
C736   C     0.89409   0.06149   0.35664   0.00000  Uiso   1.00
C737   C     0.72932   0.28553   0.54535   0.00000  Uiso   1.00
C738   C     0.83269   0.24589   0.50001   0.00000  Uiso   1.00
C739   C     0.69972   0.26650   0.58232   0.00000  Uiso   1.00
C740   C     0.72041   0.10644   0.61929   0.00000  Uiso   1.00
C741   C     0.71407   0.06335   0.63924   0.00000  Uiso   1.00
C742   C     0.93003   0.24657   0.37319   0.00000  Uiso   1.00
C743   C     0.98060   0.22890   0.36128   0.00000  Uiso   1.00
C744   C     0.73459   0.16657   0.48794   0.00000  Uiso   1.00
C745   C     0.93205   0.16732   0.51204   0.00000  Uiso   1.00
C746   C     0.67929   0.16567   0.48133   0.00000  Uiso   1.00
C747   C     0.98730   0.16912   0.51854   0.00000  Uiso   1.00
C748   C     0.85760   0.02113   0.46577   0.00000  Uiso   1.00
C749   C     0.80675   0.31225   0.53259   0.00000  Uiso   1.00
C750   C     0.85704   0.31155   0.46695   0.00000  Uiso   1.00
Cu751  Cu    0.83333   0.16667   0.54689   0.00000  Uiso   1.00
Cu752  Cu    0.83333   0.16666   0.45311   0.00000  Uiso   1.00
H753   H     0.99265   0.16145   0.44573   0.00000  Uiso   1.00
H754   H     0.72682   0.26392   0.51475   0.00000  Uiso   1.00
H755   H     0.71047   0.31514   0.53369   0.00000  Uiso   1.00
H756   H     0.69994   0.28830   0.61236   0.00000  Uiso   1.00
H757   H     0.99245   0.26004   0.56674   0.00000  Uiso   1.00
H758   H     0.71794   0.23718   0.59540   0.00000  Uiso   1.00
H759   H     0.77621   0.12037   0.37068   0.00000  Uiso   1.00
H760   H     0.89218   0.21085   0.62853   0.00000  Uiso   1.00
H761   H     0.69374   0.10803   0.58574   0.00000  Uiso   1.00
H762   H     0.70745   0.13047   0.64285   0.00000  Uiso   1.00
H763   H     0.73916   0.05957   0.34002   0.00000  Uiso   1.00
H764   H     0.67385   0.17360   0.55410   0.00000  Uiso   1.00
H765   H     0.67333   0.05824   0.64490   0.00000  Uiso   1.00
H766   H     0.72420   0.03969   0.61404   0.00000  Uiso   1.00
H767   H     0.94078   0.27115   0.39991   0.00000  Uiso   1.00
H768   H     0.90765   0.26270   0.34296   0.00000  Uiso   1.00
H769   H     0.97369   0.20218   0.33686   0.00000  Uiso   1.00
H770   H     0.66891   0.25317   0.34462   0.00000  Uiso   1.00
H771   H     0.67144   0.21879   0.39405   0.00000  Uiso   1.00
H772   H     0.87753   0.29462   0.44293   0.00000  Uiso   1.00
H773   H     0.79052   0.03841   0.55858   0.00000  Uiso   1.00
H774   H     0.82312   0.04907   0.38441   0.00000  Uiso   1.00
H775   H     0.86224   0.00421   0.37735   0.00000  Uiso   1.00
H776   H     0.93349   0.04871   0.35859   0.00000  Uiso   1.00
H777   H     0.87478   0.05945   0.65295   0.00000  Uiso   1.00
H778   H     0.89718   0.09439   0.36766   0.00000  Uiso   1.00
N779   N     0.83335   0.16668   0.61736   0.00000  Uiso   1.00
N780   N     0.83332   0.16666   0.38264   0.00000  Uiso   1.00
O781   O     0.83333   0.10655   0.53958   0.00000  Uiso   1.00
O782   O     0.78123   0.29209   0.56532   0.00000  Uiso   1.00
O783   O     0.77126   0.11235   0.60844   0.00000  Uiso   1.00
O784   O     0.90086   0.21629   0.39396   0.00000  Uiso   1.00
O785   O     0.83334   0.22678   0.46042   0.00000  Uiso   1.00
O786   O     0.83333   0.10654   0.46039   0.00000  Uiso   1.00
O787   O     0.83334   0.22679   0.53961   0.00000  Uiso   1.00
O788   O     0.75828   0.16667   0.53046   0.00000  Uiso   1.00
O789   O     0.90839   0.16666   0.46954   0.00000  Uiso   1.00
O790   O     0.75828   0.16666   0.45127   0.00000  Uiso   1.00
O791   O     0.90839   0.16667   0.54873   0.00000  Uiso   1.00
O792   O     0.88671   0.04186   0.43600   0.00000  Uiso   1.00
C793   C     0.16742   0.42076   0.49998   0.00000  Uiso   1.00
C794   C     0.14251   0.35504   0.53292   0.00000  Uiso   1.00
C795   C     0.16520   0.62382   0.49995   0.00000  Uiso   1.00
C796   C     0.16745   0.37613   0.49965   0.00000  Uiso   1.00
C797   C     0.13411   0.47455   0.35417   0.00000  Uiso   1.00
C798   C     0.19955   0.52523   0.64575   0.00000  Uiso   1.00
C799   C     0.13349   0.47445   0.63742   0.00000  Uiso   1.00
C800   C     0.20005   0.52567   0.36279   0.00000  Uiso   1.00
C801   C     0.19649   0.37042   0.38880   0.00000  Uiso   1.00
C802   C     0.22743   0.39482   0.35664   0.00000  Uiso   1.00
C803   C     0.06266   0.61886   0.54535   0.00000  Uiso   1.00
C804   C     0.16602   0.57922   0.50001   0.00000  Uiso   1.00
C805   C     0.03305   0.59984   0.58232   0.00000  Uiso   1.00
C806   C     0.05374   0.43978   0.61929   0.00000  Uiso   1.00
C807   C     0.04741   0.39669   0.63924   0.00000  Uiso   1.00
C808   C     0.26336   0.57990   0.37319   0.00000  Uiso   1.00
C809   C     0.31393   0.56224   0.36128   0.00000  Uiso   1.00
C810   C     0.06792   0.49990   0.48794   0.00000  Uiso   1.00
C811   C     0.26539   0.50065   0.51204   0.00000  Uiso   1.00
C812   C     0.01263   0.49900   0.48133   0.00000  Uiso   1.00
C813   C     0.32063   0.50246   0.51854   0.00000  Uiso   1.00
C814   C     0.19093   0.35446   0.46577   0.00000  Uiso   1.00
C815   C     0.14009   0.64559   0.53259   0.00000  Uiso   1.00
C816   C     0.19037   0.64488   0.46695   0.00000  Uiso   1.00
Cu817  Cu    0.16667   0.50001   0.54689   0.00000  Uiso   1.00
Cu818  Cu    0.16667   0.49999   0.45311   0.00000  Uiso   1.00
H819   H     0.32598   0.49478   0.44573   0.00000  Uiso   1.00
H820   H     0.06015   0.59725   0.51475   0.00000  Uiso   1.00
H821   H     0.04381   0.64848   0.53369   0.00000  Uiso   1.00
H822   H     0.03328   0.62164   0.61236   0.00000  Uiso   1.00
H823   H     0.32579   0.59338   0.56674   0.00000  Uiso   1.00
H824   H     0.05127   0.57051   0.59540   0.00000  Uiso   1.00
H825   H     0.10955   0.45370   0.37068   0.00000  Uiso   1.00
H826   H     0.22551   0.54419   0.62853   0.00000  Uiso   1.00
H827   H     0.02707   0.44136   0.58574   0.00000  Uiso   1.00
H828   H     0.04078   0.46381   0.64285   0.00000  Uiso   1.00
H829   H     0.07249   0.39291   0.34002   0.00000  Uiso   1.00
H830   H     0.00718   0.50694   0.55410   0.00000  Uiso   1.00
H831   H     0.00667   0.39158   0.64490   0.00000  Uiso   1.00
H832   H     0.05753   0.37302   0.61404   0.00000  Uiso   1.00
H833   H     0.27411   0.60448   0.39991   0.00000  Uiso   1.00
H834   H     0.24098   0.59604   0.34296   0.00000  Uiso   1.00
H835   H     0.30702   0.53551   0.33686   0.00000  Uiso   1.00
H836   H     0.00224   0.58651   0.34462   0.00000  Uiso   1.00
H837   H     0.00477   0.55212   0.39405   0.00000  Uiso   1.00
H838   H     0.21087   0.62796   0.44293   0.00000  Uiso   1.00
H839   H     0.12386   0.37175   0.55858   0.00000  Uiso   1.00
H840   H     0.15646   0.38241   0.38441   0.00000  Uiso   1.00
H841   H     0.19557   0.33755   0.37735   0.00000  Uiso   1.00
H842   H     0.26682   0.38205   0.35859   0.00000  Uiso   1.00
H843   H     0.20812   0.39278   0.65295   0.00000  Uiso   1.00
H844   H     0.23051   0.42773   0.36766   0.00000  Uiso   1.00
N845   N     0.16668   0.50001   0.61736   0.00000  Uiso   1.00
N846   N     0.16665   0.49999   0.38264   0.00000  Uiso   1.00
O847   O     0.16666   0.43989   0.53958   0.00000  Uiso   1.00
O848   O     0.11456   0.62542   0.56532   0.00000  Uiso   1.00
O849   O     0.10459   0.44568   0.60844   0.00000  Uiso   1.00
O850   O     0.23419   0.54963   0.39396   0.00000  Uiso   1.00
O851   O     0.16667   0.56011   0.46042   0.00000  Uiso   1.00
O852   O     0.16666   0.43988   0.46039   0.00000  Uiso   1.00
O853   O     0.16667   0.56012   0.53961   0.00000  Uiso   1.00
O854   O     0.09161   0.50000   0.53046   0.00000  Uiso   1.00
O855   O     0.24172   0.50000   0.46954   0.00000  Uiso   1.00
O856   O     0.09161   0.49999   0.45127   0.00000  Uiso   1.00
O857   O     0.24172   0.50001   0.54873   0.00000  Uiso   1.00
O858   O     0.22005   0.37519   0.43600   0.00000  Uiso   1.00
C859   C     0.50076   0.42076   0.49998   0.00000  Uiso   1.00
C860   C     0.47584   0.35504   0.53292   0.00000  Uiso   1.00
C861   C     0.49853   0.62382   0.49995   0.00000  Uiso   1.00
C862   C     0.50078   0.37613   0.49965   0.00000  Uiso   1.00
C863   C     0.46744   0.47455   0.35417   0.00000  Uiso   1.00
C864   C     0.53289   0.52523   0.64575   0.00000  Uiso   1.00
C865   C     0.46682   0.47445   0.63742   0.00000  Uiso   1.00
C866   C     0.53339   0.52567   0.36279   0.00000  Uiso   1.00
C867   C     0.52982   0.37042   0.38880   0.00000  Uiso   1.00
C868   C     0.56076   0.39482   0.35664   0.00000  Uiso   1.00
C869   C     0.39599   0.61886   0.54535   0.00000  Uiso   1.00
C870   C     0.49935   0.57922   0.50001   0.00000  Uiso   1.00
C871   C     0.36639   0.59984   0.58232   0.00000  Uiso   1.00
C872   C     0.38708   0.43978   0.61929   0.00000  Uiso   1.00
C873   C     0.38074   0.39669   0.63924   0.00000  Uiso   1.00
C874   C     0.59670   0.57990   0.37319   0.00000  Uiso   1.00
C875   C     0.64727   0.56224   0.36128   0.00000  Uiso   1.00
C876   C     0.40126   0.49990   0.48794   0.00000  Uiso   1.00
C877   C     0.59872   0.50065   0.51204   0.00000  Uiso   1.00
C878   C     0.34596   0.49900   0.48133   0.00000  Uiso   1.00
C879   C     0.65396   0.50246   0.51854   0.00000  Uiso   1.00
C880   C     0.52426   0.35446   0.46577   0.00000  Uiso   1.00
C881   C     0.47342   0.64559   0.53259   0.00000  Uiso   1.00
C882   C     0.52371   0.64488   0.46695   0.00000  Uiso   1.00
Cu883  Cu    0.50000   0.50001   0.54689   0.00000  Uiso   1.00
Cu884  Cu    0.50000   0.49999   0.45311   0.00000  Uiso   1.00
H885   H     0.65931   0.49478   0.44573   0.00000  Uiso   1.00
H886   H     0.39348   0.59725   0.51475   0.00000  Uiso   1.00
H887   H     0.37714   0.64848   0.53369   0.00000  Uiso   1.00
H888   H     0.36661   0.62164   0.61236   0.00000  Uiso   1.00
H889   H     0.65912   0.59338   0.56674   0.00000  Uiso   1.00
H890   H     0.38461   0.57051   0.59540   0.00000  Uiso   1.00
H891   H     0.44288   0.45370   0.37068   0.00000  Uiso   1.00
H892   H     0.55884   0.54419   0.62853   0.00000  Uiso   1.00
H893   H     0.36041   0.44136   0.58574   0.00000  Uiso   1.00
H894   H     0.37412   0.46381   0.64285   0.00000  Uiso   1.00
H895   H     0.40583   0.39291   0.34002   0.00000  Uiso   1.00
H896   H     0.34052   0.50694   0.55410   0.00000  Uiso   1.00
H897   H     0.34000   0.39158   0.64490   0.00000  Uiso   1.00
H898   H     0.39086   0.37302   0.61404   0.00000  Uiso   1.00
H899   H     0.60745   0.60448   0.39991   0.00000  Uiso   1.00
H900   H     0.57431   0.59604   0.34296   0.00000  Uiso   1.00
H901   H     0.64036   0.53551   0.33686   0.00000  Uiso   1.00
H902   H     0.33558   0.58651   0.34462   0.00000  Uiso   1.00
H903   H     0.33810   0.55212   0.39405   0.00000  Uiso   1.00
H904   H     0.54420   0.62796   0.44293   0.00000  Uiso   1.00
H905   H     0.45719   0.37175   0.55858   0.00000  Uiso   1.00
H906   H     0.48979   0.38241   0.38441   0.00000  Uiso   1.00
H907   H     0.52890   0.33755   0.37735   0.00000  Uiso   1.00
H908   H     0.60015   0.38205   0.35859   0.00000  Uiso   1.00
H909   H     0.54145   0.39278   0.65295   0.00000  Uiso   1.00
H910   H     0.56384   0.42773   0.36766   0.00000  Uiso   1.00
N911   N     0.50001   0.50001   0.61736   0.00000  Uiso   1.00
N912   N     0.49999   0.49999   0.38264   0.00000  Uiso   1.00
O913   O     0.50000   0.43989   0.53958   0.00000  Uiso   1.00
O914   O     0.44790   0.62542   0.56532   0.00000  Uiso   1.00
O915   O     0.43793   0.44568   0.60844   0.00000  Uiso   1.00
O916   O     0.56753   0.54963   0.39396   0.00000  Uiso   1.00
O917   O     0.50000   0.56011   0.46042   0.00000  Uiso   1.00
O918   O     0.50000   0.43988   0.46039   0.00000  Uiso   1.00
O919   O     0.50000   0.56012   0.53961   0.00000  Uiso   1.00
O920   O     0.42495   0.50000   0.53046   0.00000  Uiso   1.00
O921   O     0.57505   0.50000   0.46954   0.00000  Uiso   1.00
O922   O     0.42494   0.49999   0.45127   0.00000  Uiso   1.00
O923   O     0.57506   0.50001   0.54873   0.00000  Uiso   1.00
O924   O     0.55338   0.37519   0.43600   0.00000  Uiso   1.00
C925   C     0.83409   0.42076   0.49998   0.00000  Uiso   1.00
C926   C     0.80917   0.35504   0.53292   0.00000  Uiso   1.00
C927   C     0.83187   0.62382   0.49995   0.00000  Uiso   1.00
C928   C     0.83411   0.37613   0.49965   0.00000  Uiso   1.00
C929   C     0.80078   0.47455   0.35417   0.00000  Uiso   1.00
C930   C     0.86622   0.52523   0.64575   0.00000  Uiso   1.00
C931   C     0.80016   0.47445   0.63742   0.00000  Uiso   1.00
C932   C     0.86672   0.52567   0.36279   0.00000  Uiso   1.00
C933   C     0.86316   0.37042   0.38880   0.00000  Uiso   1.00
C934   C     0.89409   0.39482   0.35664   0.00000  Uiso   1.00
C935   C     0.72932   0.61886   0.54535   0.00000  Uiso   1.00
C936   C     0.83269   0.57922   0.50001   0.00000  Uiso   1.00
C937   C     0.69972   0.59984   0.58232   0.00000  Uiso   1.00
C938   C     0.72041   0.43978   0.61929   0.00000  Uiso   1.00
C939   C     0.71407   0.39669   0.63924   0.00000  Uiso   1.00
C940   C     0.93003   0.57990   0.37319   0.00000  Uiso   1.00
C941   C     0.98060   0.56224   0.36128   0.00000  Uiso   1.00
C942   C     0.73459   0.49990   0.48794   0.00000  Uiso   1.00
C943   C     0.93205   0.50065   0.51204   0.00000  Uiso   1.00
C944   C     0.67929   0.49900   0.48133   0.00000  Uiso   1.00
C945   C     0.98730   0.50246   0.51854   0.00000  Uiso   1.00
C946   C     0.85760   0.35446   0.46577   0.00000  Uiso   1.00
C947   C     0.80675   0.64559   0.53259   0.00000  Uiso   1.00
C948   C     0.85704   0.64488   0.46695   0.00000  Uiso   1.00
Cu949  Cu    0.83333   0.50001   0.54689   0.00000  Uiso   1.00
Cu950  Cu    0.83333   0.49999   0.45311   0.00000  Uiso   1.00
H951   H     0.99265   0.49478   0.44573   0.00000  Uiso   1.00
H952   H     0.72682   0.59725   0.51475   0.00000  Uiso   1.00
H953   H     0.71047   0.64848   0.53369   0.00000  Uiso   1.00
H954   H     0.69994   0.62164   0.61236   0.00000  Uiso   1.00
H955   H     0.99245   0.59338   0.56674   0.00000  Uiso   1.00
H956   H     0.71794   0.57051   0.59540   0.00000  Uiso   1.00
H957   H     0.77621   0.45370   0.37068   0.00000  Uiso   1.00
H958   H     0.89218   0.54419   0.62853   0.00000  Uiso   1.00
H959   H     0.69374   0.44136   0.58574   0.00000  Uiso   1.00
H960   H     0.70745   0.46381   0.64285   0.00000  Uiso   1.00
H961   H     0.73916   0.39291   0.34002   0.00000  Uiso   1.00
H962   H     0.67385   0.50694   0.55410   0.00000  Uiso   1.00
H963   H     0.67333   0.39158   0.64490   0.00000  Uiso   1.00
H964   H     0.72420   0.37302   0.61404   0.00000  Uiso   1.00
H965   H     0.94078   0.60448   0.39991   0.00000  Uiso   1.00
H966   H     0.90765   0.59604   0.34296   0.00000  Uiso   1.00
H967   H     0.97369   0.53551   0.33686   0.00000  Uiso   1.00
H968   H     0.66891   0.58651   0.34462   0.00000  Uiso   1.00
H969   H     0.67144   0.55212   0.39405   0.00000  Uiso   1.00
H970   H     0.87753   0.62796   0.44293   0.00000  Uiso   1.00
H971   H     0.79052   0.37175   0.55858   0.00000  Uiso   1.00
H972   H     0.82312   0.38241   0.38441   0.00000  Uiso   1.00
H973   H     0.86224   0.33755   0.37735   0.00000  Uiso   1.00
H974   H     0.93349   0.38205   0.35859   0.00000  Uiso   1.00
H975   H     0.87478   0.39278   0.65295   0.00000  Uiso   1.00
H976   H     0.89718   0.42773   0.36766   0.00000  Uiso   1.00
N977   N     0.83335   0.50001   0.61736   0.00000  Uiso   1.00
N978   N     0.83332   0.49999   0.38264   0.00000  Uiso   1.00
O979   O     0.83333   0.43989   0.53958   0.00000  Uiso   1.00
O980   O     0.78123   0.62542   0.56532   0.00000  Uiso   1.00
O981   O     0.77126   0.44568   0.60844   0.00000  Uiso   1.00
O982   O     0.90086   0.54963   0.39396   0.00000  Uiso   1.00
O983   O     0.83334   0.56011   0.46042   0.00000  Uiso   1.00
O984   O     0.83333   0.43988   0.46039   0.00000  Uiso   1.00
O985   O     0.83334   0.56012   0.53961   0.00000  Uiso   1.00
O986   O     0.75828   0.50000   0.53046   0.00000  Uiso   1.00
O987   O     0.90839   0.50000   0.46954   0.00000  Uiso   1.00
O988   O     0.75828   0.49999   0.45127   0.00000  Uiso   1.00
O989   O     0.90839   0.50001   0.54873   0.00000  Uiso   1.00
O990   O     0.88671   0.37519   0.43600   0.00000  Uiso   1.00
C991   C     0.16742   0.75409   0.49998   0.00000  Uiso   1.00
C992   C     0.14251   0.68838   0.53292   0.00000  Uiso   1.00
C993   C     0.16520   0.95715   0.49995   0.00000  Uiso   1.00
C994   C     0.16745   0.70946   0.49965   0.00000  Uiso   1.00
C995   C     0.13411   0.80789   0.35417   0.00000  Uiso   1.00
C996   C     0.19955   0.85856   0.64575   0.00000  Uiso   1.00
C997   C     0.13349   0.80778   0.63742   0.00000  Uiso   1.00
C998   C     0.20005   0.85900   0.36279   0.00000  Uiso   1.00
C999   C     0.19649   0.70376   0.38880   0.00000  Uiso   1.00
C1000  C     0.22743   0.72815   0.35664   0.00000  Uiso   1.00
C1001  C     0.06266   0.95219   0.54535   0.00000  Uiso   1.00
C1002  C     0.16602   0.91256   0.50001   0.00000  Uiso   1.00
C1003  C     0.03305   0.93317   0.58232   0.00000  Uiso   1.00
C1004  C     0.05374   0.77311   0.61929   0.00000  Uiso   1.00
C1005  C     0.04741   0.73002   0.63924   0.00000  Uiso   1.00
C1006  C     0.26336   0.91324   0.37319   0.00000  Uiso   1.00
C1007  C     0.31393   0.89557   0.36128   0.00000  Uiso   1.00
C1008  C     0.06792   0.83324   0.48794   0.00000  Uiso   1.00
C1009  C     0.26539   0.83399   0.51204   0.00000  Uiso   1.00
C1010  C     0.01263   0.83233   0.48133   0.00000  Uiso   1.00
C1011  C     0.32063   0.83579   0.51854   0.00000  Uiso   1.00
C1012  C     0.19093   0.68779   0.46577   0.00000  Uiso   1.00
C1013  C     0.14009   0.97892   0.53259   0.00000  Uiso   1.00
C1014  C     0.19037   0.97821   0.46695   0.00000  Uiso   1.00
Cu1015 Cu    0.16667   0.83334   0.54689   0.00000  Uiso   1.00
Cu1016 Cu    0.16667   0.83333   0.45311   0.00000  Uiso   1.00
H1017  H     0.32598   0.82812   0.44573   0.00000  Uiso   1.00
H1018  H     0.06015   0.93058   0.51475   0.00000  Uiso   1.00
H1019  H     0.04381   0.98181   0.53369   0.00000  Uiso   1.00
H1020  H     0.03328   0.95497   0.61236   0.00000  Uiso   1.00
H1021  H     0.32579   0.92671   0.56674   0.00000  Uiso   1.00
H1022  H     0.05127   0.90385   0.59540   0.00000  Uiso   1.00
H1023  H     0.10955   0.78704   0.37068   0.00000  Uiso   1.00
H1024  H     0.22551   0.87752   0.62853   0.00000  Uiso   1.00
H1025  H     0.02707   0.77470   0.58574   0.00000  Uiso   1.00
H1026  H     0.04078   0.79714   0.64285   0.00000  Uiso   1.00
H1027  H     0.07249   0.72624   0.34002   0.00000  Uiso   1.00
H1028  H     0.00718   0.84027   0.55410   0.00000  Uiso   1.00
H1029  H     0.00667   0.72491   0.64490   0.00000  Uiso   1.00
H1030  H     0.05753   0.70636   0.61404   0.00000  Uiso   1.00
H1031  H     0.27411   0.93782   0.39991   0.00000  Uiso   1.00
H1032  H     0.24098   0.92937   0.34296   0.00000  Uiso   1.00
H1033  H     0.30702   0.86884   0.33686   0.00000  Uiso   1.00
H1034  H     0.00224   0.91984   0.34462   0.00000  Uiso   1.00
H1035  H     0.00477   0.88546   0.39405   0.00000  Uiso   1.00
H1036  H     0.21087   0.96129   0.44293   0.00000  Uiso   1.00
H1037  H     0.12386   0.70508   0.55858   0.00000  Uiso   1.00
H1038  H     0.15646   0.71574   0.38441   0.00000  Uiso   1.00
H1039  H     0.19557   0.67088   0.37735   0.00000  Uiso   1.00
H1040  H     0.26682   0.71538   0.35859   0.00000  Uiso   1.00
H1041  H     0.20812   0.72612   0.65295   0.00000  Uiso   1.00
H1042  H     0.23051   0.76106   0.36766   0.00000  Uiso   1.00
N1043  N     0.16668   0.83334   0.61736   0.00000  Uiso   1.00
N1044  N     0.16665   0.83332   0.38264   0.00000  Uiso   1.00
O1045  O     0.16666   0.77322   0.53958   0.00000  Uiso   1.00
O1046  O     0.11456   0.95875   0.56532   0.00000  Uiso   1.00
O1047  O     0.10459   0.77901   0.60844   0.00000  Uiso   1.00
O1048  O     0.23419   0.88296   0.39396   0.00000  Uiso   1.00
O1049  O     0.16667   0.89345   0.46042   0.00000  Uiso   1.00
O1050  O     0.16666   0.77321   0.46039   0.00000  Uiso   1.00
O1051  O     0.16667   0.89346   0.53961   0.00000  Uiso   1.00
O1052  O     0.09161   0.83334   0.53046   0.00000  Uiso   1.00
O1053  O     0.24172   0.83333   0.46954   0.00000  Uiso   1.00
O1054  O     0.09161   0.83333   0.45127   0.00000  Uiso   1.00
O1055  O     0.24172   0.83334   0.54873   0.00000  Uiso   1.00
O1056  O     0.22005   0.70853   0.43600   0.00000  Uiso   1.00
C1057  C     0.50076   0.75409   0.49998   0.00000  Uiso   1.00
C1058  C     0.47584   0.68838   0.53292   0.00000  Uiso   1.00
C1059  C     0.49853   0.95715   0.49995   0.00000  Uiso   1.00
C1060  C     0.50078   0.70946   0.49965   0.00000  Uiso   1.00
C1061  C     0.46744   0.80789   0.35417   0.00000  Uiso   1.00
C1062  C     0.53289   0.85856   0.64575   0.00000  Uiso   1.00
C1063  C     0.46682   0.80778   0.63742   0.00000  Uiso   1.00
C1064  C     0.53339   0.85900   0.36279   0.00000  Uiso   1.00
C1065  C     0.52982   0.70376   0.38880   0.00000  Uiso   1.00
C1066  C     0.56076   0.72815   0.35664   0.00000  Uiso   1.00
C1067  C     0.39599   0.95219   0.54535   0.00000  Uiso   1.00
C1068  C     0.49935   0.91256   0.50001   0.00000  Uiso   1.00
C1069  C     0.36639   0.93317   0.58232   0.00000  Uiso   1.00
C1070  C     0.38708   0.77311   0.61929   0.00000  Uiso   1.00
C1071  C     0.38074   0.73002   0.63924   0.00000  Uiso   1.00
C1072  C     0.59670   0.91324   0.37319   0.00000  Uiso   1.00
C1073  C     0.64727   0.89557   0.36128   0.00000  Uiso   1.00
C1074  C     0.40126   0.83324   0.48794   0.00000  Uiso   1.00
C1075  C     0.59872   0.83399   0.51204   0.00000  Uiso   1.00
C1076  C     0.34596   0.83233   0.48133   0.00000  Uiso   1.00
C1077  C     0.65396   0.83579   0.51854   0.00000  Uiso   1.00
C1078  C     0.52426   0.68779   0.46577   0.00000  Uiso   1.00
C1079  C     0.47342   0.97892   0.53259   0.00000  Uiso   1.00
C1080  C     0.52371   0.97821   0.46695   0.00000  Uiso   1.00
Cu1081 Cu    0.50000   0.83334   0.54689   0.00000  Uiso   1.00
Cu1082 Cu    0.50000   0.83333   0.45311   0.00000  Uiso   1.00
H1083  H     0.65931   0.82812   0.44573   0.00000  Uiso   1.00
H1084  H     0.39348   0.93058   0.51475   0.00000  Uiso   1.00
H1085  H     0.37714   0.98181   0.53369   0.00000  Uiso   1.00
H1086  H     0.36661   0.95497   0.61236   0.00000  Uiso   1.00
H1087  H     0.65912   0.92671   0.56674   0.00000  Uiso   1.00
H1088  H     0.38461   0.90385   0.59540   0.00000  Uiso   1.00
H1089  H     0.44288   0.78704   0.37068   0.00000  Uiso   1.00
H1090  H     0.55884   0.87752   0.62853   0.00000  Uiso   1.00
H1091  H     0.36041   0.77470   0.58574   0.00000  Uiso   1.00
H1092  H     0.37412   0.79714   0.64285   0.00000  Uiso   1.00
H1093  H     0.40583   0.72624   0.34002   0.00000  Uiso   1.00
H1094  H     0.34052   0.84027   0.55410   0.00000  Uiso   1.00
H1095  H     0.34000   0.72491   0.64490   0.00000  Uiso   1.00
H1096  H     0.39086   0.70636   0.61404   0.00000  Uiso   1.00
H1097  H     0.60745   0.93782   0.39991   0.00000  Uiso   1.00
H1098  H     0.57431   0.92937   0.34296   0.00000  Uiso   1.00
H1099  H     0.64036   0.86884   0.33686   0.00000  Uiso   1.00
H1100  H     0.33558   0.91984   0.34462   0.00000  Uiso   1.00
H1101  H     0.33810   0.88546   0.39405   0.00000  Uiso   1.00
H1102  H     0.54420   0.96129   0.44293   0.00000  Uiso   1.00
H1103  H     0.45719   0.70508   0.55858   0.00000  Uiso   1.00
H1104  H     0.48979   0.71574   0.38441   0.00000  Uiso   1.00
H1105  H     0.52890   0.67088   0.37735   0.00000  Uiso   1.00
H1106  H     0.60015   0.71538   0.35859   0.00000  Uiso   1.00
H1107  H     0.54145   0.72612   0.65295   0.00000  Uiso   1.00
H1108  H     0.56384   0.76106   0.36766   0.00000  Uiso   1.00
N1109  N     0.50001   0.83334   0.61736   0.00000  Uiso   1.00
N1110  N     0.49999   0.83332   0.38264   0.00000  Uiso   1.00
O1111  O     0.50000   0.77322   0.53958   0.00000  Uiso   1.00
O1112  O     0.44790   0.95875   0.56532   0.00000  Uiso   1.00
O1113  O     0.43793   0.77901   0.60844   0.00000  Uiso   1.00
O1114  O     0.56753   0.88296   0.39396   0.00000  Uiso   1.00
O1115  O     0.50000   0.89345   0.46042   0.00000  Uiso   1.00
O1116  O     0.50000   0.77321   0.46039   0.00000  Uiso   1.00
O1117  O     0.50000   0.89346   0.53961   0.00000  Uiso   1.00
O1118  O     0.42495   0.83334   0.53046   0.00000  Uiso   1.00
O1119  O     0.57505   0.83333   0.46954   0.00000  Uiso   1.00
O1120  O     0.42494   0.83333   0.45127   0.00000  Uiso   1.00
O1121  O     0.57506   0.83334   0.54873   0.00000  Uiso   1.00
O1122  O     0.55338   0.70853   0.43600   0.00000  Uiso   1.00
C1123  C     0.83409   0.75409   0.49998   0.00000  Uiso   1.00
C1124  C     0.80917   0.68838   0.53292   0.00000  Uiso   1.00
C1125  C     0.83187   0.95715   0.49995   0.00000  Uiso   1.00
C1126  C     0.83411   0.70946   0.49965   0.00000  Uiso   1.00
C1127  C     0.80078   0.80789   0.35417   0.00000  Uiso   1.00
C1128  C     0.86622   0.85856   0.64575   0.00000  Uiso   1.00
C1129  C     0.80016   0.80778   0.63742   0.00000  Uiso   1.00
C1130  C     0.86672   0.85900   0.36279   0.00000  Uiso   1.00
C1131  C     0.86316   0.70376   0.38880   0.00000  Uiso   1.00
C1132  C     0.89409   0.72815   0.35664   0.00000  Uiso   1.00
C1133  C     0.72932   0.95219   0.54535   0.00000  Uiso   1.00
C1134  C     0.83269   0.91256   0.50001   0.00000  Uiso   1.00
C1135  C     0.69972   0.93317   0.58232   0.00000  Uiso   1.00
C1136  C     0.72041   0.77311   0.61929   0.00000  Uiso   1.00
C1137  C     0.71407   0.73002   0.63924   0.00000  Uiso   1.00
C1138  C     0.93003   0.91324   0.37319   0.00000  Uiso   1.00
C1139  C     0.98060   0.89557   0.36128   0.00000  Uiso   1.00
C1140  C     0.73459   0.83324   0.48794   0.00000  Uiso   1.00
C1141  C     0.93205   0.83399   0.51204   0.00000  Uiso   1.00
C1142  C     0.67929   0.83233   0.48133   0.00000  Uiso   1.00
C1143  C     0.98730   0.83579   0.51854   0.00000  Uiso   1.00
C1144  C     0.85760   0.68779   0.46577   0.00000  Uiso   1.00
C1145  C     0.80675   0.97892   0.53259   0.00000  Uiso   1.00
C1146  C     0.85704   0.97821   0.46695   0.00000  Uiso   1.00
Cu1147 Cu    0.83333   0.83334   0.54689   0.00000  Uiso   1.00
Cu1148 Cu    0.83333   0.83333   0.45311   0.00000  Uiso   1.00
H1149  H     0.99265   0.82812   0.44573   0.00000  Uiso   1.00
H1150  H     0.72682   0.93058   0.51475   0.00000  Uiso   1.00
H1151  H     0.71047   0.98181   0.53369   0.00000  Uiso   1.00
H1152  H     0.69994   0.95497   0.61236   0.00000  Uiso   1.00
H1153  H     0.99245   0.92671   0.56674   0.00000  Uiso   1.00
H1154  H     0.71794   0.90385   0.59540   0.00000  Uiso   1.00
H1155  H     0.77621   0.78704   0.37068   0.00000  Uiso   1.00
H1156  H     0.89218   0.87752   0.62853   0.00000  Uiso   1.00
H1157  H     0.69374   0.77470   0.58574   0.00000  Uiso   1.00
H1158  H     0.70745   0.79714   0.64285   0.00000  Uiso   1.00
H1159  H     0.73916   0.72624   0.34002   0.00000  Uiso   1.00
H1160  H     0.67385   0.84027   0.55410   0.00000  Uiso   1.00
H1161  H     0.67333   0.72491   0.64490   0.00000  Uiso   1.00
H1162  H     0.72420   0.70636   0.61404   0.00000  Uiso   1.00
H1163  H     0.94078   0.93782   0.39991   0.00000  Uiso   1.00
H1164  H     0.90765   0.92937   0.34296   0.00000  Uiso   1.00
H1165  H     0.97369   0.86884   0.33686   0.00000  Uiso   1.00
H1166  H     0.66891   0.91984   0.34462   0.00000  Uiso   1.00
H1167  H     0.67144   0.88546   0.39405   0.00000  Uiso   1.00
H1168  H     0.87753   0.96129   0.44293   0.00000  Uiso   1.00
H1169  H     0.79052   0.70508   0.55858   0.00000  Uiso   1.00
H1170  H     0.82312   0.71574   0.38441   0.00000  Uiso   1.00
H1171  H     0.86224   0.67088   0.37735   0.00000  Uiso   1.00
H1172  H     0.93349   0.71538   0.35859   0.00000  Uiso   1.00
H1173  H     0.87478   0.72612   0.65295   0.00000  Uiso   1.00
H1174  H     0.89718   0.76106   0.36766   0.00000  Uiso   1.00
N1175  N     0.83335   0.83334   0.61736   0.00000  Uiso   1.00
N1176  N     0.83332   0.83332   0.38264   0.00000  Uiso   1.00
O1177  O     0.83333   0.77322   0.53958   0.00000  Uiso   1.00
O1178  O     0.78123   0.95875   0.56532   0.00000  Uiso   1.00
O1179  O     0.77126   0.77901   0.60844   0.00000  Uiso   1.00
O1180  O     0.90086   0.88296   0.39396   0.00000  Uiso   1.00
O1181  O     0.83334   0.89345   0.46042   0.00000  Uiso   1.00
O1182  O     0.83333   0.77321   0.46039   0.00000  Uiso   1.00
O1183  O     0.83334   0.89346   0.53961   0.00000  Uiso   1.00
O1184  O     0.75828   0.83334   0.53046   0.00000  Uiso   1.00
O1185  O     0.90839   0.83333   0.46954   0.00000  Uiso   1.00
O1186  O     0.75828   0.83333   0.45127   0.00000  Uiso   1.00
O1187  O     0.90839   0.83334   0.54873   0.00000  Uiso   1.00
O1188  O     0.88671   0.70853   0.43600   0.00000  Uiso   1.00
C1189  C     0.16742   0.08742   0.83331   0.00000  Uiso   1.00
C1190  C     0.14251   0.02171   0.86625   0.00000  Uiso   1.00
C1191  C     0.16520   0.29048   0.83329   0.00000  Uiso   1.00
C1192  C     0.16745   0.04280   0.83298   0.00000  Uiso   1.00
C1193  C     0.13411   0.14122   0.68751   0.00000  Uiso   1.00
C1194  C     0.19955   0.19190   0.97908   0.00000  Uiso   1.00
C1195  C     0.13349   0.14111   0.97076   0.00000  Uiso   1.00
C1196  C     0.20005   0.19233   0.69613   0.00000  Uiso   1.00
C1197  C     0.19649   0.03709   0.72213   0.00000  Uiso   1.00
C1198  C     0.22743   0.06149   0.68997   0.00000  Uiso   1.00
C1199  C     0.06266   0.28553   0.87869   0.00000  Uiso   1.00
C1200  C     0.16602   0.24589   0.83335   0.00000  Uiso   1.00
C1201  C     0.03305   0.26650   0.91565   0.00000  Uiso   1.00
C1202  C     0.05374   0.10644   0.95262   0.00000  Uiso   1.00
C1203  C     0.04741   0.06335   0.97257   0.00000  Uiso   1.00
C1204  C     0.26336   0.24657   0.70653   0.00000  Uiso   1.00
C1205  C     0.31393   0.22890   0.69461   0.00000  Uiso   1.00
C1206  C     0.06792   0.16657   0.82127   0.00000  Uiso   1.00
C1207  C     0.26539   0.16732   0.84537   0.00000  Uiso   1.00
C1208  C     0.01263   0.16567   0.81466   0.00000  Uiso   1.00
C1209  C     0.32063   0.16912   0.85187   0.00000  Uiso   1.00
C1210  C     0.19093   0.02113   0.79910   0.00000  Uiso   1.00
C1211  C     0.14009   0.31225   0.86592   0.00000  Uiso   1.00
C1212  C     0.19037   0.31155   0.80028   0.00000  Uiso   1.00
Cu1213 Cu    0.16667   0.16667   0.88022   0.00000  Uiso   1.00
Cu1214 Cu    0.16667   0.16666   0.78645   0.00000  Uiso   1.00
H1215  H     0.32598   0.16145   0.77906   0.00000  Uiso   1.00
H1216  H     0.06015   0.26392   0.84808   0.00000  Uiso   1.00
H1217  H     0.04381   0.31514   0.86702   0.00000  Uiso   1.00
H1218  H     0.03328   0.28830   0.94569   0.00000  Uiso   1.00
H1219  H     0.32579   0.26004   0.90008   0.00000  Uiso   1.00
H1220  H     0.05127   0.23718   0.92874   0.00000  Uiso   1.00
H1221  H     0.10955   0.12037   0.70401   0.00000  Uiso   1.00
H1222  H     0.22551   0.21085   0.96187   0.00000  Uiso   1.00
H1223  H     0.02707   0.10803   0.91907   0.00000  Uiso   1.00
H1224  H     0.04078   0.13047   0.97619   0.00000  Uiso   1.00
H1225  H     0.07249   0.05957   0.67335   0.00000  Uiso   1.00
H1226  H     0.00718   0.17360   0.88743   0.00000  Uiso   1.00
H1227  H     0.00667   0.05824   0.97823   0.00000  Uiso   1.00
H1228  H     0.05753   0.03969   0.94737   0.00000  Uiso   1.00
H1229  H     0.27411   0.27115   0.73324   0.00000  Uiso   1.00
H1230  H     0.24098   0.26270   0.67629   0.00000  Uiso   1.00
H1231  H     0.30702   0.20218   0.67019   0.00000  Uiso   1.00
H1232  H     0.00224   0.25317   0.67796   0.00000  Uiso   1.00
H1233  H     0.00477   0.21879   0.72738   0.00000  Uiso   1.00
H1234  H     0.21087   0.29462   0.77626   0.00000  Uiso   1.00
H1235  H     0.12386   0.03841   0.89192   0.00000  Uiso   1.00
H1236  H     0.15646   0.04907   0.71774   0.00000  Uiso   1.00
H1237  H     0.19557   0.00421   0.71069   0.00000  Uiso   1.00
H1238  H     0.26682   0.04871   0.69192   0.00000  Uiso   1.00
H1239  H     0.20812   0.05945   0.98628   0.00000  Uiso   1.00
H1240  H     0.23051   0.09439   0.70099   0.00000  Uiso   1.00
N1241  N     0.16668   0.16668   0.95069   0.00000  Uiso   1.00
N1242  N     0.16665   0.16666   0.71597   0.00000  Uiso   1.00
O1243  O     0.16666   0.10655   0.87291   0.00000  Uiso   1.00
O1244  O     0.11456   0.29209   0.89866   0.00000  Uiso   1.00
O1245  O     0.10459   0.11235   0.94177   0.00000  Uiso   1.00
O1246  O     0.23419   0.21629   0.72730   0.00000  Uiso   1.00
O1247  O     0.16667   0.22678   0.79375   0.00000  Uiso   1.00
O1248  O     0.16666   0.10654   0.79372   0.00000  Uiso   1.00
O1249  O     0.16667   0.22679   0.87294   0.00000  Uiso   1.00
O1250  O     0.09161   0.16667   0.86379   0.00000  Uiso   1.00
O1251  O     0.24172   0.16666   0.80288   0.00000  Uiso   1.00
O1252  O     0.09161   0.16666   0.78460   0.00000  Uiso   1.00
O1253  O     0.24172   0.16667   0.88207   0.00000  Uiso   1.00
O1254  O     0.22005   0.04186   0.76933   0.00000  Uiso   1.00
C1255  C     0.50076   0.08742   0.83331   0.00000  Uiso   1.00
C1256  C     0.47584   0.02171   0.86625   0.00000  Uiso   1.00
C1257  C     0.49853   0.29048   0.83329   0.00000  Uiso   1.00
C1258  C     0.50078   0.04280   0.83298   0.00000  Uiso   1.00
C1259  C     0.46744   0.14122   0.68751   0.00000  Uiso   1.00
C1260  C     0.53289   0.19190   0.97908   0.00000  Uiso   1.00
C1261  C     0.46682   0.14111   0.97076   0.00000  Uiso   1.00
C1262  C     0.53339   0.19233   0.69613   0.00000  Uiso   1.00
C1263  C     0.52982   0.03709   0.72213   0.00000  Uiso   1.00
C1264  C     0.56076   0.06149   0.68997   0.00000  Uiso   1.00
C1265  C     0.39599   0.28553   0.87869   0.00000  Uiso   1.00
C1266  C     0.49935   0.24589   0.83335   0.00000  Uiso   1.00
C1267  C     0.36639   0.26650   0.91565   0.00000  Uiso   1.00
C1268  C     0.38708   0.10644   0.95262   0.00000  Uiso   1.00
C1269  C     0.38074   0.06335   0.97257   0.00000  Uiso   1.00
C1270  C     0.59670   0.24657   0.70653   0.00000  Uiso   1.00
C1271  C     0.64727   0.22890   0.69461   0.00000  Uiso   1.00
C1272  C     0.40126   0.16657   0.82127   0.00000  Uiso   1.00
C1273  C     0.59872   0.16732   0.84537   0.00000  Uiso   1.00
C1274  C     0.34596   0.16567   0.81466   0.00000  Uiso   1.00
C1275  C     0.65396   0.16912   0.85187   0.00000  Uiso   1.00
C1276  C     0.52426   0.02113   0.79910   0.00000  Uiso   1.00
C1277  C     0.47342   0.31225   0.86592   0.00000  Uiso   1.00
C1278  C     0.52371   0.31155   0.80028   0.00000  Uiso   1.00
Cu1279 Cu    0.50000   0.16667   0.88022   0.00000  Uiso   1.00
Cu1280 Cu    0.50000   0.16666   0.78645   0.00000  Uiso   1.00
H1281  H     0.65931   0.16145   0.77906   0.00000  Uiso   1.00
H1282  H     0.39348   0.26392   0.84808   0.00000  Uiso   1.00
H1283  H     0.37714   0.31514   0.86702   0.00000  Uiso   1.00
H1284  H     0.36661   0.28830   0.94569   0.00000  Uiso   1.00
H1285  H     0.65912   0.26004   0.90008   0.00000  Uiso   1.00
H1286  H     0.38461   0.23718   0.92874   0.00000  Uiso   1.00
H1287  H     0.44288   0.12037   0.70401   0.00000  Uiso   1.00
H1288  H     0.55884   0.21085   0.96187   0.00000  Uiso   1.00
H1289  H     0.36041   0.10803   0.91907   0.00000  Uiso   1.00
H1290  H     0.37412   0.13047   0.97619   0.00000  Uiso   1.00
H1291  H     0.40583   0.05957   0.67335   0.00000  Uiso   1.00
H1292  H     0.34052   0.17360   0.88743   0.00000  Uiso   1.00
H1293  H     0.34000   0.05824   0.97823   0.00000  Uiso   1.00
H1294  H     0.39086   0.03969   0.94737   0.00000  Uiso   1.00
H1295  H     0.60745   0.27115   0.73324   0.00000  Uiso   1.00
H1296  H     0.57431   0.26270   0.67629   0.00000  Uiso   1.00
H1297  H     0.64036   0.20218   0.67019   0.00000  Uiso   1.00
H1298  H     0.33558   0.25317   0.67796   0.00000  Uiso   1.00
H1299  H     0.33810   0.21879   0.72738   0.00000  Uiso   1.00
H1300  H     0.54420   0.29462   0.77626   0.00000  Uiso   1.00
H1301  H     0.45719   0.03841   0.89192   0.00000  Uiso   1.00
H1302  H     0.48979   0.04907   0.71774   0.00000  Uiso   1.00
H1303  H     0.52890   0.00421   0.71069   0.00000  Uiso   1.00
H1304  H     0.60015   0.04871   0.69192   0.00000  Uiso   1.00
H1305  H     0.54145   0.05945   0.98628   0.00000  Uiso   1.00
H1306  H     0.56384   0.09439   0.70099   0.00000  Uiso   1.00
N1307  N     0.50001   0.16668   0.95069   0.00000  Uiso   1.00
N1308  N     0.49999   0.16666   0.71597   0.00000  Uiso   1.00
O1309  O     0.50000   0.10655   0.87291   0.00000  Uiso   1.00
O1310  O     0.44790   0.29209   0.89866   0.00000  Uiso   1.00
O1311  O     0.43793   0.11235   0.94177   0.00000  Uiso   1.00
O1312  O     0.56753   0.21629   0.72730   0.00000  Uiso   1.00
O1313  O     0.50000   0.22678   0.79375   0.00000  Uiso   1.00
O1314  O     0.50000   0.10654   0.79372   0.00000  Uiso   1.00
O1315  O     0.50000   0.22679   0.87294   0.00000  Uiso   1.00
O1316  O     0.42495   0.16667   0.86379   0.00000  Uiso   1.00
O1317  O     0.57505   0.16666   0.80288   0.00000  Uiso   1.00
O1318  O     0.42494   0.16666   0.78460   0.00000  Uiso   1.00
O1319  O     0.57506   0.16667   0.88207   0.00000  Uiso   1.00
O1320  O     0.55338   0.04186   0.76933   0.00000  Uiso   1.00
C1321  C     0.83409   0.08742   0.83331   0.00000  Uiso   1.00
C1322  C     0.80917   0.02171   0.86625   0.00000  Uiso   1.00
C1323  C     0.83187   0.29048   0.83329   0.00000  Uiso   1.00
C1324  C     0.83411   0.04280   0.83298   0.00000  Uiso   1.00
C1325  C     0.80078   0.14122   0.68751   0.00000  Uiso   1.00
C1326  C     0.86622   0.19190   0.97908   0.00000  Uiso   1.00
C1327  C     0.80016   0.14111   0.97076   0.00000  Uiso   1.00
C1328  C     0.86672   0.19233   0.69613   0.00000  Uiso   1.00
C1329  C     0.86316   0.03709   0.72213   0.00000  Uiso   1.00
C1330  C     0.89409   0.06149   0.68997   0.00000  Uiso   1.00
C1331  C     0.72932   0.28553   0.87869   0.00000  Uiso   1.00
C1332  C     0.83269   0.24589   0.83335   0.00000  Uiso   1.00
C1333  C     0.69972   0.26650   0.91565   0.00000  Uiso   1.00
C1334  C     0.72041   0.10644   0.95262   0.00000  Uiso   1.00
C1335  C     0.71407   0.06335   0.97257   0.00000  Uiso   1.00
C1336  C     0.93003   0.24657   0.70653   0.00000  Uiso   1.00
C1337  C     0.98060   0.22890   0.69461   0.00000  Uiso   1.00
C1338  C     0.73459   0.16657   0.82127   0.00000  Uiso   1.00
C1339  C     0.93205   0.16732   0.84537   0.00000  Uiso   1.00
C1340  C     0.67929   0.16567   0.81466   0.00000  Uiso   1.00
C1341  C     0.98730   0.16912   0.85187   0.00000  Uiso   1.00
C1342  C     0.85760   0.02113   0.79910   0.00000  Uiso   1.00
C1343  C     0.80675   0.31225   0.86592   0.00000  Uiso   1.00
C1344  C     0.85704   0.31155   0.80028   0.00000  Uiso   1.00
Cu1345 Cu    0.83333   0.16667   0.88022   0.00000  Uiso   1.00
Cu1346 Cu    0.83333   0.16666   0.78645   0.00000  Uiso   1.00
H1347  H     0.99265   0.16145   0.77906   0.00000  Uiso   1.00
H1348  H     0.72682   0.26392   0.84808   0.00000  Uiso   1.00
H1349  H     0.71047   0.31514   0.86702   0.00000  Uiso   1.00
H1350  H     0.69994   0.28830   0.94569   0.00000  Uiso   1.00
H1351  H     0.99245   0.26004   0.90008   0.00000  Uiso   1.00
H1352  H     0.71794   0.23718   0.92874   0.00000  Uiso   1.00
H1353  H     0.77621   0.12037   0.70401   0.00000  Uiso   1.00
H1354  H     0.89218   0.21085   0.96187   0.00000  Uiso   1.00
H1355  H     0.69374   0.10803   0.91907   0.00000  Uiso   1.00
H1356  H     0.70745   0.13047   0.97619   0.00000  Uiso   1.00
H1357  H     0.73916   0.05957   0.67335   0.00000  Uiso   1.00
H1358  H     0.67385   0.17360   0.88743   0.00000  Uiso   1.00
H1359  H     0.67333   0.05824   0.97823   0.00000  Uiso   1.00
H1360  H     0.72420   0.03969   0.94737   0.00000  Uiso   1.00
H1361  H     0.94078   0.27115   0.73324   0.00000  Uiso   1.00
H1362  H     0.90765   0.26270   0.67629   0.00000  Uiso   1.00
H1363  H     0.97369   0.20218   0.67019   0.00000  Uiso   1.00
H1364  H     0.66891   0.25317   0.67796   0.00000  Uiso   1.00
H1365  H     0.67144   0.21879   0.72738   0.00000  Uiso   1.00
H1366  H     0.87753   0.29462   0.77626   0.00000  Uiso   1.00
H1367  H     0.79052   0.03841   0.89192   0.00000  Uiso   1.00
H1368  H     0.82312   0.04907   0.71774   0.00000  Uiso   1.00
H1369  H     0.86224   0.00421   0.71069   0.00000  Uiso   1.00
H1370  H     0.93349   0.04871   0.69192   0.00000  Uiso   1.00
H1371  H     0.87478   0.05945   0.98628   0.00000  Uiso   1.00
H1372  H     0.89718   0.09439   0.70099   0.00000  Uiso   1.00
N1373  N     0.83335   0.16668   0.95069   0.00000  Uiso   1.00
N1374  N     0.83332   0.16666   0.71597   0.00000  Uiso   1.00
O1375  O     0.83333   0.10655   0.87291   0.00000  Uiso   1.00
O1376  O     0.78123   0.29209   0.89866   0.00000  Uiso   1.00
O1377  O     0.77126   0.11235   0.94177   0.00000  Uiso   1.00
O1378  O     0.90086   0.21629   0.72730   0.00000  Uiso   1.00
O1379  O     0.83334   0.22678   0.79375   0.00000  Uiso   1.00
O1380  O     0.83333   0.10654   0.79372   0.00000  Uiso   1.00
O1381  O     0.83334   0.22679   0.87294   0.00000  Uiso   1.00
O1382  O     0.75828   0.16667   0.86379   0.00000  Uiso   1.00
O1383  O     0.90839   0.16666   0.80288   0.00000  Uiso   1.00
O1384  O     0.75828   0.16666   0.78460   0.00000  Uiso   1.00
O1385  O     0.90839   0.16667   0.88207   0.00000  Uiso   1.00
O1386  O     0.88671   0.04186   0.76933   0.00000  Uiso   1.00
C1387  C     0.16742   0.42076   0.83331   0.00000  Uiso   1.00
C1388  C     0.14251   0.35504   0.86625   0.00000  Uiso   1.00
C1389  C     0.16520   0.62382   0.83329   0.00000  Uiso   1.00
C1390  C     0.16745   0.37613   0.83298   0.00000  Uiso   1.00
C1391  C     0.13411   0.47455   0.68751   0.00000  Uiso   1.00
C1392  C     0.19955   0.52523   0.97908   0.00000  Uiso   1.00
C1393  C     0.13349   0.47445   0.97076   0.00000  Uiso   1.00
C1394  C     0.20005   0.52567   0.69613   0.00000  Uiso   1.00
C1395  C     0.19649   0.37042   0.72213   0.00000  Uiso   1.00
C1396  C     0.22743   0.39482   0.68997   0.00000  Uiso   1.00
C1397  C     0.06266   0.61886   0.87869   0.00000  Uiso   1.00
C1398  C     0.16602   0.57922   0.83335   0.00000  Uiso   1.00
C1399  C     0.03305   0.59984   0.91565   0.00000  Uiso   1.00
C1400  C     0.05374   0.43978   0.95262   0.00000  Uiso   1.00
C1401  C     0.04741   0.39669   0.97257   0.00000  Uiso   1.00
C1402  C     0.26336   0.57990   0.70653   0.00000  Uiso   1.00
C1403  C     0.31393   0.56224   0.69461   0.00000  Uiso   1.00
C1404  C     0.06792   0.49990   0.82127   0.00000  Uiso   1.00
C1405  C     0.26539   0.50065   0.84537   0.00000  Uiso   1.00
C1406  C     0.01263   0.49900   0.81466   0.00000  Uiso   1.00
C1407  C     0.32063   0.50246   0.85187   0.00000  Uiso   1.00
C1408  C     0.19093   0.35446   0.79910   0.00000  Uiso   1.00
C1409  C     0.14009   0.64559   0.86592   0.00000  Uiso   1.00
C1410  C     0.19037   0.64488   0.80028   0.00000  Uiso   1.00
Cu1411 Cu    0.16667   0.50001   0.88022   0.00000  Uiso   1.00
Cu1412 Cu    0.16667   0.49999   0.78645   0.00000  Uiso   1.00
H1413  H     0.32598   0.49478   0.77906   0.00000  Uiso   1.00
H1414  H     0.06015   0.59725   0.84808   0.00000  Uiso   1.00
H1415  H     0.04381   0.64848   0.86702   0.00000  Uiso   1.00
H1416  H     0.03328   0.62164   0.94569   0.00000  Uiso   1.00
H1417  H     0.32579   0.59338   0.90008   0.00000  Uiso   1.00
H1418  H     0.05127   0.57051   0.92874   0.00000  Uiso   1.00
H1419  H     0.10955   0.45370   0.70401   0.00000  Uiso   1.00
H1420  H     0.22551   0.54419   0.96187   0.00000  Uiso   1.00
H1421  H     0.02707   0.44136   0.91907   0.00000  Uiso   1.00
H1422  H     0.04078   0.46381   0.97619   0.00000  Uiso   1.00
H1423  H     0.07249   0.39291   0.67335   0.00000  Uiso   1.00
H1424  H     0.00718   0.50694   0.88743   0.00000  Uiso   1.00
H1425  H     0.00667   0.39158   0.97823   0.00000  Uiso   1.00
H1426  H     0.05753   0.37302   0.94737   0.00000  Uiso   1.00
H1427  H     0.27411   0.60448   0.73324   0.00000  Uiso   1.00
H1428  H     0.24098   0.59604   0.67629   0.00000  Uiso   1.00
H1429  H     0.30702   0.53551   0.67019   0.00000  Uiso   1.00
H1430  H     0.00224   0.58651   0.67796   0.00000  Uiso   1.00
H1431  H     0.00477   0.55212   0.72738   0.00000  Uiso   1.00
H1432  H     0.21087   0.62796   0.77626   0.00000  Uiso   1.00
H1433  H     0.12386   0.37175   0.89192   0.00000  Uiso   1.00
H1434  H     0.15646   0.38241   0.71774   0.00000  Uiso   1.00
H1435  H     0.19557   0.33755   0.71069   0.00000  Uiso   1.00
H1436  H     0.26682   0.38205   0.69192   0.00000  Uiso   1.00
H1437  H     0.20812   0.39278   0.98628   0.00000  Uiso   1.00
H1438  H     0.23051   0.42773   0.70099   0.00000  Uiso   1.00
N1439  N     0.16668   0.50001   0.95069   0.00000  Uiso   1.00
N1440  N     0.16665   0.49999   0.71597   0.00000  Uiso   1.00
O1441  O     0.16666   0.43989   0.87291   0.00000  Uiso   1.00
O1442  O     0.11456   0.62542   0.89866   0.00000  Uiso   1.00
O1443  O     0.10459   0.44568   0.94177   0.00000  Uiso   1.00
O1444  O     0.23419   0.54963   0.72730   0.00000  Uiso   1.00
O1445  O     0.16667   0.56011   0.79375   0.00000  Uiso   1.00
O1446  O     0.16666   0.43988   0.79372   0.00000  Uiso   1.00
O1447  O     0.16667   0.56012   0.87294   0.00000  Uiso   1.00
O1448  O     0.09161   0.50000   0.86379   0.00000  Uiso   1.00
O1449  O     0.24172   0.50000   0.80288   0.00000  Uiso   1.00
O1450  O     0.09161   0.49999   0.78460   0.00000  Uiso   1.00
O1451  O     0.24172   0.50001   0.88207   0.00000  Uiso   1.00
O1452  O     0.22005   0.37519   0.76933   0.00000  Uiso   1.00
C1453  C     0.50076   0.42076   0.83331   0.00000  Uiso   1.00
C1454  C     0.47584   0.35504   0.86625   0.00000  Uiso   1.00
C1455  C     0.49853   0.62382   0.83329   0.00000  Uiso   1.00
C1456  C     0.50078   0.37613   0.83298   0.00000  Uiso   1.00
C1457  C     0.46744   0.47455   0.68751   0.00000  Uiso   1.00
C1458  C     0.53289   0.52523   0.97908   0.00000  Uiso   1.00
C1459  C     0.46682   0.47445   0.97076   0.00000  Uiso   1.00
C1460  C     0.53339   0.52567   0.69613   0.00000  Uiso   1.00
C1461  C     0.52982   0.37042   0.72213   0.00000  Uiso   1.00
C1462  C     0.56076   0.39482   0.68997   0.00000  Uiso   1.00
C1463  C     0.39599   0.61886   0.87869   0.00000  Uiso   1.00
C1464  C     0.49935   0.57922   0.83335   0.00000  Uiso   1.00
C1465  C     0.36639   0.59984   0.91565   0.00000  Uiso   1.00
C1466  C     0.38708   0.43978   0.95262   0.00000  Uiso   1.00
C1467  C     0.38074   0.39669   0.97257   0.00000  Uiso   1.00
C1468  C     0.59670   0.57990   0.70653   0.00000  Uiso   1.00
C1469  C     0.64727   0.56224   0.69461   0.00000  Uiso   1.00
C1470  C     0.40126   0.49990   0.82127   0.00000  Uiso   1.00
C1471  C     0.59872   0.50065   0.84537   0.00000  Uiso   1.00
C1472  C     0.34596   0.49900   0.81466   0.00000  Uiso   1.00
C1473  C     0.65396   0.50246   0.85187   0.00000  Uiso   1.00
C1474  C     0.52426   0.35446   0.79910   0.00000  Uiso   1.00
C1475  C     0.47342   0.64559   0.86592   0.00000  Uiso   1.00
C1476  C     0.52371   0.64488   0.80028   0.00000  Uiso   1.00
Cu1477 Cu    0.50000   0.50001   0.88022   0.00000  Uiso   1.00
Cu1478 Cu    0.50000   0.49999   0.78645   0.00000  Uiso   1.00
H1479  H     0.65931   0.49478   0.77906   0.00000  Uiso   1.00
H1480  H     0.39348   0.59725   0.84808   0.00000  Uiso   1.00
H1481  H     0.37714   0.64848   0.86702   0.00000  Uiso   1.00
H1482  H     0.36661   0.62164   0.94569   0.00000  Uiso   1.00
H1483  H     0.65912   0.59338   0.90008   0.00000  Uiso   1.00
H1484  H     0.38461   0.57051   0.92874   0.00000  Uiso   1.00
H1485  H     0.44288   0.45370   0.70401   0.00000  Uiso   1.00
H1486  H     0.55884   0.54419   0.96187   0.00000  Uiso   1.00
H1487  H     0.36041   0.44136   0.91907   0.00000  Uiso   1.00
H1488  H     0.37412   0.46381   0.97619   0.00000  Uiso   1.00
H1489  H     0.40583   0.39291   0.67335   0.00000  Uiso   1.00
H1490  H     0.34052   0.50694   0.88743   0.00000  Uiso   1.00
H1491  H     0.34000   0.39158   0.97823   0.00000  Uiso   1.00
H1492  H     0.39086   0.37302   0.94737   0.00000  Uiso   1.00
H1493  H     0.60745   0.60448   0.73324   0.00000  Uiso   1.00
H1494  H     0.57431   0.59604   0.67629   0.00000  Uiso   1.00
H1495  H     0.64036   0.53551   0.67019   0.00000  Uiso   1.00
H1496  H     0.33558   0.58651   0.67796   0.00000  Uiso   1.00
H1497  H     0.33810   0.55212   0.72738   0.00000  Uiso   1.00
H1498  H     0.54420   0.62796   0.77626   0.00000  Uiso   1.00
H1499  H     0.45719   0.37175   0.89192   0.00000  Uiso   1.00
H1500  H     0.48979   0.38241   0.71774   0.00000  Uiso   1.00
H1501  H     0.52890   0.33755   0.71069   0.00000  Uiso   1.00
H1502  H     0.60015   0.38205   0.69192   0.00000  Uiso   1.00
H1503  H     0.54145   0.39278   0.98628   0.00000  Uiso   1.00
H1504  H     0.56384   0.42773   0.70099   0.00000  Uiso   1.00
N1505  N     0.50001   0.50001   0.95069   0.00000  Uiso   1.00
N1506  N     0.49999   0.49999   0.71597   0.00000  Uiso   1.00
O1507  O     0.50000   0.43989   0.87291   0.00000  Uiso   1.00
O1508  O     0.44790   0.62542   0.89866   0.00000  Uiso   1.00
O1509  O     0.43793   0.44568   0.94177   0.00000  Uiso   1.00
O1510  O     0.56753   0.54963   0.72730   0.00000  Uiso   1.00
O1511  O     0.50000   0.56011   0.79375   0.00000  Uiso   1.00
O1512  O     0.50000   0.43988   0.79372   0.00000  Uiso   1.00
O1513  O     0.50000   0.56012   0.87294   0.00000  Uiso   1.00
O1514  O     0.42495   0.50000   0.86379   0.00000  Uiso   1.00
O1515  O     0.57505   0.50000   0.80288   0.00000  Uiso   1.00
O1516  O     0.42494   0.49999   0.78460   0.00000  Uiso   1.00
O1517  O     0.57506   0.50001   0.88207   0.00000  Uiso   1.00
O1518  O     0.55338   0.37519   0.76933   0.00000  Uiso   1.00
C1519  C     0.83409   0.42076   0.83331   0.00000  Uiso   1.00
C1520  C     0.80917   0.35504   0.86625   0.00000  Uiso   1.00
C1521  C     0.83187   0.62382   0.83329   0.00000  Uiso   1.00
C1522  C     0.83411   0.37613   0.83298   0.00000  Uiso   1.00
C1523  C     0.80078   0.47455   0.68751   0.00000  Uiso   1.00
C1524  C     0.86622   0.52523   0.97908   0.00000  Uiso   1.00
C1525  C     0.80016   0.47445   0.97076   0.00000  Uiso   1.00
C1526  C     0.86672   0.52567   0.69613   0.00000  Uiso   1.00
C1527  C     0.86316   0.37042   0.72213   0.00000  Uiso   1.00
C1528  C     0.89409   0.39482   0.68997   0.00000  Uiso   1.00
C1529  C     0.72932   0.61886   0.87869   0.00000  Uiso   1.00
C1530  C     0.83269   0.57922   0.83335   0.00000  Uiso   1.00
C1531  C     0.69972   0.59984   0.91565   0.00000  Uiso   1.00
C1532  C     0.72041   0.43978   0.95262   0.00000  Uiso   1.00
C1533  C     0.71407   0.39669   0.97257   0.00000  Uiso   1.00
C1534  C     0.93003   0.57990   0.70653   0.00000  Uiso   1.00
C1535  C     0.98060   0.56224   0.69461   0.00000  Uiso   1.00
C1536  C     0.73459   0.49990   0.82127   0.00000  Uiso   1.00
C1537  C     0.93205   0.50065   0.84537   0.00000  Uiso   1.00
C1538  C     0.67929   0.49900   0.81466   0.00000  Uiso   1.00
C1539  C     0.98730   0.50246   0.85187   0.00000  Uiso   1.00
C1540  C     0.85760   0.35446   0.79910   0.00000  Uiso   1.00
C1541  C     0.80675   0.64559   0.86592   0.00000  Uiso   1.00
C1542  C     0.85704   0.64488   0.80028   0.00000  Uiso   1.00
Cu1543 Cu    0.83333   0.50001   0.88022   0.00000  Uiso   1.00
Cu1544 Cu    0.83333   0.49999   0.78645   0.00000  Uiso   1.00
H1545  H     0.99265   0.49478   0.77906   0.00000  Uiso   1.00
H1546  H     0.72682   0.59725   0.84808   0.00000  Uiso   1.00
H1547  H     0.71047   0.64848   0.86702   0.00000  Uiso   1.00
H1548  H     0.69994   0.62164   0.94569   0.00000  Uiso   1.00
H1549  H     0.99245   0.59338   0.90008   0.00000  Uiso   1.00
H1550  H     0.71794   0.57051   0.92874   0.00000  Uiso   1.00
H1551  H     0.77621   0.45370   0.70401   0.00000  Uiso   1.00
H1552  H     0.89218   0.54419   0.96187   0.00000  Uiso   1.00
H1553  H     0.69374   0.44136   0.91907   0.00000  Uiso   1.00
H1554  H     0.70745   0.46381   0.97619   0.00000  Uiso   1.00
H1555  H     0.73916   0.39291   0.67335   0.00000  Uiso   1.00
H1556  H     0.67385   0.50694   0.88743   0.00000  Uiso   1.00
H1557  H     0.67333   0.39158   0.97823   0.00000  Uiso   1.00
H1558  H     0.72420   0.37302   0.94737   0.00000  Uiso   1.00
H1559  H     0.94078   0.60448   0.73324   0.00000  Uiso   1.00
H1560  H     0.90765   0.59604   0.67629   0.00000  Uiso   1.00
H1561  H     0.97369   0.53551   0.67019   0.00000  Uiso   1.00
H1562  H     0.66891   0.58651   0.67796   0.00000  Uiso   1.00
H1563  H     0.67144   0.55212   0.72738   0.00000  Uiso   1.00
H1564  H     0.87753   0.62796   0.77626   0.00000  Uiso   1.00
H1565  H     0.79052   0.37175   0.89192   0.00000  Uiso   1.00
H1566  H     0.82312   0.38241   0.71774   0.00000  Uiso   1.00
H1567  H     0.86224   0.33755   0.71069   0.00000  Uiso   1.00
H1568  H     0.93349   0.38205   0.69192   0.00000  Uiso   1.00
H1569  H     0.87478   0.39278   0.98628   0.00000  Uiso   1.00
H1570  H     0.89718   0.42773   0.70099   0.00000  Uiso   1.00
N1571  N     0.83335   0.50001   0.95069   0.00000  Uiso   1.00
N1572  N     0.83332   0.49999   0.71597   0.00000  Uiso   1.00
O1573  O     0.83333   0.43989   0.87291   0.00000  Uiso   1.00
O1574  O     0.78123   0.62542   0.89866   0.00000  Uiso   1.00
O1575  O     0.77126   0.44568   0.94177   0.00000  Uiso   1.00
O1576  O     0.90086   0.54963   0.72730   0.00000  Uiso   1.00
O1577  O     0.83334   0.56011   0.79375   0.00000  Uiso   1.00
O1578  O     0.83333   0.43988   0.79372   0.00000  Uiso   1.00
O1579  O     0.83334   0.56012   0.87294   0.00000  Uiso   1.00
O1580  O     0.75828   0.50000   0.86379   0.00000  Uiso   1.00
O1581  O     0.90839   0.50000   0.80288   0.00000  Uiso   1.00
O1582  O     0.75828   0.49999   0.78460   0.00000  Uiso   1.00
O1583  O     0.90839   0.50001   0.88207   0.00000  Uiso   1.00
O1584  O     0.88671   0.37519   0.76933   0.00000  Uiso   1.00
C1585  C     0.16742   0.75409   0.83331   0.00000  Uiso   1.00
C1586  C     0.14251   0.68838   0.86625   0.00000  Uiso   1.00
C1587  C     0.16520   0.95715   0.83329   0.00000  Uiso   1.00
C1588  C     0.16745   0.70946   0.83298   0.00000  Uiso   1.00
C1589  C     0.13411   0.80789   0.68751   0.00000  Uiso   1.00
C1590  C     0.19955   0.85856   0.97908   0.00000  Uiso   1.00
C1591  C     0.13349   0.80778   0.97076   0.00000  Uiso   1.00
C1592  C     0.20005   0.85900   0.69613   0.00000  Uiso   1.00
C1593  C     0.19649   0.70376   0.72213   0.00000  Uiso   1.00
C1594  C     0.22743   0.72815   0.68997   0.00000  Uiso   1.00
C1595  C     0.06266   0.95219   0.87869   0.00000  Uiso   1.00
C1596  C     0.16602   0.91256   0.83335   0.00000  Uiso   1.00
C1597  C     0.03305   0.93317   0.91565   0.00000  Uiso   1.00
C1598  C     0.05374   0.77311   0.95262   0.00000  Uiso   1.00
C1599  C     0.04741   0.73002   0.97257   0.00000  Uiso   1.00
C1600  C     0.26336   0.91324   0.70653   0.00000  Uiso   1.00
C1601  C     0.31393   0.89557   0.69461   0.00000  Uiso   1.00
C1602  C     0.06792   0.83324   0.82127   0.00000  Uiso   1.00
C1603  C     0.26539   0.83399   0.84537   0.00000  Uiso   1.00
C1604  C     0.01263   0.83233   0.81466   0.00000  Uiso   1.00
C1605  C     0.32063   0.83579   0.85187   0.00000  Uiso   1.00
C1606  C     0.19093   0.68779   0.79910   0.00000  Uiso   1.00
C1607  C     0.14009   0.97892   0.86592   0.00000  Uiso   1.00
C1608  C     0.19037   0.97821   0.80028   0.00000  Uiso   1.00
Cu1609 Cu    0.16667   0.83334   0.88022   0.00000  Uiso   1.00
Cu1610 Cu    0.16667   0.83333   0.78645   0.00000  Uiso   1.00
H1611  H     0.32598   0.82812   0.77906   0.00000  Uiso   1.00
H1612  H     0.06015   0.93058   0.84808   0.00000  Uiso   1.00
H1613  H     0.04381   0.98181   0.86702   0.00000  Uiso   1.00
H1614  H     0.03328   0.95497   0.94569   0.00000  Uiso   1.00
H1615  H     0.32579   0.92671   0.90008   0.00000  Uiso   1.00
H1616  H     0.05127   0.90385   0.92874   0.00000  Uiso   1.00
H1617  H     0.10955   0.78704   0.70401   0.00000  Uiso   1.00
H1618  H     0.22551   0.87752   0.96187   0.00000  Uiso   1.00
H1619  H     0.02707   0.77470   0.91907   0.00000  Uiso   1.00
H1620  H     0.04078   0.79714   0.97619   0.00000  Uiso   1.00
H1621  H     0.07249   0.72624   0.67335   0.00000  Uiso   1.00
H1622  H     0.00718   0.84027   0.88743   0.00000  Uiso   1.00
H1623  H     0.00667   0.72491   0.97823   0.00000  Uiso   1.00
H1624  H     0.05753   0.70636   0.94737   0.00000  Uiso   1.00
H1625  H     0.27411   0.93782   0.73324   0.00000  Uiso   1.00
H1626  H     0.24098   0.92937   0.67629   0.00000  Uiso   1.00
H1627  H     0.30702   0.86884   0.67019   0.00000  Uiso   1.00
H1628  H     0.00224   0.91984   0.67796   0.00000  Uiso   1.00
H1629  H     0.00477   0.88546   0.72738   0.00000  Uiso   1.00
H1630  H     0.21087   0.96129   0.77626   0.00000  Uiso   1.00
H1631  H     0.12386   0.70508   0.89192   0.00000  Uiso   1.00
H1632  H     0.15646   0.71574   0.71774   0.00000  Uiso   1.00
H1633  H     0.19557   0.67088   0.71069   0.00000  Uiso   1.00
H1634  H     0.26682   0.71538   0.69192   0.00000  Uiso   1.00
H1635  H     0.20812   0.72612   0.98628   0.00000  Uiso   1.00
H1636  H     0.23051   0.76106   0.70099   0.00000  Uiso   1.00
N1637  N     0.16668   0.83334   0.95069   0.00000  Uiso   1.00
N1638  N     0.16665   0.83332   0.71597   0.00000  Uiso   1.00
O1639  O     0.16666   0.77322   0.87291   0.00000  Uiso   1.00
O1640  O     0.11456   0.95875   0.89866   0.00000  Uiso   1.00
O1641  O     0.10459   0.77901   0.94177   0.00000  Uiso   1.00
O1642  O     0.23419   0.88296   0.72730   0.00000  Uiso   1.00
O1643  O     0.16667   0.89345   0.79375   0.00000  Uiso   1.00
O1644  O     0.16666   0.77321   0.79372   0.00000  Uiso   1.00
O1645  O     0.16667   0.89346   0.87294   0.00000  Uiso   1.00
O1646  O     0.09161   0.83334   0.86379   0.00000  Uiso   1.00
O1647  O     0.24172   0.83333   0.80288   0.00000  Uiso   1.00
O1648  O     0.09161   0.83333   0.78460   0.00000  Uiso   1.00
O1649  O     0.24172   0.83334   0.88207   0.00000  Uiso   1.00
O1650  O     0.22005   0.70853   0.76933   0.00000  Uiso   1.00
C1651  C     0.50076   0.75409   0.83331   0.00000  Uiso   1.00
C1652  C     0.47584   0.68838   0.86625   0.00000  Uiso   1.00
C1653  C     0.49853   0.95715   0.83329   0.00000  Uiso   1.00
C1654  C     0.50078   0.70946   0.83298   0.00000  Uiso   1.00
C1655  C     0.46744   0.80789   0.68751   0.00000  Uiso   1.00
C1656  C     0.53289   0.85856   0.97908   0.00000  Uiso   1.00
C1657  C     0.46682   0.80778   0.97076   0.00000  Uiso   1.00
C1658  C     0.53339   0.85900   0.69613   0.00000  Uiso   1.00
C1659  C     0.52982   0.70376   0.72213   0.00000  Uiso   1.00
C1660  C     0.56076   0.72815   0.68997   0.00000  Uiso   1.00
C1661  C     0.39599   0.95219   0.87869   0.00000  Uiso   1.00
C1662  C     0.49935   0.91256   0.83335   0.00000  Uiso   1.00
C1663  C     0.36639   0.93317   0.91565   0.00000  Uiso   1.00
C1664  C     0.38708   0.77311   0.95262   0.00000  Uiso   1.00
C1665  C     0.38074   0.73002   0.97257   0.00000  Uiso   1.00
C1666  C     0.59670   0.91324   0.70653   0.00000  Uiso   1.00
C1667  C     0.64727   0.89557   0.69461   0.00000  Uiso   1.00
C1668  C     0.40126   0.83324   0.82127   0.00000  Uiso   1.00
C1669  C     0.59872   0.83399   0.84537   0.00000  Uiso   1.00
C1670  C     0.34596   0.83233   0.81466   0.00000  Uiso   1.00
C1671  C     0.65396   0.83579   0.85187   0.00000  Uiso   1.00
C1672  C     0.52426   0.68779   0.79910   0.00000  Uiso   1.00
C1673  C     0.47342   0.97892   0.86592   0.00000  Uiso   1.00
C1674  C     0.52371   0.97821   0.80028   0.00000  Uiso   1.00
Cu1675 Cu    0.50000   0.83334   0.88022   0.00000  Uiso   1.00
Cu1676 Cu    0.50000   0.83333   0.78645   0.00000  Uiso   1.00
H1677  H     0.65931   0.82812   0.77906   0.00000  Uiso   1.00
H1678  H     0.39348   0.93058   0.84808   0.00000  Uiso   1.00
H1679  H     0.37714   0.98181   0.86702   0.00000  Uiso   1.00
H1680  H     0.36661   0.95497   0.94569   0.00000  Uiso   1.00
H1681  H     0.65912   0.92671   0.90008   0.00000  Uiso   1.00
H1682  H     0.38461   0.90385   0.92874   0.00000  Uiso   1.00
H1683  H     0.44288   0.78704   0.70401   0.00000  Uiso   1.00
H1684  H     0.55884   0.87752   0.96187   0.00000  Uiso   1.00
H1685  H     0.36041   0.77470   0.91907   0.00000  Uiso   1.00
H1686  H     0.37412   0.79714   0.97619   0.00000  Uiso   1.00
H1687  H     0.40583   0.72624   0.67335   0.00000  Uiso   1.00
H1688  H     0.34052   0.84027   0.88743   0.00000  Uiso   1.00
H1689  H     0.34000   0.72491   0.97823   0.00000  Uiso   1.00
H1690  H     0.39086   0.70636   0.94737   0.00000  Uiso   1.00
H1691  H     0.60745   0.93782   0.73324   0.00000  Uiso   1.00
H1692  H     0.57431   0.92937   0.67629   0.00000  Uiso   1.00
H1693  H     0.64036   0.86884   0.67019   0.00000  Uiso   1.00
H1694  H     0.33558   0.91984   0.67796   0.00000  Uiso   1.00
H1695  H     0.33810   0.88546   0.72738   0.00000  Uiso   1.00
H1696  H     0.54420   0.96129   0.77626   0.00000  Uiso   1.00
H1697  H     0.45719   0.70508   0.89192   0.00000  Uiso   1.00
H1698  H     0.48979   0.71574   0.71774   0.00000  Uiso   1.00
H1699  H     0.52890   0.67088   0.71069   0.00000  Uiso   1.00
H1700  H     0.60015   0.71538   0.69192   0.00000  Uiso   1.00
H1701  H     0.54145   0.72612   0.98628   0.00000  Uiso   1.00
H1702  H     0.56384   0.76106   0.70099   0.00000  Uiso   1.00
N1703  N     0.50001   0.83334   0.95069   0.00000  Uiso   1.00
N1704  N     0.49999   0.83332   0.71597   0.00000  Uiso   1.00
O1705  O     0.50000   0.77322   0.87291   0.00000  Uiso   1.00
O1706  O     0.44790   0.95875   0.89866   0.00000  Uiso   1.00
O1707  O     0.43793   0.77901   0.94177   0.00000  Uiso   1.00
O1708  O     0.56753   0.88296   0.72730   0.00000  Uiso   1.00
O1709  O     0.50000   0.89345   0.79375   0.00000  Uiso   1.00
O1710  O     0.50000   0.77321   0.79372   0.00000  Uiso   1.00
O1711  O     0.50000   0.89346   0.87294   0.00000  Uiso   1.00
O1712  O     0.42495   0.83334   0.86379   0.00000  Uiso   1.00
O1713  O     0.57505   0.83333   0.80288   0.00000  Uiso   1.00
O1714  O     0.42494   0.83333   0.78460   0.00000  Uiso   1.00
O1715  O     0.57506   0.83334   0.88207   0.00000  Uiso   1.00
O1716  O     0.55338   0.70853   0.76933   0.00000  Uiso   1.00
C1717  C     0.83409   0.75409   0.83331   0.00000  Uiso   1.00
C1718  C     0.80917   0.68838   0.86625   0.00000  Uiso   1.00
C1719  C     0.83187   0.95715   0.83329   0.00000  Uiso   1.00
C1720  C     0.83411   0.70946   0.83298   0.00000  Uiso   1.00
C1721  C     0.80078   0.80789   0.68751   0.00000  Uiso   1.00
C1722  C     0.86622   0.85856   0.97908   0.00000  Uiso   1.00
C1723  C     0.80016   0.80778   0.97076   0.00000  Uiso   1.00
C1724  C     0.86672   0.85900   0.69613   0.00000  Uiso   1.00
C1725  C     0.86316   0.70376   0.72213   0.00000  Uiso   1.00
C1726  C     0.89409   0.72815   0.68997   0.00000  Uiso   1.00
C1727  C     0.72932   0.95219   0.87869   0.00000  Uiso   1.00
C1728  C     0.83269   0.91256   0.83335   0.00000  Uiso   1.00
C1729  C     0.69972   0.93317   0.91565   0.00000  Uiso   1.00
C1730  C     0.72041   0.77311   0.95262   0.00000  Uiso   1.00
C1731  C     0.71407   0.73002   0.97257   0.00000  Uiso   1.00
C1732  C     0.93003   0.91324   0.70653   0.00000  Uiso   1.00
C1733  C     0.98060   0.89557   0.69461   0.00000  Uiso   1.00
C1734  C     0.73459   0.83324   0.82127   0.00000  Uiso   1.00
C1735  C     0.93205   0.83399   0.84537   0.00000  Uiso   1.00
C1736  C     0.67929   0.83233   0.81466   0.00000  Uiso   1.00
C1737  C     0.98730   0.83579   0.85187   0.00000  Uiso   1.00
C1738  C     0.85760   0.68779   0.79910   0.00000  Uiso   1.00
C1739  C     0.80675   0.97892   0.86592   0.00000  Uiso   1.00
C1740  C     0.85704   0.97821   0.80028   0.00000  Uiso   1.00
Cu1741 Cu    0.83333   0.83334   0.88022   0.00000  Uiso   1.00
Cu1742 Cu    0.83333   0.83333   0.78645   0.00000  Uiso   1.00
H1743  H     0.99265   0.82812   0.77906   0.00000  Uiso   1.00
H1744  H     0.72682   0.93058   0.84808   0.00000  Uiso   1.00
H1745  H     0.71047   0.98181   0.86702   0.00000  Uiso   1.00
H1746  H     0.69994   0.95497   0.94569   0.00000  Uiso   1.00
H1747  H     0.99245   0.92671   0.90008   0.00000  Uiso   1.00
H1748  H     0.71794   0.90385   0.92874   0.00000  Uiso   1.00
H1749  H     0.77621   0.78704   0.70401   0.00000  Uiso   1.00
H1750  H     0.89218   0.87752   0.96187   0.00000  Uiso   1.00
H1751  H     0.69374   0.77470   0.91907   0.00000  Uiso   1.00
H1752  H     0.70745   0.79714   0.97619   0.00000  Uiso   1.00
H1753  H     0.73916   0.72624   0.67335   0.00000  Uiso   1.00
H1754  H     0.67385   0.84027   0.88743   0.00000  Uiso   1.00
H1755  H     0.67333   0.72491   0.97823   0.00000  Uiso   1.00
H1756  H     0.72420   0.70636   0.94737   0.00000  Uiso   1.00
H1757  H     0.94078   0.93782   0.73324   0.00000  Uiso   1.00
H1758  H     0.90765   0.92937   0.67629   0.00000  Uiso   1.00
H1759  H     0.97369   0.86884   0.67019   0.00000  Uiso   1.00
H1760  H     0.66891   0.91984   0.67796   0.00000  Uiso   1.00
H1761  H     0.67144   0.88546   0.72738   0.00000  Uiso   1.00
H1762  H     0.87753   0.96129   0.77626   0.00000  Uiso   1.00
H1763  H     0.79052   0.70508   0.89192   0.00000  Uiso   1.00
H1764  H     0.82312   0.71574   0.71774   0.00000  Uiso   1.00
H1765  H     0.86224   0.67088   0.71069   0.00000  Uiso   1.00
H1766  H     0.93349   0.71538   0.69192   0.00000  Uiso   1.00
H1767  H     0.87478   0.72612   0.98628   0.00000  Uiso   1.00
H1768  H     0.89718   0.76106   0.70099   0.00000  Uiso   1.00
N1769  N     0.83335   0.83334   0.95069   0.00000  Uiso   1.00
N1770  N     0.83332   0.83332   0.71597   0.00000  Uiso   1.00
O1771  O     0.83333   0.77322   0.87291   0.00000  Uiso   1.00
O1772  O     0.78123   0.95875   0.89866   0.00000  Uiso   1.00
O1773  O     0.77126   0.77901   0.94177   0.00000  Uiso   1.00
O1774  O     0.90086   0.88296   0.72730   0.00000  Uiso   1.00
O1775  O     0.83334   0.89345   0.79375   0.00000  Uiso   1.00
O1776  O     0.83333   0.77321   0.79372   0.00000  Uiso   1.00
O1777  O     0.83334   0.89346   0.87294   0.00000  Uiso   1.00
O1778  O     0.75828   0.83334   0.86379   0.00000  Uiso   1.00
O1779  O     0.90839   0.83333   0.80288   0.00000  Uiso   1.00
O1780  O     0.75828   0.83333   0.78460   0.00000  Uiso   1.00
O1781  O     0.90839   0.83334   0.88207   0.00000  Uiso   1.00
O1782  O     0.88671   0.70853   0.76933   0.00000  Uiso   1.00
loop_
_geom_bond_atom_site_label_1
_geom_bond_atom_site_label_2
_geom_bond_distance
_geom_bond_site_symmetry_2
_ccdc_geom_bond_type
C1     C4      1.446   .     S
C1     O55     1.293   .     A
C1     O60     1.290   .     A
C2     C4      1.399   .     A
C2     H47     1.083   .     S
C2     C419    1.387   1_545 S
C3     C23     1.406   .     A
C3     C24     1.396   .     A
C3     C12     1.445   .     S
C4     C22     1.407   .     A
C5     H33     1.079   .     S
C5     N54     1.363   .     A
C5     C1195   1.430   1_554 S
C6     H34     1.078   .     S
C6     N53     1.362   .     A
C6     C602    1.439   .     S
C7     N53     1.374   .     A
C7     O57     1.391   .     S
C7     C599    1.430   .     S
C8     N54     1.376   .     A
C8     O58     1.399   .     S
C8     C1194   1.439   1_554 S
C9     H49     1.113   .     S
C9     C10     1.521   .     S
C9     H48     1.113   .     S
C9     O66     1.413   .     S
C10    H52     1.110   .     S
C10    H50     1.110   .     S
C10    H1239   1.111   1_554 S
C11    O56     1.412   .     S
C11    C13     1.520   .     S
C11    H28     1.114   .     S
C11    H29     1.116   .     S
C12    O61     1.290   .     A
C12    O59     1.292   .     A
C13    H30     1.111   .     S
C13    H32     1.111   .     S
C13    H163    1.111   1_455 S
C14    H36     1.115   .     S
C14    H35     1.108   .     S
C14    O57     1.417   .     S
C14    C15     1.525   .     S
C15    H39     1.110   .     S
C15    H40     1.110   .     S
C15    H631    1.107   .     S
C16    O58     1.415   .     S
C16    H42     1.112   .     S
C16    H41     1.109   .     S
C16    C17     1.528   .     S
C17    H43     1.109   .     S
C17    H110    1.108   .     S
C17    H111    1.109   .     S
C18    C20     1.433   .     S
C18    O64     1.289   .     A
C18    O62     1.287   .     A
C19    C21     1.432   .     S
C19    O65     1.289   .     A
C19    O63     1.287   .     A
C20    C153    1.333   1_455 S
C20    H159    1.087   1_455 S
C21    C86     1.333   .     S
C21    H104    1.086   .     S
C22    O66     1.386   .     S
C22    C420    1.391   1_545 S
C23    O56     1.382   .     S
C23    C200    1.387   .     S
C24    H46     1.080   .     S
C24    C220    1.391   .     S
Cu25   O61     1.960   .     S
Cu25   N53     2.016   .     S
Cu25   O62     1.955   .     S
Cu25   O65     1.956   .     S
Cu25   Cu26    2.682   .     S
Cu25   O55     1.959   .     S
Cu26   O63     1.955   .     S
Cu26   N54     2.016   .     S
Cu26   O59     1.959   .     S
Cu26   O64     1.956   .     S
Cu26   O60     1.960   .     S
H27    C86     1.087   .     S
H31    C79     1.111   .     S
H37    C1203   1.107   1_554 S
H38    C153    1.086   1_455 S
H44    C149    1.108   1_455 S
H45    C149    1.109   1_455 S
H51    C604    1.111   .     S
C67    C70     1.446   .     S
C67    O121    1.293   .     A
C67    O126    1.290   .     A
C68    C70     1.399   .     A
C68    H113    1.083   .     S
C68    C485    1.387   1_545 S
C69    C89     1.406   .     A
C69    C90     1.396   .     A
C69    C78     1.445   .     S
C70    C88     1.407   .     A
C71    H99     1.079   .     S
C71    N120    1.363   .     A
C71    C1261   1.430   1_554 S
C72    H100    1.078   .     S
C72    N119    1.362   .     A
C72    C668    1.439   .     S
C73    N119    1.374   .     A
C73    O123    1.391   .     S
C73    C665    1.430   .     S
C74    N120    1.376   .     A
C74    O124    1.399   .     S
C74    C1260   1.439   1_554 S
C75    H115    1.113   .     S
C75    C76     1.521   .     S
C75    H114    1.113   .     S
C75    O132    1.413   .     S
C76    H118    1.110   .     S
C76    H116    1.110   .     S
C76    H1305   1.111   1_554 S
C77    O122    1.412   .     S
C77    C79     1.520   .     S
C77    H94     1.114   .     S
C77    H95     1.116   .     S
C78    O127    1.290   .     A
C78    O125    1.292   .     A
C79    H96     1.111   .     S
C79    H98     1.111   .     S
C80    H102    1.115   .     S
C80    H101    1.108   .     S
C80    O123    1.417   .     S
C80    C81     1.525   .     S
C81    H105    1.110   .     S
C81    H106    1.110   .     S
C81    H697    1.107   .     S
C82    O124    1.415   .     S
C82    H108    1.112   .     S
C82    H107    1.109   .     S
C82    C83     1.528   .     S
C83    H109    1.109   .     S
C83    H176    1.108   .     S
C83    H177    1.109   .     S
C84    C86     1.433   .     S
C84    O130    1.289   .     A
C84    O128    1.287   .     A
C85    C87     1.432   .     S
C85    O131    1.289   .     A
C85    O129    1.287   .     A
C87    C152    1.333   .     S
C87    H170    1.086   .     S
C88    O132    1.386   .     S
C88    C486    1.391   1_545 S
C89    O122    1.382   .     S
C89    C266    1.387   .     S
C90    H112    1.080   .     S
C90    C286    1.391   .     S
Cu91   O127    1.960   .     S
Cu91   N119    2.016   .     S
Cu91   O128    1.955   .     S
Cu91   O131    1.956   .     S
Cu91   Cu92    2.682   .     S
Cu91   O121    1.959   .     S
Cu92   O129    1.955   .     S
Cu92   N120    2.016   .     S
Cu92   O125    1.959   .     S
Cu92   O130    1.956   .     S
Cu92   O126    1.960   .     S
H93    C152    1.087   .     S
H97    C145    1.111   .     S
H103   C1269   1.107   1_554 S
H117   C670    1.111   .     S
C133   C136    1.446   .     S
C133   O187    1.293   .     A
C133   O192    1.290   .     A
C134   C136    1.399   .     A
C134   H179    1.083   .     S
C134   C551    1.387   1_545 S
C135   C155    1.406   .     A
C135   C156    1.396   .     A
C135   C144    1.445   .     S
C136   C154    1.407   .     A
C137   H165    1.079   .     S
C137   N186    1.363   .     A
C137   C1327   1.430   1_554 S
C138   H166    1.078   .     S
C138   N185    1.362   .     A
C138   C734    1.439   .     S
C139   N185    1.374   .     A
C139   O189    1.391   .     S
C139   C731    1.430   .     S
C140   N186    1.376   .     A
C140   O190    1.399   .     S
C140   C1326   1.439   1_554 S
C141   H181    1.113   .     S
C141   C142    1.521   .     S
C141   H180    1.113   .     S
C141   O198    1.413   .     S
C142   H184    1.110   .     S
C142   H182    1.110   .     S
C142   H1371   1.111   1_554 S
C143   O188    1.412   .     S
C143   C145    1.520   .     S
C143   H160    1.114   .     S
C143   H161    1.116   .     S
C144   O193    1.290   .     A
C144   O191    1.292   .     A
C145   H162    1.111   .     S
C145   H164    1.111   .     S
C146   H168    1.115   .     S
C146   H167    1.108   .     S
C146   O189    1.417   .     S
C146   C147    1.525   .     S
C147   H171    1.110   .     S
C147   H172    1.110   .     S
C147   H763    1.107   .     S
C148   O190    1.415   .     S
C148   H174    1.112   .     S
C148   H173    1.109   .     S
C148   C149    1.528   .     S
C149   H175    1.109   .     S
C149   H44     1.108   1_655 S
C149   H45     1.109   1_655 S
C150   C152    1.433   .     S
C150   O196    1.289   .     A
C150   O194    1.287   .     A
C151   C153    1.432   .     S
C151   O197    1.289   .     A
C151   O195    1.287   .     A
C153   C20     1.333   1_655 S
C153   H38     1.086   1_655 S
C154   O198    1.386   .     S
C154   C552    1.391   1_545 S
C155   O188    1.382   .     S
C155   C332    1.387   .     S
C156   H178    1.080   .     S
C156   C352    1.391   .     S
Cu157  O193    1.960   .     S
Cu157  N185    2.016   .     S
Cu157  O194    1.955   .     S
Cu157  O197    1.956   .     S
Cu157  Cu158   2.682   .     S
Cu157  O187    1.959   .     S
Cu158  O195    1.955   .     S
Cu158  N186    2.016   .     S
Cu158  O191    1.959   .     S
Cu158  O196    1.956   .     S
Cu158  O192    1.960   .     S
H159   C20     1.087   1_655 S
H163   C13     1.111   1_655 S
H169   C1335   1.107   1_554 S
H183   C736    1.111   .     S
C199   C202    1.446   .     S
C199   O253    1.293   .     A
C199   O258    1.290   .     A
C200   C202    1.399   .     A
C200   H245    1.083   .     S
C201   C221    1.406   .     A
C201   C222    1.396   .     A
C201   C210    1.445   .     S
C202   C220    1.407   .     A
C203   H231    1.079   .     S
C203   N252    1.363   .     A
C203   C1393   1.430   1_554 S
C204   H232    1.078   .     S
C204   N251    1.362   .     A
C204   C800    1.439   .     S
C205   N251    1.374   .     A
C205   O255    1.391   .     S
C205   C797    1.430   .     S
C206   N252    1.376   .     A
C206   O256    1.399   .     S
C206   C1392   1.439   1_554 S
C207   H247    1.113   .     S
C207   C208    1.521   .     S
C207   H246    1.113   .     S
C207   O264    1.413   .     S
C208   H250    1.110   .     S
C208   H248    1.110   .     S
C208   H1437   1.111   1_554 S
C209   O254    1.412   .     S
C209   C211    1.520   .     S
C209   H226    1.114   .     S
C209   H227    1.116   .     S
C210   O259    1.290   .     A
C210   O257    1.292   .     A
C211   H228    1.111   .     S
C211   H230    1.111   .     S
C211   H361    1.111   1_455 S
C212   H234    1.115   .     S
C212   H233    1.108   .     S
C212   O255    1.417   .     S
C212   C213    1.525   .     S
C213   H237    1.110   .     S
C213   H238    1.110   .     S
C213   H829    1.107   .     S
C214   O256    1.415   .     S
C214   H240    1.112   .     S
C214   H239    1.109   .     S
C214   C215    1.528   .     S
C215   H241    1.109   .     S
C215   H308    1.108   .     S
C215   H309    1.109   .     S
C216   C218    1.433   .     S
C216   O262    1.289   .     A
C216   O260    1.287   .     A
C217   C219    1.432   .     S
C217   O263    1.289   .     A
C217   O261    1.287   .     A
C218   C351    1.333   1_455 S
C218   H357    1.087   1_455 S
C219   C284    1.333   .     S
C219   H302    1.086   .     S
C220   O264    1.386   .     S
C221   O254    1.382   .     S
C221   C398    1.387   .     S
C222   H244    1.080   .     S
C222   C418    1.391   .     S
Cu223  O259    1.960   .     S
Cu223  N251    2.016   .     S
Cu223  O260    1.955   .     S
Cu223  O263    1.956   .     S
Cu223  Cu224   2.682   .     S
Cu223  O253    1.959   .     S
Cu224  O261    1.955   .     S
Cu224  N252    2.016   .     S
Cu224  O257    1.959   .     S
Cu224  O262    1.956   .     S
Cu224  O258    1.960   .     S
H225   C284    1.087   .     S
H229   C277    1.111   .     S
H235   C1401   1.107   1_554 S
H236   C351    1.086   1_455 S
H242   C347    1.108   1_455 S
H243   C347    1.109   1_455 S
H249   C802    1.111   .     S
C265   C268    1.446   .     S
C265   O319    1.293   .     A
C265   O324    1.290   .     A
C266   C268    1.399   .     A
C266   H311    1.083   .     S
C267   C287    1.406   .     A
C267   C288    1.396   .     A
C267   C276    1.445   .     S
C268   C286    1.407   .     A
C269   H297    1.079   .     S
C269   N318    1.363   .     A
C269   C1459   1.430   1_554 S
C270   H298    1.078   .     S
C270   N317    1.362   .     A
C270   C866    1.439   .     S
C271   N317    1.374   .     A
C271   O321    1.391   .     S
C271   C863    1.430   .     S
C272   N318    1.376   .     A
C272   O322    1.399   .     S
C272   C1458   1.439   1_554 S
C273   H313    1.113   .     S
C273   C274    1.521   .     S
C273   H312    1.113   .     S
C273   O330    1.413   .     S
C274   H316    1.110   .     S
C274   H314    1.110   .     S
C274   H1503   1.111   1_554 S
C275   O320    1.412   .     S
C275   C277    1.520   .     S
C275   H292    1.114   .     S
C275   H293    1.116   .     S
C276   O325    1.290   .     A
C276   O323    1.292   .     A
C277   H294    1.111   .     S
C277   H296    1.111   .     S
C278   H300    1.115   .     S
C278   H299    1.108   .     S
C278   O321    1.417   .     S
C278   C279    1.525   .     S
C279   H303    1.110   .     S
C279   H304    1.110   .     S
C279   H895    1.107   .     S
C280   O322    1.415   .     S
C280   H306    1.112   .     S
C280   H305    1.109   .     S
C280   C281    1.528   .     S
C281   H307    1.109   .     S
C281   H374    1.108   .     S
C281   H375    1.109   .     S
C282   C284    1.433   .     S
C282   O328    1.289   .     A
C282   O326    1.287   .     A
C283   C285    1.432   .     S
C283   O329    1.289   .     A
C283   O327    1.287   .     A
C285   C350    1.333   .     S
C285   H368    1.086   .     S
C286   O330    1.386   .     S
C287   O320    1.382   .     S
C287   C464    1.387   .     S
C288   H310    1.080   .     S
C288   C484    1.391   .     S
Cu289  O325    1.960   .     S
Cu289  N317    2.016   .     S
Cu289  O326    1.955   .     S
Cu289  O329    1.956   .     S
Cu289  Cu290   2.682   .     S
Cu289  O319    1.959   .     S
Cu290  O327    1.955   .     S
Cu290  N318    2.016   .     S
Cu290  O323    1.959   .     S
Cu290  O328    1.956   .     S
Cu290  O324    1.960   .     S
H291   C350    1.087   .     S
H295   C343    1.111   .     S
H301   C1467   1.107   1_554 S
H315   C868    1.111   .     S
C331   C334    1.446   .     S
C331   O385    1.293   .     A
C331   O390    1.290   .     A
C332   C334    1.399   .     A
C332   H377    1.083   .     S
C333   C353    1.406   .     A
C333   C354    1.396   .     A
C333   C342    1.445   .     S
C334   C352    1.407   .     A
C335   H363    1.079   .     S
C335   N384    1.363   .     A
C335   C1525   1.430   1_554 S
C336   H364    1.078   .     S
C336   N383    1.362   .     A
C336   C932    1.439   .     S
C337   N383    1.374   .     A
C337   O387    1.391   .     S
C337   C929    1.430   .     S
C338   N384    1.376   .     A
C338   O388    1.399   .     S
C338   C1524   1.439   1_554 S
C339   H379    1.113   .     S
C339   C340    1.521   .     S
C339   H378    1.113   .     S
C339   O396    1.413   .     S
C340   H382    1.110   .     S
C340   H380    1.110   .     S
C340   H1569   1.111   1_554 S
C341   O386    1.412   .     S
C341   C343    1.520   .     S
C341   H358    1.114   .     S
C341   H359    1.116   .     S
C342   O391    1.290   .     A
C342   O389    1.292   .     A
C343   H360    1.111   .     S
C343   H362    1.111   .     S
C344   H366    1.115   .     S
C344   H365    1.108   .     S
C344   O387    1.417   .     S
C344   C345    1.525   .     S
C345   H369    1.110   .     S
C345   H370    1.110   .     S
C345   H961    1.107   .     S
C346   O388    1.415   .     S
C346   H372    1.112   .     S
C346   H371    1.109   .     S
C346   C347    1.528   .     S
C347   H373    1.109   .     S
C347   H242    1.108   1_655 S
C347   H243    1.109   1_655 S
C348   C350    1.433   .     S
C348   O394    1.289   .     A
C348   O392    1.287   .     A
C349   C351    1.432   .     S
C349   O395    1.289   .     A
C349   O393    1.287   .     A
C351   C218    1.333   1_655 S
C351   H236    1.086   1_655 S
C352   O396    1.386   .     S
C353   O386    1.382   .     S
C353   C530    1.387   .     S
C354   H376    1.080   .     S
C354   C550    1.391   .     S
Cu355  O391    1.960   .     S
Cu355  N383    2.016   .     S
Cu355  O392    1.955   .     S
Cu355  O395    1.956   .     S
Cu355  Cu356   2.682   .     S
Cu355  O385    1.959   .     S
Cu356  O393    1.955   .     S
Cu356  N384    2.016   .     S
Cu356  O389    1.959   .     S
Cu356  O394    1.956   .     S
Cu356  O390    1.960   .     S
H357   C218    1.087   1_655 S
H361   C211    1.111   1_655 S
H367   C1533   1.107   1_554 S
H381   C934    1.111   .     S
C397   C400    1.446   .     S
C397   O451    1.293   .     A
C397   O456    1.290   .     A
C398   C400    1.399   .     A
C398   H443    1.083   .     S
C399   C419    1.406   .     A
C399   C420    1.396   .     A
C399   C408    1.445   .     S
C400   C418    1.407   .     A
C401   H429    1.079   .     S
C401   N450    1.363   .     A
C401   C1591   1.430   1_554 S
C402   H430    1.078   .     S
C402   N449    1.362   .     A
C402   C998    1.439   .     S
C403   N449    1.374   .     A
C403   O453    1.391   .     S
C403   C995    1.430   .     S
C404   N450    1.376   .     A
C404   O454    1.399   .     S
C404   C1590   1.439   1_554 S
C405   H445    1.113   .     S
C405   C406    1.521   .     S
C405   H444    1.113   .     S
C405   O462    1.413   .     S
C406   H448    1.110   .     S
C406   H446    1.110   .     S
C406   H1635   1.111   1_554 S
C407   O452    1.412   .     S
C407   C409    1.520   .     S
C407   H424    1.114   .     S
C407   H425    1.116   .     S
C408   O457    1.290   .     A
C408   O455    1.292   .     A
C409   H426    1.111   .     S
C409   H428    1.111   .     S
C409   H559    1.111   1_455 S
C410   H432    1.115   .     S
C410   H431    1.108   .     S
C410   O453    1.417   .     S
C410   C411    1.525   .     S
C411   H435    1.110   .     S
C411   H436    1.110   .     S
C411   H1027   1.107   .     S
C412   O454    1.415   .     S
C412   H438    1.112   .     S
C412   H437    1.109   .     S
C412   C413    1.528   .     S
C413   H439    1.109   .     S
C413   H506    1.108   .     S
C413   H507    1.109   .     S
C414   C416    1.433   .     S
C414   O460    1.289   .     A
C414   O458    1.287   .     A
C415   C417    1.432   .     S
C415   O461    1.289   .     A
C415   O459    1.287   .     A
C416   C549    1.333   1_455 S
C416   H555    1.087   1_455 S
C417   C482    1.333   .     S
C417   H500    1.086   .     S
C418   O462    1.386   .     S
C419   O452    1.382   .     S
C419   C2      1.387   1_565 S
C420   H442    1.080   .     S
C420   C22     1.391   1_565 S
Cu421  O457    1.960   .     S
Cu421  N449    2.016   .     S
Cu421  O458    1.955   .     S
Cu421  O461    1.956   .     S
Cu421  Cu422   2.682   .     S
Cu421  O451    1.959   .     S
Cu422  O459    1.955   .     S
Cu422  N450    2.016   .     S
Cu422  O455    1.959   .     S
Cu422  O460    1.956   .     S
Cu422  O456    1.960   .     S
H423   C482    1.087   .     S
H427   C475    1.111   .     S
H433   C1599   1.107   1_554 S
H434   C549    1.086   1_455 S
H440   C545    1.108   1_455 S
H441   C545    1.109   1_455 S
H447   C1000   1.111   .     S
C463   C466    1.446   .     S
C463   O517    1.293   .     A
C463   O522    1.290   .     A
C464   C466    1.399   .     A
C464   H509    1.083   .     S
C465   C485    1.406   .     A
C465   C486    1.396   .     A
C465   C474    1.445   .     S
C466   C484    1.407   .     A
C467   H495    1.079   .     S
C467   N516    1.363   .     A
C467   C1657   1.430   1_554 S
C468   H496    1.078   .     S
C468   N515    1.362   .     A
C468   C1064   1.439   .     S
C469   N515    1.374   .     A
C469   O519    1.391   .     S
C469   C1061   1.430   .     S
C470   N516    1.376   .     A
C470   O520    1.399   .     S
C470   C1656   1.439   1_554 S
C471   H511    1.113   .     S
C471   C472    1.521   .     S
C471   H510    1.113   .     S
C471   O528    1.413   .     S
C472   H514    1.110   .     S
C472   H512    1.110   .     S
C472   H1701   1.111   1_554 S
C473   O518    1.412   .     S
C473   C475    1.520   .     S
C473   H490    1.114   .     S
C473   H491    1.116   .     S
C474   O523    1.290   .     A
C474   O521    1.292   .     A
C475   H492    1.111   .     S
C475   H494    1.111   .     S
C476   H498    1.115   .     S
C476   H497    1.108   .     S
C476   O519    1.417   .     S
C476   C477    1.525   .     S
C477   H501    1.110   .     S
C477   H502    1.110   .     S
C477   H1093   1.107   .     S
C478   O520    1.415   .     S
C478   H504    1.112   .     S
C478   H503    1.109   .     S
C478   C479    1.528   .     S
C479   H505    1.109   .     S
C479   H572    1.108   .     S
C479   H573    1.109   .     S
C480   C482    1.433   .     S
C480   O526    1.289   .     A
C480   O524    1.287   .     A
C481   C483    1.432   .     S
C481   O527    1.289   .     A
C481   O525    1.287   .     A
C483   C548    1.333   .     S
C483   H566    1.086   .     S
C484   O528    1.386   .     S
C485   O518    1.382   .     S
C485   C68     1.387   1_565 S
C486   H508    1.080   .     S
C486   C88     1.391   1_565 S
Cu487  O523    1.960   .     S
Cu487  N515    2.016   .     S
Cu487  O524    1.955   .     S
Cu487  O527    1.956   .     S
Cu487  Cu488   2.682   .     S
Cu487  O517    1.959   .     S
Cu488  O525    1.955   .     S
Cu488  N516    2.016   .     S
Cu488  O521    1.959   .     S
Cu488  O526    1.956   .     S
Cu488  O522    1.960   .     S
H489   C548    1.087   .     S
H493   C541    1.111   .     S
H499   C1665   1.107   1_554 S
H513   C1066   1.111   .     S
C529   C532    1.446   .     S
C529   O583    1.293   .     A
C529   O588    1.290   .     A
C530   C532    1.399   .     A
C530   H575    1.083   .     S
C531   C551    1.406   .     A
C531   C552    1.396   .     A
C531   C540    1.445   .     S
C532   C550    1.407   .     A
C533   H561    1.079   .     S
C533   N582    1.363   .     A
C533   C1723   1.430   1_554 S
C534   H562    1.078   .     S
C534   N581    1.362   .     A
C534   C1130   1.439   .     S
C535   N581    1.374   .     A
C535   O585    1.391   .     S
C535   C1127   1.430   .     S
C536   N582    1.376   .     A
C536   O586    1.399   .     S
C536   C1722   1.439   1_554 S
C537   H577    1.113   .     S
C537   C538    1.521   .     S
C537   H576    1.113   .     S
C537   O594    1.413   .     S
C538   H580    1.110   .     S
C538   H578    1.110   .     S
C538   H1767   1.111   1_554 S
C539   O584    1.412   .     S
C539   C541    1.520   .     S
C539   H556    1.114   .     S
C539   H557    1.116   .     S
C540   O589    1.290   .     A
C540   O587    1.292   .     A
C541   H558    1.111   .     S
C541   H560    1.111   .     S
C542   H564    1.115   .     S
C542   H563    1.108   .     S
C542   O585    1.417   .     S
C542   C543    1.525   .     S
C543   H567    1.110   .     S
C543   H568    1.110   .     S
C543   H1159   1.107   .     S
C544   O586    1.415   .     S
C544   H570    1.112   .     S
C544   H569    1.109   .     S
C544   C545    1.528   .     S
C545   H571    1.109   .     S
C545   H440    1.108   1_655 S
C545   H441    1.109   1_655 S
C546   C548    1.433   .     S
C546   O592    1.289   .     A
C546   O590    1.287   .     A
C547   C549    1.432   .     S
C547   O593    1.289   .     A
C547   O591    1.287   .     A
C549   C416    1.333   1_655 S
C549   H434    1.086   1_655 S
C550   O594    1.386   .     S
C551   O584    1.382   .     S
C551   C134    1.387   1_565 S
C552   H574    1.080   .     S
C552   C154    1.391   1_565 S
Cu553  O589    1.960   .     S
Cu553  N581    2.016   .     S
Cu553  O590    1.955   .     S
Cu553  O593    1.956   .     S
Cu553  Cu554   2.682   .     S
Cu553  O583    1.959   .     S
Cu554  O591    1.955   .     S
Cu554  N582    2.016   .     S
Cu554  O587    1.959   .     S
Cu554  O592    1.956   .     S
Cu554  O588    1.960   .     S
H555   C416    1.087   1_655 S
H559   C409    1.111   1_655 S
H565   C1731   1.107   1_554 S
H579   C1132   1.111   .     S
C595   C598    1.446   .     S
C595   O649    1.293   .     A
C595   O654    1.290   .     A
C596   C598    1.399   .     A
C596   H641    1.083   .     S
C596   C1013   1.387   1_545 S
C597   C617    1.406   .     A
C597   C618    1.396   .     A
C597   C606    1.445   .     S
C598   C616    1.407   .     A
C599   H627    1.079   .     S
C599   N648    1.363   .     A
C600   H628    1.078   .     S
C600   N647    1.362   .     A
C600   C1196   1.439   .     S
C601   N647    1.374   .     A
C601   O651    1.391   .     S
C601   C1193   1.430   .     S
C602   N648    1.376   .     A
C602   O652    1.399   .     S
C603   H643    1.113   .     S
C603   C604    1.521   .     S
C603   H642    1.113   .     S
C603   O660    1.413   .     S
C604   H646    1.110   .     S
C604   H644    1.110   .     S
C605   O650    1.412   .     S
C605   C607    1.520   .     S
C605   H622    1.114   .     S
C605   H623    1.116   .     S
C606   O655    1.290   .     A
C606   O653    1.292   .     A
C607   H624    1.111   .     S
C607   H626    1.111   .     S
C607   H757    1.111   1_455 S
C608   H630    1.115   .     S
C608   H629    1.108   .     S
C608   O651    1.417   .     S
C608   C609    1.525   .     S
C609   H633    1.110   .     S
C609   H634    1.110   .     S
C609   H1225   1.107   .     S
C610   O652    1.415   .     S
C610   H636    1.112   .     S
C610   H635    1.109   .     S
C610   C611    1.528   .     S
C611   H637    1.109   .     S
C611   H704    1.108   .     S
C611   H705    1.109   .     S
C612   C614    1.433   .     S
C612   O658    1.289   .     A
C612   O656    1.287   .     A
C613   C615    1.432   .     S
C613   O659    1.289   .     A
C613   O657    1.287   .     A
C614   C747    1.333   1_455 S
C614   H753    1.087   1_455 S
C615   C680    1.333   .     S
C615   H698    1.086   .     S
C616   O660    1.386   .     S
C616   C1014   1.391   1_545 S
C617   O650    1.382   .     S
C617   C794    1.387   .     S
C618   H640    1.080   .     S
C618   C814    1.391   .     S
Cu619  O655    1.960   .     S
Cu619  N647    2.016   .     S
Cu619  O656    1.955   .     S
Cu619  O659    1.956   .     S
Cu619  Cu620   2.682   .     S
Cu619  O649    1.959   .     S
Cu620  O657    1.955   .     S
Cu620  N648    2.016   .     S
Cu620  O653    1.959   .     S
Cu620  O658    1.956   .     S
Cu620  O654    1.960   .     S
H621   C680    1.087   .     S
H625   C673    1.111   .     S
H632   C747    1.086   1_455 S
H638   C743    1.108   1_455 S
H639   C743    1.109   1_455 S
H645   C1198   1.111   .     S
C661   C664    1.446   .     S
C661   O715    1.293   .     A
C661   O720    1.290   .     A
C662   C664    1.399   .     A
C662   H707    1.083   .     S
C662   C1079   1.387   1_545 S
C663   C683    1.406   .     A
C663   C684    1.396   .     A
C663   C672    1.445   .     S
C664   C682    1.407   .     A
C665   H693    1.079   .     S
C665   N714    1.363   .     A
C666   H694    1.078   .     S
C666   N713    1.362   .     A
C666   C1262   1.439   .     S
C667   N713    1.374   .     A
C667   O717    1.391   .     S
C667   C1259   1.430   .     S
C668   N714    1.376   .     A
C668   O718    1.399   .     S
C669   H709    1.113   .     S
C669   C670    1.521   .     S
C669   H708    1.113   .     S
C669   O726    1.413   .     S
C670   H712    1.110   .     S
C670   H710    1.110   .     S
C671   O716    1.412   .     S
C671   C673    1.520   .     S
C671   H688    1.114   .     S
C671   H689    1.116   .     S
C672   O721    1.290   .     A
C672   O719    1.292   .     A
C673   H690    1.111   .     S
C673   H692    1.111   .     S
C674   H696    1.115   .     S
C674   H695    1.108   .     S
C674   O717    1.417   .     S
C674   C675    1.525   .     S
C675   H699    1.110   .     S
C675   H700    1.110   .     S
C675   H1291   1.107   .     S
C676   O718    1.415   .     S
C676   H702    1.112   .     S
C676   H701    1.109   .     S
C676   C677    1.528   .     S
C677   H703    1.109   .     S
C677   H770    1.108   .     S
C677   H771    1.109   .     S
C678   C680    1.433   .     S
C678   O724    1.289   .     A
C678   O722    1.287   .     A
C679   C681    1.432   .     S
C679   O725    1.289   .     A
C679   O723    1.287   .     A
C681   C746    1.333   .     S
C681   H764    1.086   .     S
C682   O726    1.386   .     S
C682   C1080   1.391   1_545 S
C683   O716    1.382   .     S
C683   C860    1.387   .     S
C684   H706    1.080   .     S
C684   C880    1.391   .     S
Cu685  O721    1.960   .     S
Cu685  N713    2.016   .     S
Cu685  O722    1.955   .     S
Cu685  O725    1.956   .     S
Cu685  Cu686   2.682   .     S
Cu685  O715    1.959   .     S
Cu686  O723    1.955   .     S
Cu686  N714    2.016   .     S
Cu686  O719    1.959   .     S
Cu686  O724    1.956   .     S
Cu686  O720    1.960   .     S
H687   C746    1.087   .     S
H691   C739    1.111   .     S
H711   C1264   1.111   .     S
C727   C730    1.446   .     S
C727   O781    1.293   .     A
C727   O786    1.290   .     A
C728   C730    1.399   .     A
C728   H773    1.083   .     S
C728   C1145   1.387   1_545 S
C729   C749    1.406   .     A
C729   C750    1.396   .     A
C729   C738    1.445   .     S
C730   C748    1.407   .     A
C731   H759    1.079   .     S
C731   N780    1.363   .     A
C732   H760    1.078   .     S
C732   N779    1.362   .     A
C732   C1328   1.439   .     S
C733   N779    1.374   .     A
C733   O783    1.391   .     S
C733   C1325   1.430   .     S
C734   N780    1.376   .     A
C734   O784    1.399   .     S
C735   H775    1.113   .     S
C735   C736    1.521   .     S
C735   H774    1.113   .     S
C735   O792    1.413   .     S
C736   H778    1.110   .     S
C736   H776    1.110   .     S
C737   O782    1.412   .     S
C737   C739    1.520   .     S
C737   H754    1.114   .     S
C737   H755    1.116   .     S
C738   O787    1.290   .     A
C738   O785    1.292   .     A
C739   H756    1.111   .     S
C739   H758    1.111   .     S
C740   H762    1.115   .     S
C740   H761    1.108   .     S
C740   O783    1.417   .     S
C740   C741    1.525   .     S
C741   H765    1.110   .     S
C741   H766    1.110   .     S
C741   H1357   1.107   .     S
C742   O784    1.415   .     S
C742   H768    1.112   .     S
C742   H767    1.109   .     S
C742   C743    1.528   .     S
C743   H769    1.109   .     S
C743   H638    1.108   1_655 S
C743   H639    1.109   1_655 S
C744   C746    1.433   .     S
C744   O790    1.289   .     A
C744   O788    1.287   .     A
C745   C747    1.432   .     S
C745   O791    1.289   .     A
C745   O789    1.287   .     A
C747   C614    1.333   1_655 S
C747   H632    1.086   1_655 S
C748   O792    1.386   .     S
C748   C1146   1.391   1_545 S
C749   O782    1.382   .     S
C749   C926    1.387   .     S
C750   H772    1.080   .     S
C750   C946    1.391   .     S
Cu751  O787    1.960   .     S
Cu751  N779    2.016   .     S
Cu751  O788    1.955   .     S
Cu751  O791    1.956   .     S
Cu751  Cu752   2.682   .     S
Cu751  O781    1.959   .     S
Cu752  O789    1.955   .     S
Cu752  N780    2.016   .     S
Cu752  O785    1.959   .     S
Cu752  O790    1.956   .     S
Cu752  O786    1.960   .     S
H753   C614    1.087   1_655 S
H757   C607    1.111   1_655 S
H777   C1330   1.111   .     S
C793   C796    1.446   .     S
C793   O847    1.293   .     A
C793   O852    1.290   .     A
C794   C796    1.399   .     A
C794   H839    1.083   .     S
C795   C815    1.406   .     A
C795   C816    1.396   .     A
C795   C804    1.445   .     S
C796   C814    1.407   .     A
C797   H825    1.079   .     S
C797   N846    1.363   .     A
C798   H826    1.078   .     S
C798   N845    1.362   .     A
C798   C1394   1.439   .     S
C799   N845    1.374   .     A
C799   O849    1.391   .     S
C799   C1391   1.430   .     S
C800   N846    1.376   .     A
C800   O850    1.399   .     S
C801   H841    1.113   .     S
C801   C802    1.521   .     S
C801   H840    1.113   .     S
C801   O858    1.413   .     S
C802   H844    1.110   .     S
C802   H842    1.110   .     S
C803   O848    1.412   .     S
C803   C805    1.520   .     S
C803   H820    1.114   .     S
C803   H821    1.116   .     S
C804   O853    1.290   .     A
C804   O851    1.292   .     A
C805   H822    1.111   .     S
C805   H824    1.111   .     S
C805   H955    1.111   1_455 S
C806   H828    1.115   .     S
C806   H827    1.108   .     S
C806   O849    1.417   .     S
C806   C807    1.525   .     S
C807   H831    1.110   .     S
C807   H832    1.110   .     S
C807   H1423   1.107   .     S
C808   O850    1.415   .     S
C808   H834    1.112   .     S
C808   H833    1.109   .     S
C808   C809    1.528   .     S
C809   H835    1.109   .     S
C809   H902    1.108   .     S
C809   H903    1.109   .     S
C810   C812    1.433   .     S
C810   O856    1.289   .     A
C810   O854    1.287   .     A
C811   C813    1.432   .     S
C811   O857    1.289   .     A
C811   O855    1.287   .     A
C812   C945    1.333   1_455 S
C812   H951    1.087   1_455 S
C813   C878    1.333   .     S
C813   H896    1.086   .     S
C814   O858    1.386   .     S
C815   O848    1.382   .     S
C815   C992    1.387   .     S
C816   H838    1.080   .     S
C816   C1012   1.391   .     S
Cu817  O853    1.960   .     S
Cu817  N845    2.016   .     S
Cu817  O854    1.955   .     S
Cu817  O857    1.956   .     S
Cu817  Cu818   2.682   .     S
Cu817  O847    1.959   .     S
Cu818  O855    1.955   .     S
Cu818  N846    2.016   .     S
Cu818  O851    1.959   .     S
Cu818  O856    1.956   .     S
Cu818  O852    1.960   .     S
H819   C878    1.087   .     S
H823   C871    1.111   .     S
H830   C945    1.086   1_455 S
H836   C941    1.108   1_455 S
H837   C941    1.109   1_455 S
H843   C1396   1.111   .     S
C859   C862    1.446   .     S
C859   O913    1.293   .     A
C859   O918    1.290   .     A
C860   C862    1.399   .     A
C860   H905    1.083   .     S
C861   C881    1.406   .     A
C861   C882    1.396   .     A
C861   C870    1.445   .     S
C862   C880    1.407   .     A
C863   H891    1.079   .     S
C863   N912    1.363   .     A
C864   H892    1.078   .     S
C864   N911    1.362   .     A
C864   C1460   1.439   .     S
C865   N911    1.374   .     A
C865   O915    1.391   .     S
C865   C1457   1.430   .     S
C866   N912    1.376   .     A
C866   O916    1.399   .     S
C867   H907    1.113   .     S
C867   C868    1.521   .     S
C867   H906    1.113   .     S
C867   O924    1.413   .     S
C868   H910    1.110   .     S
C868   H908    1.110   .     S
C869   O914    1.412   .     S
C869   C871    1.520   .     S
C869   H886    1.114   .     S
C869   H887    1.116   .     S
C870   O919    1.290   .     A
C870   O917    1.292   .     A
C871   H888    1.111   .     S
C871   H890    1.111   .     S
C872   H894    1.115   .     S
C872   H893    1.108   .     S
C872   O915    1.417   .     S
C872   C873    1.525   .     S
C873   H897    1.110   .     S
C873   H898    1.110   .     S
C873   H1489   1.107   .     S
C874   O916    1.415   .     S
C874   H900    1.112   .     S
C874   H899    1.109   .     S
C874   C875    1.528   .     S
C875   H901    1.109   .     S
C875   H968    1.108   .     S
C875   H969    1.109   .     S
C876   C878    1.433   .     S
C876   O922    1.289   .     A
C876   O920    1.287   .     A
C877   C879    1.432   .     S
C877   O923    1.289   .     A
C877   O921    1.287   .     A
C879   C944    1.333   .     S
C879   H962    1.086   .     S
C880   O924    1.386   .     S
C881   O914    1.382   .     S
C881   C1058   1.387   .     S
C882   H904    1.080   .     S
C882   C1078   1.391   .     S
Cu883  O919    1.960   .     S
Cu883  N911    2.016   .     S
Cu883  O920    1.955   .     S
Cu883  O923    1.956   .     S
Cu883  Cu884   2.682   .     S
Cu883  O913    1.959   .     S
Cu884  O921    1.955   .     S
Cu884  N912    2.016   .     S
Cu884  O917    1.959   .     S
Cu884  O922    1.956   .     S
Cu884  O918    1.960   .     S
H885   C944    1.087   .     S
H889   C937    1.111   .     S
H909   C1462   1.111   .     S
C925   C928    1.446   .     S
C925   O979    1.293   .     A
C925   O984    1.290   .     A
C926   C928    1.399   .     A
C926   H971    1.083   .     S
C927   C947    1.406   .     A
C927   C948    1.396   .     A
C927   C936    1.445   .     S
C928   C946    1.407   .     A
C929   H957    1.079   .     S
C929   N978    1.363   .     A
C930   H958    1.078   .     S
C930   N977    1.362   .     A
C930   C1526   1.439   .     S
C931   N977    1.374   .     A
C931   O981    1.391   .     S
C931   C1523   1.430   .     S
C932   N978    1.376   .     A
C932   O982    1.399   .     S
C933   H973    1.113   .     S
C933   C934    1.521   .     S
C933   H972    1.113   .     S
C933   O990    1.413   .     S
C934   H976    1.110   .     S
C934   H974    1.110   .     S
C935   O980    1.412   .     S
C935   C937    1.520   .     S
C935   H952    1.114   .     S
C935   H953    1.116   .     S
C936   O985    1.290   .     A
C936   O983    1.292   .     A
C937   H954    1.111   .     S
C937   H956    1.111   .     S
C938   H960    1.115   .     S
C938   H959    1.108   .     S
C938   O981    1.417   .     S
C938   C939    1.525   .     S
C939   H963    1.110   .     S
C939   H964    1.110   .     S
C939   H1555   1.107   .     S
C940   O982    1.415   .     S
C940   H966    1.112   .     S
C940   H965    1.109   .     S
C940   C941    1.528   .     S
C941   H967    1.109   .     S
C941   H836    1.108   1_655 S
C941   H837    1.109   1_655 S
C942   C944    1.433   .     S
C942   O988    1.289   .     A
C942   O986    1.287   .     A
C943   C945    1.432   .     S
C943   O989    1.289   .     A
C943   O987    1.287   .     A
C945   C812    1.333   1_655 S
C945   H830    1.086   1_655 S
C946   O990    1.386   .     S
C947   O980    1.382   .     S
C947   C1124   1.387   .     S
C948   H970    1.080   .     S
C948   C1144   1.391   .     S
Cu949  O985    1.960   .     S
Cu949  N977    2.016   .     S
Cu949  O986    1.955   .     S
Cu949  O989    1.956   .     S
Cu949  Cu950   2.682   .     S
Cu949  O979    1.959   .     S
Cu950  O987    1.955   .     S
Cu950  N978    2.016   .     S
Cu950  O983    1.959   .     S
Cu950  O988    1.956   .     S
Cu950  O984    1.960   .     S
H951   C812    1.087   1_655 S
H955   C805    1.111   1_655 S
H975   C1528   1.111   .     S
C991   C994    1.446   .     S
C991   O1045   1.293   .     A
C991   O1050   1.290   .     A
C992   C994    1.399   .     A
C992   H1037   1.083   .     S
C993   C1013   1.406   .     A
C993   C1014   1.396   .     A
C993   C1002   1.445   .     S
C994   C1012   1.407   .     A
C995   H1023   1.079   .     S
C995   N1044   1.363   .     A
C996   H1024   1.078   .     S
C996   N1043   1.362   .     A
C996   C1592   1.439   .     S
C997   N1043   1.374   .     A
C997   O1047   1.391   .     S
C997   C1589   1.430   .     S
C998   N1044   1.376   .     A
C998   O1048   1.399   .     S
C999   H1039   1.113   .     S
C999   C1000   1.521   .     S
C999   H1038   1.113   .     S
C999   O1056   1.413   .     S
C1000  H1042   1.110   .     S
C1000  H1040   1.110   .     S
C1001  O1046   1.412   .     S
C1001  C1003   1.520   .     S
C1001  H1018   1.114   .     S
C1001  H1019   1.116   .     S
C1002  O1051   1.290   .     A
C1002  O1049   1.292   .     A
C1003  H1020   1.111   .     S
C1003  H1022   1.111   .     S
C1003  H1153   1.111   1_455 S
C1004  H1026   1.115   .     S
C1004  H1025   1.108   .     S
C1004  O1047   1.417   .     S
C1004  C1005   1.525   .     S
C1005  H1029   1.110   .     S
C1005  H1030   1.110   .     S
C1005  H1621   1.107   .     S
C1006  O1048   1.415   .     S
C1006  H1032   1.112   .     S
C1006  H1031   1.109   .     S
C1006  C1007   1.528   .     S
C1007  H1033   1.109   .     S
C1007  H1100   1.108   .     S
C1007  H1101   1.109   .     S
C1008  C1010   1.433   .     S
C1008  O1054   1.289   .     A
C1008  O1052   1.287   .     A
C1009  C1011   1.432   .     S
C1009  O1055   1.289   .     A
C1009  O1053   1.287   .     A
C1010  C1143   1.333   1_455 S
C1010  H1149   1.087   1_455 S
C1011  C1076   1.333   .     S
C1011  H1094   1.086   .     S
C1012  O1056   1.386   .     S
C1013  O1046   1.382   .     S
C1013  C596    1.387   1_565 S
C1014  H1036   1.080   .     S
C1014  C616    1.391   1_565 S
Cu1015 O1051   1.960   .     S
Cu1015 N1043   2.016   .     S
Cu1015 O1052   1.955   .     S
Cu1015 O1055   1.956   .     S
Cu1015 Cu1016  2.682   .     S
Cu1015 O1045   1.959   .     S
Cu1016 O1053   1.955   .     S
Cu1016 N1044   2.016   .     S
Cu1016 O1049   1.959   .     S
Cu1016 O1054   1.956   .     S
Cu1016 O1050   1.960   .     S
H1017  C1076   1.087   .     S
H1021  C1069   1.111   .     S
H1028  C1143   1.086   1_455 S
H1034  C1139   1.108   1_455 S
H1035  C1139   1.109   1_455 S
H1041  C1594   1.111   .     S
C1057  C1060   1.446   .     S
C1057  O1111   1.293   .     A
C1057  O1116   1.290   .     A
C1058  C1060   1.399   .     A
C1058  H1103   1.083   .     S
C1059  C1079   1.406   .     A
C1059  C1080   1.396   .     A
C1059  C1068   1.445   .     S
C1060  C1078   1.407   .     A
C1061  H1089   1.079   .     S
C1061  N1110   1.363   .     A
C1062  H1090   1.078   .     S
C1062  N1109   1.362   .     A
C1062  C1658   1.439   .     S
C1063  N1109   1.374   .     A
C1063  O1113   1.391   .     S
C1063  C1655   1.430   .     S
C1064  N1110   1.376   .     A
C1064  O1114   1.399   .     S
C1065  H1105   1.113   .     S
C1065  C1066   1.521   .     S
C1065  H1104   1.113   .     S
C1065  O1122   1.413   .     S
C1066  H1108   1.110   .     S
C1066  H1106   1.110   .     S
C1067  O1112   1.412   .     S
C1067  C1069   1.520   .     S
C1067  H1084   1.114   .     S
C1067  H1085   1.116   .     S
C1068  O1117   1.290   .     A
C1068  O1115   1.292   .     A
C1069  H1086   1.111   .     S
C1069  H1088   1.111   .     S
C1070  H1092   1.115   .     S
C1070  H1091   1.108   .     S
C1070  O1113   1.417   .     S
C1070  C1071   1.525   .     S
C1071  H1095   1.110   .     S
C1071  H1096   1.110   .     S
C1071  H1687   1.107   .     S
C1072  O1114   1.415   .     S
C1072  H1098   1.112   .     S
C1072  H1097   1.109   .     S
C1072  C1073   1.528   .     S
C1073  H1099   1.109   .     S
C1073  H1166   1.108   .     S
C1073  H1167   1.109   .     S
C1074  C1076   1.433   .     S
C1074  O1120   1.289   .     A
C1074  O1118   1.287   .     A
C1075  C1077   1.432   .     S
C1075  O1121   1.289   .     A
C1075  O1119   1.287   .     A
C1077  C1142   1.333   .     S
C1077  H1160   1.086   .     S
C1078  O1122   1.386   .     S
C1079  O1112   1.382   .     S
C1079  C662    1.387   1_565 S
C1080  H1102   1.080   .     S
C1080  C682    1.391   1_565 S
Cu1081 O1117   1.960   .     S
Cu1081 N1109   2.016   .     S
Cu1081 O1118   1.955   .     S
Cu1081 O1121   1.956   .     S
Cu1081 Cu1082  2.682   .     S
Cu1081 O1111   1.959   .     S
Cu1082 O1119   1.955   .     S
Cu1082 N1110   2.016   .     S
Cu1082 O1115   1.959   .     S
Cu1082 O1120   1.956   .     S
Cu1082 O1116   1.960   .     S
H1083  C1142   1.087   .     S
H1087  C1135   1.111   .     S
H1107  C1660   1.111   .     S
C1123  C1126   1.446   .     S
C1123  O1177   1.293   .     A
C1123  O1182   1.290   .     A
C1124  C1126   1.399   .     A
C1124  H1169   1.083   .     S
C1125  C1145   1.406   .     A
C1125  C1146   1.396   .     A
C1125  C1134   1.445   .     S
C1126  C1144   1.407   .     A
C1127  H1155   1.079   .     S
C1127  N1176   1.363   .     A
C1128  H1156   1.078   .     S
C1128  N1175   1.362   .     A
C1128  C1724   1.439   .     S
C1129  N1175   1.374   .     A
C1129  O1179   1.391   .     S
C1129  C1721   1.430   .     S
C1130  N1176   1.376   .     A
C1130  O1180   1.399   .     S
C1131  H1171   1.113   .     S
C1131  C1132   1.521   .     S
C1131  H1170   1.113   .     S
C1131  O1188   1.413   .     S
C1132  H1174   1.110   .     S
C1132  H1172   1.110   .     S
C1133  O1178   1.412   .     S
C1133  C1135   1.520   .     S
C1133  H1150   1.114   .     S
C1133  H1151   1.116   .     S
C1134  O1183   1.290   .     A
C1134  O1181   1.292   .     A
C1135  H1152   1.111   .     S
C1135  H1154   1.111   .     S
C1136  H1158   1.115   .     S
C1136  H1157   1.108   .     S
C1136  O1179   1.417   .     S
C1136  C1137   1.525   .     S
C1137  H1161   1.110   .     S
C1137  H1162   1.110   .     S
C1137  H1753   1.107   .     S
C1138  O1180   1.415   .     S
C1138  H1164   1.112   .     S
C1138  H1163   1.109   .     S
C1138  C1139   1.528   .     S
C1139  H1165   1.109   .     S
C1139  H1034   1.108   1_655 S
C1139  H1035   1.109   1_655 S
C1140  C1142   1.433   .     S
C1140  O1186   1.289   .     A
C1140  O1184   1.287   .     A
C1141  C1143   1.432   .     S
C1141  O1187   1.289   .     A
C1141  O1185   1.287   .     A
C1143  C1010   1.333   1_655 S
C1143  H1028   1.086   1_655 S
C1144  O1188   1.386   .     S
C1145  O1178   1.382   .     S
C1145  C728    1.387   1_565 S
C1146  H1168   1.080   .     S
C1146  C748    1.391   1_565 S
Cu1147 O1183   1.960   .     S
Cu1147 N1175   2.016   .     S
Cu1147 O1184   1.955   .     S
Cu1147 O1187   1.956   .     S
Cu1147 Cu1148  2.682   .     S
Cu1147 O1177   1.959   .     S
Cu1148 O1185   1.955   .     S
Cu1148 N1176   2.016   .     S
Cu1148 O1181   1.959   .     S
Cu1148 O1186   1.956   .     S
Cu1148 O1182   1.960   .     S
H1149  C1010   1.087   1_655 S
H1153  C1003   1.111   1_655 S
H1173  C1726   1.111   .     S
C1189  C1192   1.446   .     S
C1189  O1243   1.293   .     A
C1189  O1248   1.290   .     A
C1190  C1192   1.399   .     A
C1190  H1235   1.083   .     S
C1190  C1607   1.387   1_545 S
C1191  C1211   1.406   .     A
C1191  C1212   1.396   .     A
C1191  C1200   1.445   .     S
C1192  C1210   1.407   .     A
C1193  H1221   1.079   .     S
C1193  N1242   1.363   .     A
C1194  H1222   1.078   .     S
C1194  N1241   1.362   .     A
C1194  C8      1.439   1_556 S
C1195  N1241   1.374   .     A
C1195  O1245   1.391   .     S
C1195  C5      1.430   1_556 S
C1196  N1242   1.376   .     A
C1196  O1246   1.399   .     S
C1197  H1237   1.113   .     S
C1197  C1198   1.521   .     S
C1197  H1236   1.113   .     S
C1197  O1254   1.413   .     S
C1198  H1240   1.110   .     S
C1198  H1238   1.110   .     S
C1199  O1244   1.412   .     S
C1199  C1201   1.520   .     S
C1199  H1216   1.114   .     S
C1199  H1217   1.116   .     S
C1200  O1249   1.290   .     A
C1200  O1247   1.292   .     A
C1201  H1218   1.111   .     S
C1201  H1220   1.111   .     S
C1201  H1351   1.111   1_455 S
C1202  H1224   1.115   .     S
C1202  H1223   1.108   .     S
C1202  O1245   1.417   .     S
C1202  C1203   1.525   .     S
C1203  H1227   1.110   .     S
C1203  H1228   1.110   .     S
C1203  H37     1.107   1_556 S
C1204  O1246   1.415   .     S
C1204  H1230   1.112   .     S
C1204  H1229   1.109   .     S
C1204  C1205   1.528   .     S
C1205  H1231   1.109   .     S
C1205  H1298   1.108   .     S
C1205  H1299   1.109   .     S
C1206  C1208   1.433   .     S
C1206  O1252   1.289   .     A
C1206  O1250   1.287   .     A
C1207  C1209   1.432   .     S
C1207  O1253   1.289   .     A
C1207  O1251   1.287   .     A
C1208  C1341   1.333   1_455 S
C1208  H1347   1.087   1_455 S
C1209  C1274   1.333   .     S
C1209  H1292   1.086   .     S
C1210  O1254   1.386   .     S
C1210  C1608   1.391   1_545 S
C1211  O1244   1.382   .     S
C1211  C1388   1.387   .     S
C1212  H1234   1.080   .     S
C1212  C1408   1.391   .     S
Cu1213 O1249   1.960   .     S
Cu1213 N1241   2.016   .     S
Cu1213 O1250   1.955   .     S
Cu1213 O1253   1.956   .     S
Cu1213 Cu1214  2.682   .     S
Cu1213 O1243   1.959   .     S
Cu1214 O1251   1.955   .     S
Cu1214 N1242   2.016   .     S
Cu1214 O1247   1.959   .     S
Cu1214 O1252   1.956   .     S
Cu1214 O1248   1.960   .     S
H1215  C1274   1.087   .     S
H1219  C1267   1.111   .     S
H1226  C1341   1.086   1_455 S
H1232  C1337   1.108   1_455 S
H1233  C1337   1.109   1_455 S
H1239  C10     1.111   1_556 S
C1255  C1258   1.446   .     S
C1255  O1309   1.293   .     A
C1255  O1314   1.290   .     A
C1256  C1258   1.399   .     A
C1256  H1301   1.083   .     S
C1256  C1673   1.387   1_545 S
C1257  C1277   1.406   .     A
C1257  C1278   1.396   .     A
C1257  C1266   1.445   .     S
C1258  C1276   1.407   .     A
C1259  H1287   1.079   .     S
C1259  N1308   1.363   .     A
C1260  H1288   1.078   .     S
C1260  N1307   1.362   .     A
C1260  C74     1.439   1_556 S
C1261  N1307   1.374   .     A
C1261  O1311   1.391   .     S
C1261  C71     1.430   1_556 S
C1262  N1308   1.376   .     A
C1262  O1312   1.399   .     S
C1263  H1303   1.113   .     S
C1263  C1264   1.521   .     S
C1263  H1302   1.113   .     S
C1263  O1320   1.413   .     S
C1264  H1306   1.110   .     S
C1264  H1304   1.110   .     S
C1265  O1310   1.412   .     S
C1265  C1267   1.520   .     S
C1265  H1282   1.114   .     S
C1265  H1283   1.116   .     S
C1266  O1315   1.290   .     A
C1266  O1313   1.292   .     A
C1267  H1284   1.111   .     S
C1267  H1286   1.111   .     S
C1268  H1290   1.115   .     S
C1268  H1289   1.108   .     S
C1268  O1311   1.417   .     S
C1268  C1269   1.525   .     S
C1269  H1293   1.110   .     S
C1269  H1294   1.110   .     S
C1269  H103    1.107   1_556 S
C1270  O1312   1.415   .     S
C1270  H1296   1.112   .     S
C1270  H1295   1.109   .     S
C1270  C1271   1.528   .     S
C1271  H1297   1.109   .     S
C1271  H1364   1.108   .     S
C1271  H1365   1.109   .     S
C1272  C1274   1.433   .     S
C1272  O1318   1.289   .     A
C1272  O1316   1.287   .     A
C1273  C1275   1.432   .     S
C1273  O1319   1.289   .     A
C1273  O1317   1.287   .     A
C1275  C1340   1.333   .     S
C1275  H1358   1.086   .     S
C1276  O1320   1.386   .     S
C1276  C1674   1.391   1_545 S
C1277  O1310   1.382   .     S
C1277  C1454   1.387   .     S
C1278  H1300   1.080   .     S
C1278  C1474   1.391   .     S
Cu1279 O1315   1.960   .     S
Cu1279 N1307   2.016   .     S
Cu1279 O1316   1.955   .     S
Cu1279 O1319   1.956   .     S
Cu1279 Cu1280  2.682   .     S
Cu1279 O1309   1.959   .     S
Cu1280 O1317   1.955   .     S
Cu1280 N1308   2.016   .     S
Cu1280 O1313   1.959   .     S
Cu1280 O1318   1.956   .     S
Cu1280 O1314   1.960   .     S
H1281  C1340   1.087   .     S
H1285  C1333   1.111   .     S
H1305  C76     1.111   1_556 S
C1321  C1324   1.446   .     S
C1321  O1375   1.293   .     A
C1321  O1380   1.290   .     A
C1322  C1324   1.399   .     A
C1322  H1367   1.083   .     S
C1322  C1739   1.387   1_545 S
C1323  C1343   1.406   .     A
C1323  C1344   1.396   .     A
C1323  C1332   1.445   .     S
C1324  C1342   1.407   .     A
C1325  H1353   1.079   .     S
C1325  N1374   1.363   .     A
C1326  H1354   1.078   .     S
C1326  N1373   1.362   .     A
C1326  C140    1.439   1_556 S
C1327  N1373   1.374   .     A
C1327  O1377   1.391   .     S
C1327  C137    1.430   1_556 S
C1328  N1374   1.376   .     A
C1328  O1378   1.399   .     S
C1329  H1369   1.113   .     S
C1329  C1330   1.521   .     S
C1329  H1368   1.113   .     S
C1329  O1386   1.413   .     S
C1330  H1372   1.110   .     S
C1330  H1370   1.110   .     S
C1331  O1376   1.412   .     S
C1331  C1333   1.520   .     S
C1331  H1348   1.114   .     S
C1331  H1349   1.116   .     S
C1332  O1381   1.290   .     A
C1332  O1379   1.292   .     A
C1333  H1350   1.111   .     S
C1333  H1352   1.111   .     S
C1334  H1356   1.115   .     S
C1334  H1355   1.108   .     S
C1334  O1377   1.417   .     S
C1334  C1335   1.525   .     S
C1335  H1359   1.110   .     S
C1335  H1360   1.110   .     S
C1335  H169    1.107   1_556 S
C1336  O1378   1.415   .     S
C1336  H1362   1.112   .     S
C1336  H1361   1.109   .     S
C1336  C1337   1.528   .     S
C1337  H1363   1.109   .     S
C1337  H1232   1.108   1_655 S
C1337  H1233   1.109   1_655 S
C1338  C1340   1.433   .     S
C1338  O1384   1.289   .     A
C1338  O1382   1.287   .     A
C1339  C1341   1.432   .     S
C1339  O1385   1.289   .     A
C1339  O1383   1.287   .     A
C1341  C1208   1.333   1_655 S
C1341  H1226   1.086   1_655 S
C1342  O1386   1.386   .     S
C1342  C1740   1.391   1_545 S
C1343  O1376   1.382   .     S
C1343  C1520   1.387   .     S
C1344  H1366   1.080   .     S
C1344  C1540   1.391   .     S
Cu1345 O1381   1.960   .     S
Cu1345 N1373   2.016   .     S
Cu1345 O1382   1.955   .     S
Cu1345 O1385   1.956   .     S
Cu1345 Cu1346  2.682   .     S
Cu1345 O1375   1.959   .     S
Cu1346 O1383   1.955   .     S
Cu1346 N1374   2.016   .     S
Cu1346 O1379   1.959   .     S
Cu1346 O1384   1.956   .     S
Cu1346 O1380   1.960   .     S
H1347  C1208   1.087   1_655 S
H1351  C1201   1.111   1_655 S
H1371  C142    1.111   1_556 S
C1387  C1390   1.446   .     S
C1387  O1441   1.293   .     A
C1387  O1446   1.290   .     A
C1388  C1390   1.399   .     A
C1388  H1433   1.083   .     S
C1389  C1409   1.406   .     A
C1389  C1410   1.396   .     A
C1389  C1398   1.445   .     S
C1390  C1408   1.407   .     A
C1391  H1419   1.079   .     S
C1391  N1440   1.363   .     A
C1392  H1420   1.078   .     S
C1392  N1439   1.362   .     A
C1392  C206    1.439   1_556 S
C1393  N1439   1.374   .     A
C1393  O1443   1.391   .     S
C1393  C203    1.430   1_556 S
C1394  N1440   1.376   .     A
C1394  O1444   1.399   .     S
C1395  H1435   1.113   .     S
C1395  C1396   1.521   .     S
C1395  H1434   1.113   .     S
C1395  O1452   1.413   .     S
C1396  H1438   1.110   .     S
C1396  H1436   1.110   .     S
C1397  O1442   1.412   .     S
C1397  C1399   1.520   .     S
C1397  H1414   1.114   .     S
C1397  H1415   1.116   .     S
C1398  O1447   1.290   .     A
C1398  O1445   1.292   .     A
C1399  H1416   1.111   .     S
C1399  H1418   1.111   .     S
C1399  H1549   1.111   1_455 S
C1400  H1422   1.115   .     S
C1400  H1421   1.108   .     S
C1400  O1443   1.417   .     S
C1400  C1401   1.525   .     S
C1401  H1425   1.110   .     S
C1401  H1426   1.110   .     S
C1401  H235    1.107   1_556 S
C1402  O1444   1.415   .     S
C1402  H1428   1.112   .     S
C1402  H1427   1.109   .     S
C1402  C1403   1.528   .     S
C1403  H1429   1.109   .     S
C1403  H1496   1.108   .     S
C1403  H1497   1.109   .     S
C1404  C1406   1.433   .     S
C1404  O1450   1.289   .     A
C1404  O1448   1.287   .     A
C1405  C1407   1.432   .     S
C1405  O1451   1.289   .     A
C1405  O1449   1.287   .     A
C1406  C1539   1.333   1_455 S
C1406  H1545   1.087   1_455 S
C1407  C1472   1.333   .     S
C1407  H1490   1.086   .     S
C1408  O1452   1.386   .     S
C1409  O1442   1.382   .     S
C1409  C1586   1.387   .     S
C1410  H1432   1.080   .     S
C1410  C1606   1.391   .     S
Cu1411 O1447   1.960   .     S
Cu1411 N1439   2.016   .     S
Cu1411 O1448   1.955   .     S
Cu1411 O1451   1.956   .     S
Cu1411 Cu1412  2.682   .     S
Cu1411 O1441   1.959   .     S
Cu1412 O1449   1.955   .     S
Cu1412 N1440   2.016   .     S
Cu1412 O1445   1.959   .     S
Cu1412 O1450   1.956   .     S
Cu1412 O1446   1.960   .     S
H1413  C1472   1.087   .     S
H1417  C1465   1.111   .     S
H1424  C1539   1.086   1_455 S
H1430  C1535   1.108   1_455 S
H1431  C1535   1.109   1_455 S
H1437  C208    1.111   1_556 S
C1453  C1456   1.446   .     S
C1453  O1507   1.293   .     A
C1453  O1512   1.290   .     A
C1454  C1456   1.399   .     A
C1454  H1499   1.083   .     S
C1455  C1475   1.406   .     A
C1455  C1476   1.396   .     A
C1455  C1464   1.445   .     S
C1456  C1474   1.407   .     A
C1457  H1485   1.079   .     S
C1457  N1506   1.363   .     A
C1458  H1486   1.078   .     S
C1458  N1505   1.362   .     A
C1458  C272    1.439   1_556 S
C1459  N1505   1.374   .     A
C1459  O1509   1.391   .     S
C1459  C269    1.430   1_556 S
C1460  N1506   1.376   .     A
C1460  O1510   1.399   .     S
C1461  H1501   1.113   .     S
C1461  C1462   1.521   .     S
C1461  H1500   1.113   .     S
C1461  O1518   1.413   .     S
C1462  H1504   1.110   .     S
C1462  H1502   1.110   .     S
C1463  O1508   1.412   .     S
C1463  C1465   1.520   .     S
C1463  H1480   1.114   .     S
C1463  H1481   1.116   .     S
C1464  O1513   1.290   .     A
C1464  O1511   1.292   .     A
C1465  H1482   1.111   .     S
C1465  H1484   1.111   .     S
C1466  H1488   1.115   .     S
C1466  H1487   1.108   .     S
C1466  O1509   1.417   .     S
C1466  C1467   1.525   .     S
C1467  H1491   1.110   .     S
C1467  H1492   1.110   .     S
C1467  H301    1.107   1_556 S
C1468  O1510   1.415   .     S
C1468  H1494   1.112   .     S
C1468  H1493   1.109   .     S
C1468  C1469   1.528   .     S
C1469  H1495   1.109   .     S
C1469  H1562   1.108   .     S
C1469  H1563   1.109   .     S
C1470  C1472   1.433   .     S
C1470  O1516   1.289   .     A
C1470  O1514   1.287   .     A
C1471  C1473   1.432   .     S
C1471  O1517   1.289   .     A
C1471  O1515   1.287   .     A
C1473  C1538   1.333   .     S
C1473  H1556   1.086   .     S
C1474  O1518   1.386   .     S
C1475  O1508   1.382   .     S
C1475  C1652   1.387   .     S
C1476  H1498   1.080   .     S
C1476  C1672   1.391   .     S
Cu1477 O1513   1.960   .     S
Cu1477 N1505   2.016   .     S
Cu1477 O1514   1.955   .     S
Cu1477 O1517   1.956   .     S
Cu1477 Cu1478  2.682   .     S
Cu1477 O1507   1.959   .     S
Cu1478 O1515   1.955   .     S
Cu1478 N1506   2.016   .     S
Cu1478 O1511   1.959   .     S
Cu1478 O1516   1.956   .     S
Cu1478 O1512   1.960   .     S
H1479  C1538   1.087   .     S
H1483  C1531   1.111   .     S
H1503  C274    1.111   1_556 S
C1519  C1522   1.446   .     S
C1519  O1573   1.293   .     A
C1519  O1578   1.290   .     A
C1520  C1522   1.399   .     A
C1520  H1565   1.083   .     S
C1521  C1541   1.406   .     A
C1521  C1542   1.396   .     A
C1521  C1530   1.445   .     S
C1522  C1540   1.407   .     A
C1523  H1551   1.079   .     S
C1523  N1572   1.363   .     A
C1524  H1552   1.078   .     S
C1524  N1571   1.362   .     A
C1524  C338    1.439   1_556 S
C1525  N1571   1.374   .     A
C1525  O1575   1.391   .     S
C1525  C335    1.430   1_556 S
C1526  N1572   1.376   .     A
C1526  O1576   1.399   .     S
C1527  H1567   1.113   .     S
C1527  C1528   1.521   .     S
C1527  H1566   1.113   .     S
C1527  O1584   1.413   .     S
C1528  H1570   1.110   .     S
C1528  H1568   1.110   .     S
C1529  O1574   1.412   .     S
C1529  C1531   1.520   .     S
C1529  H1546   1.114   .     S
C1529  H1547   1.116   .     S
C1530  O1579   1.290   .     A
C1530  O1577   1.292   .     A
C1531  H1548   1.111   .     S
C1531  H1550   1.111   .     S
C1532  H1554   1.115   .     S
C1532  H1553   1.108   .     S
C1532  O1575   1.417   .     S
C1532  C1533   1.525   .     S
C1533  H1557   1.110   .     S
C1533  H1558   1.110   .     S
C1533  H367    1.107   1_556 S
C1534  O1576   1.415   .     S
C1534  H1560   1.112   .     S
C1534  H1559   1.109   .     S
C1534  C1535   1.528   .     S
C1535  H1561   1.109   .     S
C1535  H1430   1.108   1_655 S
C1535  H1431   1.109   1_655 S
C1536  C1538   1.433   .     S
C1536  O1582   1.289   .     A
C1536  O1580   1.287   .     A
C1537  C1539   1.432   .     S
C1537  O1583   1.289   .     A
C1537  O1581   1.287   .     A
C1539  C1406   1.333   1_655 S
C1539  H1424   1.086   1_655 S
C1540  O1584   1.386   .     S
C1541  O1574   1.382   .     S
C1541  C1718   1.387   .     S
C1542  H1564   1.080   .     S
C1542  C1738   1.391   .     S
Cu1543 O1579   1.960   .     S
Cu1543 N1571   2.016   .     S
Cu1543 O1580   1.955   .     S
Cu1543 O1583   1.956   .     S
Cu1543 Cu1544  2.682   .     S
Cu1543 O1573   1.959   .     S
Cu1544 O1581   1.955   .     S
Cu1544 N1572   2.016   .     S
Cu1544 O1577   1.959   .     S
Cu1544 O1582   1.956   .     S
Cu1544 O1578   1.960   .     S
H1545  C1406   1.087   1_655 S
H1549  C1399   1.111   1_655 S
H1569  C340    1.111   1_556 S
C1585  C1588   1.446   .     S
C1585  O1639   1.293   .     A
C1585  O1644   1.290   .     A
C1586  C1588   1.399   .     A
C1586  H1631   1.083   .     S
C1587  C1607   1.406   .     A
C1587  C1608   1.396   .     A
C1587  C1596   1.445   .     S
C1588  C1606   1.407   .     A
C1589  H1617   1.079   .     S
C1589  N1638   1.363   .     A
C1590  H1618   1.078   .     S
C1590  N1637   1.362   .     A
C1590  C404    1.439   1_556 S
C1591  N1637   1.374   .     A
C1591  O1641   1.391   .     S
C1591  C401    1.430   1_556 S
C1592  N1638   1.376   .     A
C1592  O1642   1.399   .     S
C1593  H1633   1.113   .     S
C1593  C1594   1.521   .     S
C1593  H1632   1.113   .     S
C1593  O1650   1.413   .     S
C1594  H1636   1.110   .     S
C1594  H1634   1.110   .     S
C1595  O1640   1.412   .     S
C1595  C1597   1.520   .     S
C1595  H1612   1.114   .     S
C1595  H1613   1.116   .     S
C1596  O1645   1.290   .     A
C1596  O1643   1.292   .     A
C1597  H1614   1.111   .     S
C1597  H1616   1.111   .     S
C1597  H1747   1.111   1_455 S
C1598  H1620   1.115   .     S
C1598  H1619   1.108   .     S
C1598  O1641   1.417   .     S
C1598  C1599   1.525   .     S
C1599  H1623   1.110   .     S
C1599  H1624   1.110   .     S
C1599  H433    1.107   1_556 S
C1600  O1642   1.415   .     S
C1600  H1626   1.112   .     S
C1600  H1625   1.109   .     S
C1600  C1601   1.528   .     S
C1601  H1627   1.109   .     S
C1601  H1694   1.108   .     S
C1601  H1695   1.109   .     S
C1602  C1604   1.433   .     S
C1602  O1648   1.289   .     A
C1602  O1646   1.287   .     A
C1603  C1605   1.432   .     S
C1603  O1649   1.289   .     A
C1603  O1647   1.287   .     A
C1604  C1737   1.333   1_455 S
C1604  H1743   1.087   1_455 S
C1605  C1670   1.333   .     S
C1605  H1688   1.086   .     S
C1606  O1650   1.386   .     S
C1607  O1640   1.382   .     S
C1607  C1190   1.387   1_565 S
C1608  H1630   1.080   .     S
C1608  C1210   1.391   1_565 S
Cu1609 O1645   1.960   .     S
Cu1609 N1637   2.016   .     S
Cu1609 O1646   1.955   .     S
Cu1609 O1649   1.956   .     S
Cu1609 Cu1610  2.682   .     S
Cu1609 O1639   1.959   .     S
Cu1610 O1647   1.955   .     S
Cu1610 N1638   2.016   .     S
Cu1610 O1643   1.959   .     S
Cu1610 O1648   1.956   .     S
Cu1610 O1644   1.960   .     S
H1611  C1670   1.087   .     S
H1615  C1663   1.111   .     S
H1622  C1737   1.086   1_455 S
H1628  C1733   1.108   1_455 S
H1629  C1733   1.109   1_455 S
H1635  C406    1.111   1_556 S
C1651  C1654   1.446   .     S
C1651  O1705   1.293   .     A
C1651  O1710   1.290   .     A
C1652  C1654   1.399   .     A
C1652  H1697   1.083   .     S
C1653  C1673   1.406   .     A
C1653  C1674   1.396   .     A
C1653  C1662   1.445   .     S
C1654  C1672   1.407   .     A
C1655  H1683   1.079   .     S
C1655  N1704   1.363   .     A
C1656  H1684   1.078   .     S
C1656  N1703   1.362   .     A
C1656  C470    1.439   1_556 S
C1657  N1703   1.374   .     A
C1657  O1707   1.391   .     S
C1657  C467    1.430   1_556 S
C1658  N1704   1.376   .     A
C1658  O1708   1.399   .     S
C1659  H1699   1.113   .     S
C1659  C1660   1.521   .     S
C1659  H1698   1.113   .     S
C1659  O1716   1.413   .     S
C1660  H1702   1.110   .     S
C1660  H1700   1.110   .     S
C1661  O1706   1.412   .     S
C1661  C1663   1.520   .     S
C1661  H1678   1.114   .     S
C1661  H1679   1.116   .     S
C1662  O1711   1.290   .     A
C1662  O1709   1.292   .     A
C1663  H1680   1.111   .     S
C1663  H1682   1.111   .     S
C1664  H1686   1.115   .     S
C1664  H1685   1.108   .     S
C1664  O1707   1.417   .     S
C1664  C1665   1.525   .     S
C1665  H1689   1.110   .     S
C1665  H1690   1.110   .     S
C1665  H499    1.107   1_556 S
C1666  O1708   1.415   .     S
C1666  H1692   1.112   .     S
C1666  H1691   1.109   .     S
C1666  C1667   1.528   .     S
C1667  H1693   1.109   .     S
C1667  H1760   1.108   .     S
C1667  H1761   1.109   .     S
C1668  C1670   1.433   .     S
C1668  O1714   1.289   .     A
C1668  O1712   1.287   .     A
C1669  C1671   1.432   .     S
C1669  O1715   1.289   .     A
C1669  O1713   1.287   .     A
C1671  C1736   1.333   .     S
C1671  H1754   1.086   .     S
C1672  O1716   1.386   .     S
C1673  O1706   1.382   .     S
C1673  C1256   1.387   1_565 S
C1674  H1696   1.080   .     S
C1674  C1276   1.391   1_565 S
Cu1675 O1711   1.960   .     S
Cu1675 N1703   2.016   .     S
Cu1675 O1712   1.955   .     S
Cu1675 O1715   1.956   .     S
Cu1675 Cu1676  2.682   .     S
Cu1675 O1705   1.959   .     S
Cu1676 O1713   1.955   .     S
Cu1676 N1704   2.016   .     S
Cu1676 O1709   1.959   .     S
Cu1676 O1714   1.956   .     S
Cu1676 O1710   1.960   .     S
H1677  C1736   1.087   .     S
H1681  C1729   1.111   .     S
H1701  C472    1.111   1_556 S
C1717  C1720   1.446   .     S
C1717  O1771   1.293   .     A
C1717  O1776   1.290   .     A
C1718  C1720   1.399   .     A
C1718  H1763   1.083   .     S
C1719  C1739   1.406   .     A
C1719  C1740   1.396   .     A
C1719  C1728   1.445   .     S
C1720  C1738   1.407   .     A
C1721  H1749   1.079   .     S
C1721  N1770   1.363   .     A
C1722  H1750   1.078   .     S
C1722  N1769   1.362   .     A
C1722  C536    1.439   1_556 S
C1723  N1769   1.374   .     A
C1723  O1773   1.391   .     S
C1723  C533    1.430   1_556 S
C1724  N1770   1.376   .     A
C1724  O1774   1.399   .     S
C1725  H1765   1.113   .     S
C1725  C1726   1.521   .     S
C1725  H1764   1.113   .     S
C1725  O1782   1.413   .     S
C1726  H1768   1.110   .     S
C1726  H1766   1.110   .     S
C1727  O1772   1.412   .     S
C1727  C1729   1.520   .     S
C1727  H1744   1.114   .     S
C1727  H1745   1.116   .     S
C1728  O1777   1.290   .     A
C1728  O1775   1.292   .     A
C1729  H1746   1.111   .     S
C1729  H1748   1.111   .     S
C1730  H1752   1.115   .     S
C1730  H1751   1.108   .     S
C1730  O1773   1.417   .     S
C1730  C1731   1.525   .     S
C1731  H1755   1.110   .     S
C1731  H1756   1.110   .     S
C1731  H565    1.107   1_556 S
C1732  O1774   1.415   .     S
C1732  H1758   1.112   .     S
C1732  H1757   1.109   .     S
C1732  C1733   1.528   .     S
C1733  H1759   1.109   .     S
C1733  H1628   1.108   1_655 S
C1733  H1629   1.109   1_655 S
C1734  C1736   1.433   .     S
C1734  O1780   1.289   .     A
C1734  O1778   1.287   .     A
C1735  C1737   1.432   .     S
C1735  O1781   1.289   .     A
C1735  O1779   1.287   .     A
C1737  C1604   1.333   1_655 S
C1737  H1622   1.086   1_655 S
C1738  O1782   1.386   .     S
C1739  O1772   1.382   .     S
C1739  C1322   1.387   1_565 S
C1740  H1762   1.080   .     S
C1740  C1342   1.391   1_565 S
Cu1741 O1777   1.960   .     S
Cu1741 N1769   2.016   .     S
Cu1741 O1778   1.955   .     S
Cu1741 O1781   1.956   .     S
Cu1741 Cu1742  2.682   .     S
Cu1741 O1771   1.959   .     S
Cu1742 O1779   1.955   .     S
Cu1742 N1770   2.016   .     S
Cu1742 O1775   1.959   .     S
Cu1742 O1780   1.956   .     S
Cu1742 O1776   1.960   .     S
H1743  C1604   1.087   1_655 S
H1747  C1597   1.111   1_655 S
H1767  C538    1.111   1_556 S
