data_str_m2_o1_o16_pcu_sym.142
_audit_creation_date              2020-01-03
_audit_creation_method            'Materials Studio'
_symmetry_space_group_name_H-M    'P1'
_symmetry_Int_Tables_number       1
_symmetry_cell_setting            triclinic
loop_
_symmetry_equiv_pos_as_xyz
  x,y,z
_cell_length_a                    28.7197
_cell_length_b                    32.5248
_cell_length_c                    26.8473
_cell_angle_alpha                 91.3065
_cell_angle_beta                  72.9558
_cell_angle_gamma                 88.8471
loop_
_atom_site_label
_atom_site_type_symbol
_atom_site_fract_x
_atom_site_fract_y
_atom_site_fract_z
_atom_site_U_iso_or_equiv
_atom_site_adp_type
_atom_site_occupancy
C1     C     0.16795   0.24536   0.24327   0.00000  Uiso   1.00
C2     C     0.14375   0.16517   0.49013   0.00000  Uiso   1.00
C3     C     0.15353   0.15244   0.43716   0.00000  Uiso   1.00
C4     C     0.17856   0.15513   0.01660   0.00000  Uiso   1.00
C5     C     0.21987   0.12954   0.49137   0.00000  Uiso   1.00
C6     C     0.22511   0.11302   0.44149   0.00000  Uiso   1.00
C7     C     0.19203   0.12406   0.41516   0.00000  Uiso   1.00
C8     C     0.17380   0.16999   0.06733   0.00000  Uiso   1.00
C9     C     0.24848   0.13426   0.06779   0.00000  Uiso   1.00
C10    C     0.12423   0.16810   0.40743   0.00000  Uiso   1.00
C11    C     0.21420   0.30946   0.22676   0.00000  Uiso   1.00
C12    C     0.14049   0.16593   0.35003   0.00000  Uiso   1.00
C13    C     0.21291   0.01767   0.24238   0.00000  Uiso   1.00
C14    C     0.16990   0.04176   0.24593   0.00000  Uiso   1.00
C15    C     0.12933   0.02241   0.23809   0.00000  Uiso   1.00
C16    C     0.12876   0.31335   0.23139   0.00000  Uiso   1.00
C17    C     0.17002   0.28960   0.23273   0.00000  Uiso   1.00
C18    C     0.29890   0.18872   0.28821   0.00000  Uiso   1.00
C19    C     0.01488   0.18690   0.28823   0.00000  Uiso   1.00
C20    C     0.03569   0.14698   0.21105   0.00000  Uiso   1.00
C21    C     0.31964   0.14717   0.21095   0.00000  Uiso   1.00
C22    C     0.16732   0.08708   0.25030   0.00000  Uiso   1.00
C23    C     0.19269   0.16542   0.15012   0.00000  Uiso   1.00
C24    C     0.25492   0.12018   0.01680   0.00000  Uiso   1.00
C25    C     0.20698   0.15824   0.09367   0.00000  Uiso   1.00
C26    C     0.08097   0.19022   0.43257   0.00000  Uiso   1.00
C27    C     0.06824   0.19879   0.48581   0.00000  Uiso   1.00
C28    C     0.09955   0.18733   0.01429   0.00000  Uiso   1.00
Cu29   Cu    0.11978   0.16666   0.25000   0.00000  Uiso   1.00
Cu30   Cu    0.21355   0.16667   0.25000   0.00000  Uiso   1.00
H31    H     0.09741   0.04038   0.23733   0.00000  Uiso   1.00
H32    H     0.06296   0.13085   0.17983   0.00000  Uiso   1.00
H33    H     0.31012   0.13165   0.17944   0.00000  Uiso   1.00
H34    H     0.28667   0.10090   0.49785   0.00000  Uiso   1.00
H35    H     0.14391   0.19020   0.08809   0.00000  Uiso   1.00
H36    H     0.05755   0.20201   0.41081   0.00000  Uiso   1.00
H37    H     0.08752   0.19561   0.05523   0.00000  Uiso   1.00
H38    H     0.03462   0.21571   0.00485   0.00000  Uiso   1.00
H39    H     0.19671   0.11021   0.37722   0.00000  Uiso   1.00
N40    N     0.04931   0.16666   0.24998   0.00000  Uiso   1.00
N41    N     0.28402   0.16669   0.25000   0.00000  Uiso   1.00
O42    O     0.12708   0.22678   0.25001   0.00000  Uiso   1.00
O43    O     0.20627   0.22679   0.25001   0.00000  Uiso   1.00
O44    O     0.10775   0.16665   0.32549   0.00000  Uiso   1.00
O45    O     0.18694   0.16666   0.32549   0.00000  Uiso   1.00
O46    O     0.12706   0.10654   0.25000   0.00000  Uiso   1.00
O47    O     0.20625   0.10655   0.25000   0.00000  Uiso   1.00
O48    O     0.14640   0.16667   0.17451   0.00000  Uiso   1.00
O49    O     0.22559   0.16668   0.17451   0.00000  Uiso   1.00
F50    F     0.28110   0.12218   0.09266   0.00000  Uiso   1.00
S51    S     0.26275   0.03534   0.26315   0.00000  Uiso   1.00
O52    O     0.24585   0.06523   0.30852   0.00000  Uiso   1.00
O53    O     0.28794   0.33304   0.28004   0.00000  Uiso   1.00
O54    O     0.30262   0.05793   0.21349   0.00000  Uiso   1.00
H55    H     0.33221   0.06108   0.22488   0.00000  Uiso   1.00
S56    S     0.07864   0.29281   0.21444   0.00000  Uiso   1.00
O57    O     0.04304   0.27751   0.26279   0.00000  Uiso   1.00
O58    O     0.05414   0.32564   0.19180   0.00000  Uiso   1.00
O59    O     0.09726   0.25399   0.17004   0.00000  Uiso   1.00
H60    H     0.06692   0.24120   0.16770   0.00000  Uiso   1.00
S61    S     0.26187   0.22113   0.34106   0.00000  Uiso   1.00
O62    O     0.21440   0.23797   0.33679   0.00000  Uiso   1.00
O63    O     0.25241   0.19729   0.39006   0.00000  Uiso   1.00
O64    O     0.29420   0.26223   0.34830   0.00000  Uiso   1.00
H65    H     0.27650   0.27471   0.38284   0.00000  Uiso   1.00
F66    F     0.02885   0.20616   0.32657   0.00000  Uiso   1.00
F67    F     0.26280   0.08671   0.41763   0.00000  Uiso   1.00
S68    S     0.26911   0.28627   0.18514   0.00000  Uiso   1.00
O69    O     0.29681   0.26457   0.21677   0.00000  Uiso   1.00
O70    O     0.25708   0.25557   0.14835   0.00000  Uiso   1.00
O71    O     0.30408   0.32230   0.14974   0.00000  Uiso   1.00
H72    H     0.33116   0.30671   0.12448   0.00000  Uiso   1.00
C73    C     0.50129   0.24536   0.24327   0.00000  Uiso   1.00
C74    C     0.47708   0.16517   0.49013   0.00000  Uiso   1.00
C75    C     0.48687   0.15244   0.43716   0.00000  Uiso   1.00
C76    C     0.51190   0.15513   0.01660   0.00000  Uiso   1.00
C77    C     0.55320   0.12954   0.49137   0.00000  Uiso   1.00
C78    C     0.55844   0.11302   0.44149   0.00000  Uiso   1.00
C79    C     0.52536   0.12406   0.41516   0.00000  Uiso   1.00
C80    C     0.50713   0.16999   0.06733   0.00000  Uiso   1.00
C81    C     0.58181   0.13426   0.06779   0.00000  Uiso   1.00
C82    C     0.45757   0.16810   0.40743   0.00000  Uiso   1.00
C83    C     0.54753   0.30946   0.22676   0.00000  Uiso   1.00
C84    C     0.47382   0.16593   0.35003   0.00000  Uiso   1.00
C85    C     0.54624   0.01767   0.24238   0.00000  Uiso   1.00
C86    C     0.50324   0.04176   0.24593   0.00000  Uiso   1.00
C87    C     0.46266   0.02241   0.23809   0.00000  Uiso   1.00
C88    C     0.46209   0.31335   0.23139   0.00000  Uiso   1.00
C89    C     0.50335   0.28960   0.23273   0.00000  Uiso   1.00
C90    C     0.63223   0.18872   0.28821   0.00000  Uiso   1.00
C91    C     0.34821   0.18690   0.28823   0.00000  Uiso   1.00
C92    C     0.36903   0.14698   0.21105   0.00000  Uiso   1.00
C93    C     0.65297   0.14717   0.21095   0.00000  Uiso   1.00
C94    C     0.50065   0.08708   0.25030   0.00000  Uiso   1.00
C95    C     0.52602   0.16542   0.15012   0.00000  Uiso   1.00
C96    C     0.58825   0.12018   0.01680   0.00000  Uiso   1.00
C97    C     0.54031   0.15824   0.09367   0.00000  Uiso   1.00
C98    C     0.41430   0.19022   0.43257   0.00000  Uiso   1.00
C99    C     0.40157   0.19879   0.48581   0.00000  Uiso   1.00
C100   C     0.43288   0.18733   0.01429   0.00000  Uiso   1.00
Cu101  Cu    0.45311   0.16666   0.25000   0.00000  Uiso   1.00
Cu102  Cu    0.54689   0.16667   0.25000   0.00000  Uiso   1.00
H103   H     0.43074   0.04038   0.23733   0.00000  Uiso   1.00
H104   H     0.39629   0.13085   0.17983   0.00000  Uiso   1.00
H105   H     0.64346   0.13165   0.17944   0.00000  Uiso   1.00
H106   H     0.62000   0.10090   0.49785   0.00000  Uiso   1.00
H107   H     0.47725   0.19020   0.08809   0.00000  Uiso   1.00
H108   H     0.39088   0.20201   0.41081   0.00000  Uiso   1.00
H109   H     0.42085   0.19561   0.05523   0.00000  Uiso   1.00
H110   H     0.36796   0.21571   0.00485   0.00000  Uiso   1.00
H111   H     0.53005   0.11021   0.37722   0.00000  Uiso   1.00
N112   N     0.38265   0.16666   0.24998   0.00000  Uiso   1.00
N113   N     0.61735   0.16669   0.25000   0.00000  Uiso   1.00
O114   O     0.46042   0.22678   0.25001   0.00000  Uiso   1.00
O115   O     0.53961   0.22679   0.25001   0.00000  Uiso   1.00
O116   O     0.44108   0.16665   0.32549   0.00000  Uiso   1.00
O117   O     0.52027   0.16666   0.32549   0.00000  Uiso   1.00
O118   O     0.46039   0.10654   0.25000   0.00000  Uiso   1.00
O119   O     0.53958   0.10655   0.25000   0.00000  Uiso   1.00
O120   O     0.47973   0.16667   0.17451   0.00000  Uiso   1.00
O121   O     0.55892   0.16668   0.17451   0.00000  Uiso   1.00
F122   F     0.61444   0.12218   0.09266   0.00000  Uiso   1.00
S123   S     0.59608   0.03534   0.26315   0.00000  Uiso   1.00
O124   O     0.57918   0.06523   0.30852   0.00000  Uiso   1.00
O125   O     0.62127   0.33304   0.28004   0.00000  Uiso   1.00
O126   O     0.63595   0.05793   0.21349   0.00000  Uiso   1.00
H127   H     0.66555   0.06108   0.22488   0.00000  Uiso   1.00
S128   S     0.41198   0.29281   0.21444   0.00000  Uiso   1.00
O129   O     0.37637   0.27751   0.26279   0.00000  Uiso   1.00
O130   O     0.38747   0.32564   0.19180   0.00000  Uiso   1.00
O131   O     0.43059   0.25399   0.17004   0.00000  Uiso   1.00
H132   H     0.40026   0.24120   0.16770   0.00000  Uiso   1.00
S133   S     0.59520   0.22113   0.34106   0.00000  Uiso   1.00
O134   O     0.54773   0.23797   0.33679   0.00000  Uiso   1.00
O135   O     0.58574   0.19729   0.39006   0.00000  Uiso   1.00
O136   O     0.62754   0.26223   0.34830   0.00000  Uiso   1.00
H137   H     0.60984   0.27471   0.38284   0.00000  Uiso   1.00
F138   F     0.36218   0.20616   0.32657   0.00000  Uiso   1.00
F139   F     0.59614   0.08671   0.41763   0.00000  Uiso   1.00
S140   S     0.60244   0.28627   0.18514   0.00000  Uiso   1.00
O141   O     0.63015   0.26457   0.21677   0.00000  Uiso   1.00
O142   O     0.59041   0.25557   0.14835   0.00000  Uiso   1.00
O143   O     0.63741   0.32230   0.14974   0.00000  Uiso   1.00
H144   H     0.66450   0.30671   0.12448   0.00000  Uiso   1.00
C145   C     0.83462   0.24536   0.24327   0.00000  Uiso   1.00
C146   C     0.81041   0.16517   0.49013   0.00000  Uiso   1.00
C147   C     0.82020   0.15244   0.43716   0.00000  Uiso   1.00
C148   C     0.84523   0.15513   0.01660   0.00000  Uiso   1.00
C149   C     0.88654   0.12954   0.49137   0.00000  Uiso   1.00
C150   C     0.89178   0.11302   0.44149   0.00000  Uiso   1.00
C151   C     0.85870   0.12406   0.41516   0.00000  Uiso   1.00
C152   C     0.84047   0.16999   0.06733   0.00000  Uiso   1.00
C153   C     0.91514   0.13426   0.06779   0.00000  Uiso   1.00
C154   C     0.79090   0.16810   0.40743   0.00000  Uiso   1.00
C155   C     0.88087   0.30946   0.22676   0.00000  Uiso   1.00
C156   C     0.80715   0.16593   0.35003   0.00000  Uiso   1.00
C157   C     0.87958   0.01767   0.24238   0.00000  Uiso   1.00
C158   C     0.83657   0.04176   0.24593   0.00000  Uiso   1.00
C159   C     0.79599   0.02241   0.23809   0.00000  Uiso   1.00
C160   C     0.79543   0.31335   0.23139   0.00000  Uiso   1.00
C161   C     0.83668   0.28960   0.23273   0.00000  Uiso   1.00
C162   C     0.96557   0.18872   0.28821   0.00000  Uiso   1.00
C163   C     0.68155   0.18690   0.28823   0.00000  Uiso   1.00
C164   C     0.70236   0.14698   0.21105   0.00000  Uiso   1.00
C165   C     0.98630   0.14717   0.21095   0.00000  Uiso   1.00
C166   C     0.83398   0.08708   0.25030   0.00000  Uiso   1.00
C167   C     0.85936   0.16542   0.15012   0.00000  Uiso   1.00
C168   C     0.92159   0.12018   0.01680   0.00000  Uiso   1.00
C169   C     0.87364   0.15824   0.09367   0.00000  Uiso   1.00
C170   C     0.74764   0.19022   0.43257   0.00000  Uiso   1.00
C171   C     0.73490   0.19879   0.48581   0.00000  Uiso   1.00
C172   C     0.76621   0.18733   0.01429   0.00000  Uiso   1.00
Cu173  Cu    0.78645   0.16666   0.25000   0.00000  Uiso   1.00
Cu174  Cu    0.88022   0.16667   0.25000   0.00000  Uiso   1.00
H175   H     0.76408   0.04038   0.23733   0.00000  Uiso   1.00
H176   H     0.72962   0.13085   0.17983   0.00000  Uiso   1.00
H177   H     0.97679   0.13165   0.17944   0.00000  Uiso   1.00
H178   H     0.95333   0.10090   0.49785   0.00000  Uiso   1.00
H179   H     0.81058   0.19020   0.08809   0.00000  Uiso   1.00
H180   H     0.72421   0.20201   0.41081   0.00000  Uiso   1.00
H181   H     0.75418   0.19561   0.05523   0.00000  Uiso   1.00
H182   H     0.70129   0.21571   0.00485   0.00000  Uiso   1.00
H183   H     0.86338   0.11021   0.37722   0.00000  Uiso   1.00
N184   N     0.71598   0.16666   0.24998   0.00000  Uiso   1.00
N185   N     0.95069   0.16669   0.25000   0.00000  Uiso   1.00
O186   O     0.79375   0.22678   0.25001   0.00000  Uiso   1.00
O187   O     0.87294   0.22679   0.25001   0.00000  Uiso   1.00
O188   O     0.77441   0.16665   0.32549   0.00000  Uiso   1.00
O189   O     0.85360   0.16666   0.32549   0.00000  Uiso   1.00
O190   O     0.79373   0.10654   0.25000   0.00000  Uiso   1.00
O191   O     0.87292   0.10655   0.25000   0.00000  Uiso   1.00
O192   O     0.81306   0.16667   0.17451   0.00000  Uiso   1.00
O193   O     0.89225   0.16668   0.17451   0.00000  Uiso   1.00
F194   F     0.94777   0.12218   0.09266   0.00000  Uiso   1.00
S195   S     0.92942   0.03534   0.26315   0.00000  Uiso   1.00
O196   O     0.91252   0.06523   0.30852   0.00000  Uiso   1.00
O197   O     0.95461   0.33304   0.28004   0.00000  Uiso   1.00
O198   O     0.96928   0.05793   0.21349   0.00000  Uiso   1.00
H199   H     0.99888   0.06108   0.22488   0.00000  Uiso   1.00
S200   S     0.74531   0.29281   0.21444   0.00000  Uiso   1.00
O201   O     0.70971   0.27751   0.26279   0.00000  Uiso   1.00
O202   O     0.72080   0.32564   0.19180   0.00000  Uiso   1.00
O203   O     0.76392   0.25399   0.17004   0.00000  Uiso   1.00
H204   H     0.73359   0.24120   0.16770   0.00000  Uiso   1.00
S205   S     0.92853   0.22113   0.34106   0.00000  Uiso   1.00
O206   O     0.88107   0.23797   0.33679   0.00000  Uiso   1.00
O207   O     0.91908   0.19729   0.39006   0.00000  Uiso   1.00
O208   O     0.96087   0.26223   0.34830   0.00000  Uiso   1.00
H209   H     0.94317   0.27471   0.38284   0.00000  Uiso   1.00
F210   F     0.69551   0.20616   0.32657   0.00000  Uiso   1.00
F211   F     0.92947   0.08671   0.41763   0.00000  Uiso   1.00
S212   S     0.93577   0.28627   0.18514   0.00000  Uiso   1.00
O213   O     0.96348   0.26457   0.21677   0.00000  Uiso   1.00
O214   O     0.92374   0.25557   0.14835   0.00000  Uiso   1.00
O215   O     0.97074   0.32230   0.14974   0.00000  Uiso   1.00
H216   H     0.99783   0.30671   0.12448   0.00000  Uiso   1.00
C217   C     0.16795   0.57870   0.24327   0.00000  Uiso   1.00
C218   C     0.14375   0.49851   0.49013   0.00000  Uiso   1.00
C219   C     0.15353   0.48577   0.43716   0.00000  Uiso   1.00
C220   C     0.17856   0.48847   0.01660   0.00000  Uiso   1.00
C221   C     0.21987   0.46287   0.49137   0.00000  Uiso   1.00
C222   C     0.22511   0.44636   0.44149   0.00000  Uiso   1.00
C223   C     0.19203   0.45740   0.41516   0.00000  Uiso   1.00
C224   C     0.17380   0.50332   0.06733   0.00000  Uiso   1.00
C225   C     0.24848   0.46759   0.06779   0.00000  Uiso   1.00
C226   C     0.12423   0.50144   0.40743   0.00000  Uiso   1.00
C227   C     0.21420   0.64280   0.22676   0.00000  Uiso   1.00
C228   C     0.14049   0.49927   0.35003   0.00000  Uiso   1.00
C229   C     0.21291   0.35100   0.24238   0.00000  Uiso   1.00
C230   C     0.16990   0.37510   0.24593   0.00000  Uiso   1.00
C231   C     0.12933   0.35574   0.23809   0.00000  Uiso   1.00
C232   C     0.12876   0.64668   0.23139   0.00000  Uiso   1.00
C233   C     0.17002   0.62294   0.23273   0.00000  Uiso   1.00
C234   C     0.29890   0.52205   0.28821   0.00000  Uiso   1.00
C235   C     0.01488   0.52023   0.28823   0.00000  Uiso   1.00
C236   C     0.03569   0.48031   0.21105   0.00000  Uiso   1.00
C237   C     0.31964   0.48051   0.21095   0.00000  Uiso   1.00
C238   C     0.16732   0.42041   0.25030   0.00000  Uiso   1.00
C239   C     0.19269   0.49875   0.15012   0.00000  Uiso   1.00
C240   C     0.25492   0.45352   0.01680   0.00000  Uiso   1.00
C241   C     0.20698   0.49158   0.09367   0.00000  Uiso   1.00
C242   C     0.08097   0.52355   0.43257   0.00000  Uiso   1.00
C243   C     0.06824   0.53213   0.48581   0.00000  Uiso   1.00
C244   C     0.09955   0.52066   0.01429   0.00000  Uiso   1.00
Cu245  Cu    0.11978   0.49999   0.25000   0.00000  Uiso   1.00
Cu246  Cu    0.21355   0.50001   0.25000   0.00000  Uiso   1.00
H247   H     0.09741   0.37371   0.23733   0.00000  Uiso   1.00
H248   H     0.06296   0.46419   0.17983   0.00000  Uiso   1.00
H249   H     0.31012   0.46498   0.17944   0.00000  Uiso   1.00
H250   H     0.28667   0.43424   0.49785   0.00000  Uiso   1.00
H251   H     0.14391   0.52354   0.08809   0.00000  Uiso   1.00
H252   H     0.05755   0.53535   0.41081   0.00000  Uiso   1.00
H253   H     0.08752   0.52894   0.05523   0.00000  Uiso   1.00
H254   H     0.03462   0.54904   0.00485   0.00000  Uiso   1.00
H255   H     0.19671   0.44354   0.37722   0.00000  Uiso   1.00
N256   N     0.04931   0.49999   0.24998   0.00000  Uiso   1.00
N257   N     0.28402   0.50002   0.25000   0.00000  Uiso   1.00
O258   O     0.12708   0.56011   0.25001   0.00000  Uiso   1.00
O259   O     0.20627   0.56012   0.25001   0.00000  Uiso   1.00
O260   O     0.10775   0.49998   0.32549   0.00000  Uiso   1.00
O261   O     0.18694   0.49999   0.32549   0.00000  Uiso   1.00
O262   O     0.12706   0.43988   0.25000   0.00000  Uiso   1.00
O263   O     0.20625   0.43989   0.25000   0.00000  Uiso   1.00
O264   O     0.14640   0.50001   0.17451   0.00000  Uiso   1.00
O265   O     0.22559   0.50002   0.17451   0.00000  Uiso   1.00
F266   F     0.28110   0.45552   0.09266   0.00000  Uiso   1.00
S267   S     0.26275   0.36867   0.26315   0.00000  Uiso   1.00
O268   O     0.24585   0.39857   0.30852   0.00000  Uiso   1.00
O269   O     0.28794   0.66638   0.28004   0.00000  Uiso   1.00
O270   O     0.30262   0.39127   0.21349   0.00000  Uiso   1.00
H271   H     0.33221   0.39441   0.22488   0.00000  Uiso   1.00
S272   S     0.07864   0.62614   0.21444   0.00000  Uiso   1.00
O273   O     0.04304   0.61085   0.26279   0.00000  Uiso   1.00
O274   O     0.05414   0.65897   0.19180   0.00000  Uiso   1.00
O275   O     0.09726   0.58732   0.17004   0.00000  Uiso   1.00
H276   H     0.06692   0.57453   0.16770   0.00000  Uiso   1.00
S277   S     0.26187   0.55446   0.34106   0.00000  Uiso   1.00
O278   O     0.21440   0.57131   0.33679   0.00000  Uiso   1.00
O279   O     0.25241   0.53062   0.39006   0.00000  Uiso   1.00
O280   O     0.29420   0.59556   0.34830   0.00000  Uiso   1.00
H281   H     0.27650   0.60804   0.38284   0.00000  Uiso   1.00
F282   F     0.02885   0.53949   0.32657   0.00000  Uiso   1.00
F283   F     0.26280   0.42005   0.41763   0.00000  Uiso   1.00
S284   S     0.26911   0.61960   0.18514   0.00000  Uiso   1.00
O285   O     0.29681   0.59791   0.21677   0.00000  Uiso   1.00
O286   O     0.25708   0.58890   0.14835   0.00000  Uiso   1.00
O287   O     0.30408   0.65563   0.14974   0.00000  Uiso   1.00
H288   H     0.33116   0.64004   0.12448   0.00000  Uiso   1.00
C289   C     0.50129   0.57870   0.24327   0.00000  Uiso   1.00
C290   C     0.47708   0.49851   0.49013   0.00000  Uiso   1.00
C291   C     0.48687   0.48577   0.43716   0.00000  Uiso   1.00
C292   C     0.51190   0.48847   0.01660   0.00000  Uiso   1.00
C293   C     0.55320   0.46287   0.49137   0.00000  Uiso   1.00
C294   C     0.55844   0.44636   0.44149   0.00000  Uiso   1.00
C295   C     0.52536   0.45740   0.41516   0.00000  Uiso   1.00
C296   C     0.50713   0.50332   0.06733   0.00000  Uiso   1.00
C297   C     0.58181   0.46759   0.06779   0.00000  Uiso   1.00
C298   C     0.45757   0.50144   0.40743   0.00000  Uiso   1.00
C299   C     0.54753   0.64280   0.22676   0.00000  Uiso   1.00
C300   C     0.47382   0.49927   0.35003   0.00000  Uiso   1.00
C301   C     0.54624   0.35100   0.24238   0.00000  Uiso   1.00
C302   C     0.50324   0.37510   0.24593   0.00000  Uiso   1.00
C303   C     0.46266   0.35574   0.23809   0.00000  Uiso   1.00
C304   C     0.46209   0.64668   0.23139   0.00000  Uiso   1.00
C305   C     0.50335   0.62294   0.23273   0.00000  Uiso   1.00
C306   C     0.63223   0.52205   0.28821   0.00000  Uiso   1.00
C307   C     0.34821   0.52023   0.28823   0.00000  Uiso   1.00
C308   C     0.36903   0.48031   0.21105   0.00000  Uiso   1.00
C309   C     0.65297   0.48051   0.21095   0.00000  Uiso   1.00
C310   C     0.50065   0.42041   0.25030   0.00000  Uiso   1.00
C311   C     0.52602   0.49875   0.15012   0.00000  Uiso   1.00
C312   C     0.58825   0.45352   0.01680   0.00000  Uiso   1.00
C313   C     0.54031   0.49158   0.09367   0.00000  Uiso   1.00
C314   C     0.41430   0.52355   0.43257   0.00000  Uiso   1.00
C315   C     0.40157   0.53213   0.48581   0.00000  Uiso   1.00
C316   C     0.43288   0.52066   0.01429   0.00000  Uiso   1.00
Cu317  Cu    0.45311   0.49999   0.25000   0.00000  Uiso   1.00
Cu318  Cu    0.54689   0.50001   0.25000   0.00000  Uiso   1.00
H319   H     0.43074   0.37371   0.23733   0.00000  Uiso   1.00
H320   H     0.39629   0.46419   0.17983   0.00000  Uiso   1.00
H321   H     0.64346   0.46498   0.17944   0.00000  Uiso   1.00
H322   H     0.62000   0.43424   0.49785   0.00000  Uiso   1.00
H323   H     0.47725   0.52354   0.08809   0.00000  Uiso   1.00
H324   H     0.39088   0.53535   0.41081   0.00000  Uiso   1.00
H325   H     0.42085   0.52894   0.05523   0.00000  Uiso   1.00
H326   H     0.36796   0.54904   0.00485   0.00000  Uiso   1.00
H327   H     0.53005   0.44354   0.37722   0.00000  Uiso   1.00
N328   N     0.38265   0.49999   0.24998   0.00000  Uiso   1.00
N329   N     0.61735   0.50002   0.25000   0.00000  Uiso   1.00
O330   O     0.46042   0.56011   0.25001   0.00000  Uiso   1.00
O331   O     0.53961   0.56012   0.25001   0.00000  Uiso   1.00
O332   O     0.44108   0.49998   0.32549   0.00000  Uiso   1.00
O333   O     0.52027   0.49999   0.32549   0.00000  Uiso   1.00
O334   O     0.46039   0.43988   0.25000   0.00000  Uiso   1.00
O335   O     0.53958   0.43989   0.25000   0.00000  Uiso   1.00
O336   O     0.47973   0.50001   0.17451   0.00000  Uiso   1.00
O337   O     0.55892   0.50002   0.17451   0.00000  Uiso   1.00
F338   F     0.61444   0.45552   0.09266   0.00000  Uiso   1.00
S339   S     0.59608   0.36867   0.26315   0.00000  Uiso   1.00
O340   O     0.57918   0.39857   0.30852   0.00000  Uiso   1.00
O341   O     0.62127   0.66638   0.28004   0.00000  Uiso   1.00
O342   O     0.63595   0.39127   0.21349   0.00000  Uiso   1.00
H343   H     0.66555   0.39441   0.22488   0.00000  Uiso   1.00
S344   S     0.41198   0.62614   0.21444   0.00000  Uiso   1.00
O345   O     0.37637   0.61085   0.26279   0.00000  Uiso   1.00
O346   O     0.38747   0.65897   0.19180   0.00000  Uiso   1.00
O347   O     0.43059   0.58732   0.17004   0.00000  Uiso   1.00
H348   H     0.40026   0.57453   0.16770   0.00000  Uiso   1.00
S349   S     0.59520   0.55446   0.34106   0.00000  Uiso   1.00
O350   O     0.54773   0.57131   0.33679   0.00000  Uiso   1.00
O351   O     0.58574   0.53062   0.39006   0.00000  Uiso   1.00
O352   O     0.62754   0.59556   0.34830   0.00000  Uiso   1.00
H353   H     0.60984   0.60804   0.38284   0.00000  Uiso   1.00
F354   F     0.36218   0.53949   0.32657   0.00000  Uiso   1.00
F355   F     0.59614   0.42005   0.41763   0.00000  Uiso   1.00
S356   S     0.60244   0.61960   0.18514   0.00000  Uiso   1.00
O357   O     0.63015   0.59791   0.21677   0.00000  Uiso   1.00
O358   O     0.59041   0.58890   0.14835   0.00000  Uiso   1.00
O359   O     0.63741   0.65563   0.14974   0.00000  Uiso   1.00
H360   H     0.66450   0.64004   0.12448   0.00000  Uiso   1.00
C361   C     0.83462   0.57870   0.24327   0.00000  Uiso   1.00
C362   C     0.81041   0.49851   0.49013   0.00000  Uiso   1.00
C363   C     0.82020   0.48577   0.43716   0.00000  Uiso   1.00
C364   C     0.84523   0.48847   0.01660   0.00000  Uiso   1.00
C365   C     0.88654   0.46287   0.49137   0.00000  Uiso   1.00
C366   C     0.89178   0.44636   0.44149   0.00000  Uiso   1.00
C367   C     0.85870   0.45740   0.41516   0.00000  Uiso   1.00
C368   C     0.84047   0.50332   0.06733   0.00000  Uiso   1.00
C369   C     0.91514   0.46759   0.06779   0.00000  Uiso   1.00
C370   C     0.79090   0.50144   0.40743   0.00000  Uiso   1.00
C371   C     0.88087   0.64280   0.22676   0.00000  Uiso   1.00
C372   C     0.80715   0.49927   0.35003   0.00000  Uiso   1.00
C373   C     0.87958   0.35100   0.24238   0.00000  Uiso   1.00
C374   C     0.83657   0.37510   0.24593   0.00000  Uiso   1.00
C375   C     0.79599   0.35574   0.23809   0.00000  Uiso   1.00
C376   C     0.79543   0.64668   0.23139   0.00000  Uiso   1.00
C377   C     0.83668   0.62294   0.23273   0.00000  Uiso   1.00
C378   C     0.96557   0.52205   0.28821   0.00000  Uiso   1.00
C379   C     0.68155   0.52023   0.28823   0.00000  Uiso   1.00
C380   C     0.70236   0.48031   0.21105   0.00000  Uiso   1.00
C381   C     0.98630   0.48051   0.21095   0.00000  Uiso   1.00
C382   C     0.83398   0.42041   0.25030   0.00000  Uiso   1.00
C383   C     0.85936   0.49875   0.15012   0.00000  Uiso   1.00
C384   C     0.92159   0.45352   0.01680   0.00000  Uiso   1.00
C385   C     0.87364   0.49158   0.09367   0.00000  Uiso   1.00
C386   C     0.74764   0.52355   0.43257   0.00000  Uiso   1.00
C387   C     0.73490   0.53213   0.48581   0.00000  Uiso   1.00
C388   C     0.76621   0.52066   0.01429   0.00000  Uiso   1.00
Cu389  Cu    0.78645   0.49999   0.25000   0.00000  Uiso   1.00
Cu390  Cu    0.88022   0.50001   0.25000   0.00000  Uiso   1.00
H391   H     0.76408   0.37371   0.23733   0.00000  Uiso   1.00
H392   H     0.72962   0.46419   0.17983   0.00000  Uiso   1.00
H393   H     0.97679   0.46498   0.17944   0.00000  Uiso   1.00
H394   H     0.95333   0.43424   0.49785   0.00000  Uiso   1.00
H395   H     0.81058   0.52354   0.08809   0.00000  Uiso   1.00
H396   H     0.72421   0.53535   0.41081   0.00000  Uiso   1.00
H397   H     0.75418   0.52894   0.05523   0.00000  Uiso   1.00
H398   H     0.70129   0.54904   0.00485   0.00000  Uiso   1.00
H399   H     0.86338   0.44354   0.37722   0.00000  Uiso   1.00
N400   N     0.71598   0.49999   0.24998   0.00000  Uiso   1.00
N401   N     0.95069   0.50002   0.25000   0.00000  Uiso   1.00
O402   O     0.79375   0.56011   0.25001   0.00000  Uiso   1.00
O403   O     0.87294   0.56012   0.25001   0.00000  Uiso   1.00
O404   O     0.77441   0.49998   0.32549   0.00000  Uiso   1.00
O405   O     0.85360   0.49999   0.32549   0.00000  Uiso   1.00
O406   O     0.79373   0.43988   0.25000   0.00000  Uiso   1.00
O407   O     0.87292   0.43989   0.25000   0.00000  Uiso   1.00
O408   O     0.81306   0.50001   0.17451   0.00000  Uiso   1.00
O409   O     0.89225   0.50002   0.17451   0.00000  Uiso   1.00
F410   F     0.94777   0.45552   0.09266   0.00000  Uiso   1.00
S411   S     0.92942   0.36867   0.26315   0.00000  Uiso   1.00
O412   O     0.91252   0.39857   0.30852   0.00000  Uiso   1.00
O413   O     0.95461   0.66638   0.28004   0.00000  Uiso   1.00
O414   O     0.96928   0.39127   0.21349   0.00000  Uiso   1.00
H415   H     0.99888   0.39441   0.22488   0.00000  Uiso   1.00
S416   S     0.74531   0.62614   0.21444   0.00000  Uiso   1.00
O417   O     0.70971   0.61085   0.26279   0.00000  Uiso   1.00
O418   O     0.72080   0.65897   0.19180   0.00000  Uiso   1.00
O419   O     0.76392   0.58732   0.17004   0.00000  Uiso   1.00
H420   H     0.73359   0.57453   0.16770   0.00000  Uiso   1.00
S421   S     0.92853   0.55446   0.34106   0.00000  Uiso   1.00
O422   O     0.88107   0.57131   0.33679   0.00000  Uiso   1.00
O423   O     0.91908   0.53062   0.39006   0.00000  Uiso   1.00
O424   O     0.96087   0.59556   0.34830   0.00000  Uiso   1.00
H425   H     0.94317   0.60804   0.38284   0.00000  Uiso   1.00
F426   F     0.69551   0.53949   0.32657   0.00000  Uiso   1.00
F427   F     0.92947   0.42005   0.41763   0.00000  Uiso   1.00
S428   S     0.93577   0.61960   0.18514   0.00000  Uiso   1.00
O429   O     0.96348   0.59791   0.21677   0.00000  Uiso   1.00
O430   O     0.92374   0.58890   0.14835   0.00000  Uiso   1.00
O431   O     0.97074   0.65563   0.14974   0.00000  Uiso   1.00
H432   H     0.99783   0.64004   0.12448   0.00000  Uiso   1.00
C433   C     0.16795   0.91203   0.24327   0.00000  Uiso   1.00
C434   C     0.14375   0.83184   0.49013   0.00000  Uiso   1.00
C435   C     0.15353   0.81910   0.43716   0.00000  Uiso   1.00
C436   C     0.17856   0.82180   0.01660   0.00000  Uiso   1.00
C437   C     0.21987   0.79620   0.49137   0.00000  Uiso   1.00
C438   C     0.22511   0.77969   0.44149   0.00000  Uiso   1.00
C439   C     0.19203   0.79073   0.41516   0.00000  Uiso   1.00
C440   C     0.17380   0.83666   0.06733   0.00000  Uiso   1.00
C441   C     0.24848   0.80092   0.06779   0.00000  Uiso   1.00
C442   C     0.12423   0.83477   0.40743   0.00000  Uiso   1.00
C443   C     0.21420   0.97613   0.22676   0.00000  Uiso   1.00
C444   C     0.14049   0.83260   0.35003   0.00000  Uiso   1.00
C445   C     0.21291   0.68433   0.24238   0.00000  Uiso   1.00
C446   C     0.16990   0.70843   0.24593   0.00000  Uiso   1.00
C447   C     0.12933   0.68907   0.23809   0.00000  Uiso   1.00
C448   C     0.12876   0.98001   0.23139   0.00000  Uiso   1.00
C449   C     0.17002   0.95627   0.23273   0.00000  Uiso   1.00
C450   C     0.29890   0.85538   0.28821   0.00000  Uiso   1.00
C451   C     0.01488   0.85356   0.28823   0.00000  Uiso   1.00
C452   C     0.03569   0.81365   0.21105   0.00000  Uiso   1.00
C453   C     0.31964   0.81384   0.21095   0.00000  Uiso   1.00
C454   C     0.16732   0.75374   0.25030   0.00000  Uiso   1.00
C455   C     0.19269   0.83208   0.15012   0.00000  Uiso   1.00
C456   C     0.25492   0.78685   0.01680   0.00000  Uiso   1.00
C457   C     0.20698   0.82491   0.09367   0.00000  Uiso   1.00
C458   C     0.08097   0.85688   0.43257   0.00000  Uiso   1.00
C459   C     0.06824   0.86546   0.48581   0.00000  Uiso   1.00
C460   C     0.09955   0.85400   0.01429   0.00000  Uiso   1.00
Cu461  Cu    0.11978   0.83333   0.25000   0.00000  Uiso   1.00
Cu462  Cu    0.21355   0.83334   0.25000   0.00000  Uiso   1.00
H463   H     0.09741   0.70705   0.23733   0.00000  Uiso   1.00
H464   H     0.06296   0.79752   0.17983   0.00000  Uiso   1.00
H465   H     0.31012   0.79831   0.17944   0.00000  Uiso   1.00
H466   H     0.28667   0.76757   0.49785   0.00000  Uiso   1.00
H467   H     0.14391   0.85687   0.08809   0.00000  Uiso   1.00
H468   H     0.05755   0.86868   0.41081   0.00000  Uiso   1.00
H469   H     0.08752   0.86227   0.05523   0.00000  Uiso   1.00
H470   H     0.03462   0.88238   0.00485   0.00000  Uiso   1.00
H471   H     0.19671   0.77688   0.37722   0.00000  Uiso   1.00
N472   N     0.04931   0.83332   0.24998   0.00000  Uiso   1.00
N473   N     0.28402   0.83335   0.25000   0.00000  Uiso   1.00
O474   O     0.12708   0.89345   0.25001   0.00000  Uiso   1.00
O475   O     0.20627   0.89346   0.25001   0.00000  Uiso   1.00
O476   O     0.10775   0.83332   0.32549   0.00000  Uiso   1.00
O477   O     0.18694   0.83333   0.32549   0.00000  Uiso   1.00
O478   O     0.12706   0.77321   0.25000   0.00000  Uiso   1.00
O479   O     0.20625   0.77322   0.25000   0.00000  Uiso   1.00
O480   O     0.14640   0.83334   0.17451   0.00000  Uiso   1.00
O481   O     0.22559   0.83335   0.17451   0.00000  Uiso   1.00
F482   F     0.28110   0.78885   0.09266   0.00000  Uiso   1.00
S483   S     0.26275   0.70201   0.26315   0.00000  Uiso   1.00
O484   O     0.24585   0.73190   0.30852   0.00000  Uiso   1.00
O485   O     0.28794   0.99971   0.28004   0.00000  Uiso   1.00
O486   O     0.30262   0.72460   0.21349   0.00000  Uiso   1.00
H487   H     0.33221   0.72774   0.22488   0.00000  Uiso   1.00
S488   S     0.07864   0.95948   0.21444   0.00000  Uiso   1.00
O489   O     0.04304   0.94418   0.26279   0.00000  Uiso   1.00
O490   O     0.05414   0.99230   0.19180   0.00000  Uiso   1.00
O491   O     0.09726   0.92066   0.17004   0.00000  Uiso   1.00
H492   H     0.06692   0.90787   0.16770   0.00000  Uiso   1.00
S493   S     0.26187   0.88779   0.34106   0.00000  Uiso   1.00
O494   O     0.21440   0.90464   0.33679   0.00000  Uiso   1.00
O495   O     0.25241   0.86395   0.39006   0.00000  Uiso   1.00
O496   O     0.29420   0.92889   0.34830   0.00000  Uiso   1.00
H497   H     0.27650   0.94138   0.38284   0.00000  Uiso   1.00
F498   F     0.02885   0.87283   0.32657   0.00000  Uiso   1.00
F499   F     0.26280   0.75338   0.41763   0.00000  Uiso   1.00
S500   S     0.26911   0.95294   0.18514   0.00000  Uiso   1.00
O501   O     0.29681   0.93124   0.21677   0.00000  Uiso   1.00
O502   O     0.25708   0.92223   0.14835   0.00000  Uiso   1.00
O503   O     0.30408   0.98896   0.14974   0.00000  Uiso   1.00
H504   H     0.33116   0.97337   0.12448   0.00000  Uiso   1.00
C505   C     0.50129   0.91203   0.24327   0.00000  Uiso   1.00
C506   C     0.47708   0.83184   0.49013   0.00000  Uiso   1.00
C507   C     0.48687   0.81910   0.43716   0.00000  Uiso   1.00
C508   C     0.51190   0.82180   0.01660   0.00000  Uiso   1.00
C509   C     0.55320   0.79620   0.49137   0.00000  Uiso   1.00
C510   C     0.55844   0.77969   0.44149   0.00000  Uiso   1.00
C511   C     0.52536   0.79073   0.41516   0.00000  Uiso   1.00
C512   C     0.50713   0.83666   0.06733   0.00000  Uiso   1.00
C513   C     0.58181   0.80092   0.06779   0.00000  Uiso   1.00
C514   C     0.45757   0.83477   0.40743   0.00000  Uiso   1.00
C515   C     0.54753   0.97613   0.22676   0.00000  Uiso   1.00
C516   C     0.47382   0.83260   0.35003   0.00000  Uiso   1.00
C517   C     0.54624   0.68433   0.24238   0.00000  Uiso   1.00
C518   C     0.50324   0.70843   0.24593   0.00000  Uiso   1.00
C519   C     0.46266   0.68907   0.23809   0.00000  Uiso   1.00
C520   C     0.46209   0.98001   0.23139   0.00000  Uiso   1.00
C521   C     0.50335   0.95627   0.23273   0.00000  Uiso   1.00
C522   C     0.63223   0.85538   0.28821   0.00000  Uiso   1.00
C523   C     0.34821   0.85356   0.28823   0.00000  Uiso   1.00
C524   C     0.36903   0.81365   0.21105   0.00000  Uiso   1.00
C525   C     0.65297   0.81384   0.21095   0.00000  Uiso   1.00
C526   C     0.50065   0.75374   0.25030   0.00000  Uiso   1.00
C527   C     0.52602   0.83208   0.15012   0.00000  Uiso   1.00
C528   C     0.58825   0.78685   0.01680   0.00000  Uiso   1.00
C529   C     0.54031   0.82491   0.09367   0.00000  Uiso   1.00
C530   C     0.41430   0.85688   0.43257   0.00000  Uiso   1.00
C531   C     0.40157   0.86546   0.48581   0.00000  Uiso   1.00
C532   C     0.43288   0.85400   0.01429   0.00000  Uiso   1.00
Cu533  Cu    0.45311   0.83333   0.25000   0.00000  Uiso   1.00
Cu534  Cu    0.54689   0.83334   0.25000   0.00000  Uiso   1.00
H535   H     0.43074   0.70705   0.23733   0.00000  Uiso   1.00
H536   H     0.39629   0.79752   0.17983   0.00000  Uiso   1.00
H537   H     0.64346   0.79831   0.17944   0.00000  Uiso   1.00
H538   H     0.62000   0.76757   0.49785   0.00000  Uiso   1.00
H539   H     0.47725   0.85687   0.08809   0.00000  Uiso   1.00
H540   H     0.39088   0.86868   0.41081   0.00000  Uiso   1.00
H541   H     0.42085   0.86227   0.05523   0.00000  Uiso   1.00
H542   H     0.36796   0.88238   0.00485   0.00000  Uiso   1.00
H543   H     0.53005   0.77688   0.37722   0.00000  Uiso   1.00
N544   N     0.38265   0.83332   0.24998   0.00000  Uiso   1.00
N545   N     0.61735   0.83335   0.25000   0.00000  Uiso   1.00
O546   O     0.46042   0.89345   0.25001   0.00000  Uiso   1.00
O547   O     0.53961   0.89346   0.25001   0.00000  Uiso   1.00
O548   O     0.44108   0.83332   0.32549   0.00000  Uiso   1.00
O549   O     0.52027   0.83333   0.32549   0.00000  Uiso   1.00
O550   O     0.46039   0.77321   0.25000   0.00000  Uiso   1.00
O551   O     0.53958   0.77322   0.25000   0.00000  Uiso   1.00
O552   O     0.47973   0.83334   0.17451   0.00000  Uiso   1.00
O553   O     0.55892   0.83335   0.17451   0.00000  Uiso   1.00
F554   F     0.61444   0.78885   0.09266   0.00000  Uiso   1.00
S555   S     0.59608   0.70201   0.26315   0.00000  Uiso   1.00
O556   O     0.57918   0.73190   0.30852   0.00000  Uiso   1.00
O557   O     0.62127   0.99971   0.28004   0.00000  Uiso   1.00
O558   O     0.63595   0.72460   0.21349   0.00000  Uiso   1.00
H559   H     0.66555   0.72774   0.22488   0.00000  Uiso   1.00
S560   S     0.41198   0.95948   0.21444   0.00000  Uiso   1.00
O561   O     0.37637   0.94418   0.26279   0.00000  Uiso   1.00
O562   O     0.38747   0.99230   0.19180   0.00000  Uiso   1.00
O563   O     0.43059   0.92066   0.17004   0.00000  Uiso   1.00
H564   H     0.40026   0.90787   0.16770   0.00000  Uiso   1.00
S565   S     0.59520   0.88779   0.34106   0.00000  Uiso   1.00
O566   O     0.54773   0.90464   0.33679   0.00000  Uiso   1.00
O567   O     0.58574   0.86395   0.39006   0.00000  Uiso   1.00
O568   O     0.62754   0.92889   0.34830   0.00000  Uiso   1.00
H569   H     0.60984   0.94138   0.38284   0.00000  Uiso   1.00
F570   F     0.36218   0.87283   0.32657   0.00000  Uiso   1.00
F571   F     0.59614   0.75338   0.41763   0.00000  Uiso   1.00
S572   S     0.60244   0.95294   0.18514   0.00000  Uiso   1.00
O573   O     0.63015   0.93124   0.21677   0.00000  Uiso   1.00
O574   O     0.59041   0.92223   0.14835   0.00000  Uiso   1.00
O575   O     0.63741   0.98896   0.14974   0.00000  Uiso   1.00
H576   H     0.66450   0.97337   0.12448   0.00000  Uiso   1.00
C577   C     0.83462   0.91203   0.24327   0.00000  Uiso   1.00
C578   C     0.81041   0.83184   0.49013   0.00000  Uiso   1.00
C579   C     0.82020   0.81910   0.43716   0.00000  Uiso   1.00
C580   C     0.84523   0.82180   0.01660   0.00000  Uiso   1.00
C581   C     0.88654   0.79620   0.49137   0.00000  Uiso   1.00
C582   C     0.89178   0.77969   0.44149   0.00000  Uiso   1.00
C583   C     0.85870   0.79073   0.41516   0.00000  Uiso   1.00
C584   C     0.84047   0.83666   0.06733   0.00000  Uiso   1.00
C585   C     0.91514   0.80092   0.06779   0.00000  Uiso   1.00
C586   C     0.79090   0.83477   0.40743   0.00000  Uiso   1.00
C587   C     0.88087   0.97613   0.22676   0.00000  Uiso   1.00
C588   C     0.80715   0.83260   0.35003   0.00000  Uiso   1.00
C589   C     0.87958   0.68433   0.24238   0.00000  Uiso   1.00
C590   C     0.83657   0.70843   0.24593   0.00000  Uiso   1.00
C591   C     0.79599   0.68907   0.23809   0.00000  Uiso   1.00
C592   C     0.79543   0.98001   0.23139   0.00000  Uiso   1.00
C593   C     0.83668   0.95627   0.23273   0.00000  Uiso   1.00
C594   C     0.96557   0.85538   0.28821   0.00000  Uiso   1.00
C595   C     0.68155   0.85356   0.28823   0.00000  Uiso   1.00
C596   C     0.70236   0.81365   0.21105   0.00000  Uiso   1.00
C597   C     0.98630   0.81384   0.21095   0.00000  Uiso   1.00
C598   C     0.83398   0.75374   0.25030   0.00000  Uiso   1.00
C599   C     0.85936   0.83208   0.15012   0.00000  Uiso   1.00
C600   C     0.92159   0.78685   0.01680   0.00000  Uiso   1.00
C601   C     0.87364   0.82491   0.09367   0.00000  Uiso   1.00
C602   C     0.74764   0.85688   0.43257   0.00000  Uiso   1.00
C603   C     0.73490   0.86546   0.48581   0.00000  Uiso   1.00
C604   C     0.76621   0.85400   0.01429   0.00000  Uiso   1.00
Cu605  Cu    0.78645   0.83333   0.25000   0.00000  Uiso   1.00
Cu606  Cu    0.88022   0.83334   0.25000   0.00000  Uiso   1.00
H607   H     0.76408   0.70705   0.23733   0.00000  Uiso   1.00
H608   H     0.72962   0.79752   0.17983   0.00000  Uiso   1.00
H609   H     0.97679   0.79831   0.17944   0.00000  Uiso   1.00
H610   H     0.95333   0.76757   0.49785   0.00000  Uiso   1.00
H611   H     0.81058   0.85687   0.08809   0.00000  Uiso   1.00
H612   H     0.72421   0.86868   0.41081   0.00000  Uiso   1.00
H613   H     0.75418   0.86227   0.05523   0.00000  Uiso   1.00
H614   H     0.70129   0.88238   0.00485   0.00000  Uiso   1.00
H615   H     0.86338   0.77688   0.37722   0.00000  Uiso   1.00
N616   N     0.71598   0.83332   0.24998   0.00000  Uiso   1.00
N617   N     0.95069   0.83335   0.25000   0.00000  Uiso   1.00
O618   O     0.79375   0.89345   0.25001   0.00000  Uiso   1.00
O619   O     0.87294   0.89346   0.25001   0.00000  Uiso   1.00
O620   O     0.77441   0.83332   0.32549   0.00000  Uiso   1.00
O621   O     0.85360   0.83333   0.32549   0.00000  Uiso   1.00
O622   O     0.79373   0.77321   0.25000   0.00000  Uiso   1.00
O623   O     0.87292   0.77322   0.25000   0.00000  Uiso   1.00
O624   O     0.81306   0.83334   0.17451   0.00000  Uiso   1.00
O625   O     0.89225   0.83335   0.17451   0.00000  Uiso   1.00
F626   F     0.94777   0.78885   0.09266   0.00000  Uiso   1.00
S627   S     0.92942   0.70201   0.26315   0.00000  Uiso   1.00
O628   O     0.91252   0.73190   0.30852   0.00000  Uiso   1.00
O629   O     0.95461   0.99971   0.28004   0.00000  Uiso   1.00
O630   O     0.96928   0.72460   0.21349   0.00000  Uiso   1.00
H631   H     0.99888   0.72774   0.22488   0.00000  Uiso   1.00
S632   S     0.74531   0.95948   0.21444   0.00000  Uiso   1.00
O633   O     0.70971   0.94418   0.26279   0.00000  Uiso   1.00
O634   O     0.72080   0.99230   0.19180   0.00000  Uiso   1.00
O635   O     0.76392   0.92066   0.17004   0.00000  Uiso   1.00
H636   H     0.73359   0.90787   0.16770   0.00000  Uiso   1.00
S637   S     0.92853   0.88779   0.34106   0.00000  Uiso   1.00
O638   O     0.88107   0.90464   0.33679   0.00000  Uiso   1.00
O639   O     0.91908   0.86395   0.39006   0.00000  Uiso   1.00
O640   O     0.96087   0.92889   0.34830   0.00000  Uiso   1.00
H641   H     0.94317   0.94138   0.38284   0.00000  Uiso   1.00
F642   F     0.69551   0.87283   0.32657   0.00000  Uiso   1.00
F643   F     0.92947   0.75338   0.41763   0.00000  Uiso   1.00
S644   S     0.93577   0.95294   0.18514   0.00000  Uiso   1.00
O645   O     0.96348   0.93124   0.21677   0.00000  Uiso   1.00
O646   O     0.92374   0.92223   0.14835   0.00000  Uiso   1.00
O647   O     0.97074   0.98896   0.14974   0.00000  Uiso   1.00
H648   H     0.99783   0.97337   0.12448   0.00000  Uiso   1.00
C649   C     0.16795   0.24536   0.74327   0.00000  Uiso   1.00
C650   C     0.14375   0.16517   0.99013   0.00000  Uiso   1.00
C651   C     0.15353   0.15244   0.93716   0.00000  Uiso   1.00
C652   C     0.17856   0.15513   0.51660   0.00000  Uiso   1.00
C653   C     0.21987   0.12954   0.99137   0.00000  Uiso   1.00
C654   C     0.22511   0.11302   0.94149   0.00000  Uiso   1.00
C655   C     0.19203   0.12406   0.91516   0.00000  Uiso   1.00
C656   C     0.17380   0.16999   0.56733   0.00000  Uiso   1.00
C657   C     0.24848   0.13426   0.56779   0.00000  Uiso   1.00
C658   C     0.12423   0.16810   0.90743   0.00000  Uiso   1.00
C659   C     0.21420   0.30946   0.72676   0.00000  Uiso   1.00
C660   C     0.14049   0.16593   0.85003   0.00000  Uiso   1.00
C661   C     0.21291   0.01767   0.74238   0.00000  Uiso   1.00
C662   C     0.16990   0.04176   0.74593   0.00000  Uiso   1.00
C663   C     0.12933   0.02241   0.73809   0.00000  Uiso   1.00
C664   C     0.12876   0.31335   0.73139   0.00000  Uiso   1.00
C665   C     0.17002   0.28960   0.73273   0.00000  Uiso   1.00
C666   C     0.29890   0.18872   0.78821   0.00000  Uiso   1.00
C667   C     0.01488   0.18690   0.78823   0.00000  Uiso   1.00
C668   C     0.03569   0.14698   0.71105   0.00000  Uiso   1.00
C669   C     0.31964   0.14717   0.71095   0.00000  Uiso   1.00
C670   C     0.16732   0.08708   0.75030   0.00000  Uiso   1.00
C671   C     0.19269   0.16542   0.65012   0.00000  Uiso   1.00
C672   C     0.25492   0.12018   0.51680   0.00000  Uiso   1.00
C673   C     0.20698   0.15824   0.59367   0.00000  Uiso   1.00
C674   C     0.08097   0.19022   0.93257   0.00000  Uiso   1.00
C675   C     0.06824   0.19879   0.98581   0.00000  Uiso   1.00
C676   C     0.09955   0.18733   0.51429   0.00000  Uiso   1.00
Cu677  Cu    0.11978   0.16666   0.75000   0.00000  Uiso   1.00
Cu678  Cu    0.21355   0.16667   0.75000   0.00000  Uiso   1.00
H679   H     0.09741   0.04038   0.73733   0.00000  Uiso   1.00
H680   H     0.06296   0.13085   0.67983   0.00000  Uiso   1.00
H681   H     0.31012   0.13165   0.67944   0.00000  Uiso   1.00
H682   H     0.28667   0.10090   0.99785   0.00000  Uiso   1.00
H683   H     0.14391   0.19020   0.58809   0.00000  Uiso   1.00
H684   H     0.05755   0.20201   0.91081   0.00000  Uiso   1.00
H685   H     0.08752   0.19561   0.55523   0.00000  Uiso   1.00
H686   H     0.03462   0.21571   0.50485   0.00000  Uiso   1.00
H687   H     0.19671   0.11021   0.87722   0.00000  Uiso   1.00
N688   N     0.04931   0.16666   0.74998   0.00000  Uiso   1.00
N689   N     0.28402   0.16669   0.75000   0.00000  Uiso   1.00
O690   O     0.12708   0.22678   0.75001   0.00000  Uiso   1.00
O691   O     0.20627   0.22679   0.75001   0.00000  Uiso   1.00
O692   O     0.10775   0.16665   0.82549   0.00000  Uiso   1.00
O693   O     0.18694   0.16666   0.82549   0.00000  Uiso   1.00
O694   O     0.12706   0.10654   0.75000   0.00000  Uiso   1.00
O695   O     0.20625   0.10655   0.75000   0.00000  Uiso   1.00
O696   O     0.14640   0.16667   0.67451   0.00000  Uiso   1.00
O697   O     0.22559   0.16668   0.67451   0.00000  Uiso   1.00
F698   F     0.28110   0.12218   0.59266   0.00000  Uiso   1.00
S699   S     0.26275   0.03534   0.76315   0.00000  Uiso   1.00
O700   O     0.24585   0.06523   0.80852   0.00000  Uiso   1.00
O701   O     0.28794   0.33304   0.78004   0.00000  Uiso   1.00
O702   O     0.30262   0.05793   0.71349   0.00000  Uiso   1.00
H703   H     0.33221   0.06108   0.72488   0.00000  Uiso   1.00
S704   S     0.07864   0.29281   0.71444   0.00000  Uiso   1.00
O705   O     0.04304   0.27751   0.76279   0.00000  Uiso   1.00
O706   O     0.05414   0.32564   0.69180   0.00000  Uiso   1.00
O707   O     0.09726   0.25399   0.67004   0.00000  Uiso   1.00
H708   H     0.06692   0.24120   0.66770   0.00000  Uiso   1.00
S709   S     0.26187   0.22113   0.84106   0.00000  Uiso   1.00
O710   O     0.21440   0.23797   0.83679   0.00000  Uiso   1.00
O711   O     0.25241   0.19729   0.89006   0.00000  Uiso   1.00
O712   O     0.29420   0.26223   0.84830   0.00000  Uiso   1.00
H713   H     0.27650   0.27471   0.88284   0.00000  Uiso   1.00
F714   F     0.02885   0.20616   0.82657   0.00000  Uiso   1.00
F715   F     0.26280   0.08671   0.91763   0.00000  Uiso   1.00
S716   S     0.26911   0.28627   0.68514   0.00000  Uiso   1.00
O717   O     0.29681   0.26457   0.71677   0.00000  Uiso   1.00
O718   O     0.25708   0.25557   0.64835   0.00000  Uiso   1.00
O719   O     0.30408   0.32230   0.64974   0.00000  Uiso   1.00
H720   H     0.33116   0.30671   0.62448   0.00000  Uiso   1.00
C721   C     0.50129   0.24536   0.74327   0.00000  Uiso   1.00
C722   C     0.47708   0.16517   0.99013   0.00000  Uiso   1.00
C723   C     0.48687   0.15244   0.93716   0.00000  Uiso   1.00
C724   C     0.51190   0.15513   0.51660   0.00000  Uiso   1.00
C725   C     0.55320   0.12954   0.99137   0.00000  Uiso   1.00
C726   C     0.55844   0.11302   0.94149   0.00000  Uiso   1.00
C727   C     0.52536   0.12406   0.91516   0.00000  Uiso   1.00
C728   C     0.50713   0.16999   0.56733   0.00000  Uiso   1.00
C729   C     0.58181   0.13426   0.56779   0.00000  Uiso   1.00
C730   C     0.45757   0.16810   0.90743   0.00000  Uiso   1.00
C731   C     0.54753   0.30946   0.72676   0.00000  Uiso   1.00
C732   C     0.47382   0.16593   0.85003   0.00000  Uiso   1.00
C733   C     0.54624   0.01767   0.74238   0.00000  Uiso   1.00
C734   C     0.50324   0.04176   0.74593   0.00000  Uiso   1.00
C735   C     0.46266   0.02241   0.73809   0.00000  Uiso   1.00
C736   C     0.46209   0.31335   0.73139   0.00000  Uiso   1.00
C737   C     0.50335   0.28960   0.73273   0.00000  Uiso   1.00
C738   C     0.63223   0.18872   0.78821   0.00000  Uiso   1.00
C739   C     0.34821   0.18690   0.78823   0.00000  Uiso   1.00
C740   C     0.36903   0.14698   0.71105   0.00000  Uiso   1.00
C741   C     0.65297   0.14717   0.71095   0.00000  Uiso   1.00
C742   C     0.50065   0.08708   0.75030   0.00000  Uiso   1.00
C743   C     0.52602   0.16542   0.65012   0.00000  Uiso   1.00
C744   C     0.58825   0.12018   0.51680   0.00000  Uiso   1.00
C745   C     0.54031   0.15824   0.59367   0.00000  Uiso   1.00
C746   C     0.41430   0.19022   0.93257   0.00000  Uiso   1.00
C747   C     0.40157   0.19879   0.98581   0.00000  Uiso   1.00
C748   C     0.43288   0.18733   0.51429   0.00000  Uiso   1.00
Cu749  Cu    0.45311   0.16666   0.75000   0.00000  Uiso   1.00
Cu750  Cu    0.54689   0.16667   0.75000   0.00000  Uiso   1.00
H751   H     0.43074   0.04038   0.73733   0.00000  Uiso   1.00
H752   H     0.39629   0.13085   0.67983   0.00000  Uiso   1.00
H753   H     0.64346   0.13165   0.67944   0.00000  Uiso   1.00
H754   H     0.62000   0.10090   0.99785   0.00000  Uiso   1.00
H755   H     0.47725   0.19020   0.58809   0.00000  Uiso   1.00
H756   H     0.39088   0.20201   0.91081   0.00000  Uiso   1.00
H757   H     0.42085   0.19561   0.55523   0.00000  Uiso   1.00
H758   H     0.36796   0.21571   0.50485   0.00000  Uiso   1.00
H759   H     0.53005   0.11021   0.87722   0.00000  Uiso   1.00
N760   N     0.38265   0.16666   0.74998   0.00000  Uiso   1.00
N761   N     0.61735   0.16669   0.75000   0.00000  Uiso   1.00
O762   O     0.46042   0.22678   0.75001   0.00000  Uiso   1.00
O763   O     0.53961   0.22679   0.75001   0.00000  Uiso   1.00
O764   O     0.44108   0.16665   0.82549   0.00000  Uiso   1.00
O765   O     0.52027   0.16666   0.82549   0.00000  Uiso   1.00
O766   O     0.46039   0.10654   0.75000   0.00000  Uiso   1.00
O767   O     0.53958   0.10655   0.75000   0.00000  Uiso   1.00
O768   O     0.47973   0.16667   0.67451   0.00000  Uiso   1.00
O769   O     0.55892   0.16668   0.67451   0.00000  Uiso   1.00
F770   F     0.61444   0.12218   0.59266   0.00000  Uiso   1.00
S771   S     0.59608   0.03534   0.76315   0.00000  Uiso   1.00
O772   O     0.57918   0.06523   0.80852   0.00000  Uiso   1.00
O773   O     0.62127   0.33304   0.78004   0.00000  Uiso   1.00
O774   O     0.63595   0.05793   0.71349   0.00000  Uiso   1.00
H775   H     0.66555   0.06108   0.72488   0.00000  Uiso   1.00
S776   S     0.41198   0.29281   0.71444   0.00000  Uiso   1.00
O777   O     0.37637   0.27751   0.76279   0.00000  Uiso   1.00
O778   O     0.38747   0.32564   0.69180   0.00000  Uiso   1.00
O779   O     0.43059   0.25399   0.67004   0.00000  Uiso   1.00
H780   H     0.40026   0.24120   0.66770   0.00000  Uiso   1.00
S781   S     0.59520   0.22113   0.84106   0.00000  Uiso   1.00
O782   O     0.54773   0.23797   0.83679   0.00000  Uiso   1.00
O783   O     0.58574   0.19729   0.89006   0.00000  Uiso   1.00
O784   O     0.62754   0.26223   0.84830   0.00000  Uiso   1.00
H785   H     0.60984   0.27471   0.88284   0.00000  Uiso   1.00
F786   F     0.36218   0.20616   0.82657   0.00000  Uiso   1.00
F787   F     0.59614   0.08671   0.91763   0.00000  Uiso   1.00
S788   S     0.60244   0.28627   0.68514   0.00000  Uiso   1.00
O789   O     0.63015   0.26457   0.71677   0.00000  Uiso   1.00
O790   O     0.59041   0.25557   0.64835   0.00000  Uiso   1.00
O791   O     0.63741   0.32230   0.64974   0.00000  Uiso   1.00
H792   H     0.66450   0.30671   0.62448   0.00000  Uiso   1.00
C793   C     0.83462   0.24536   0.74327   0.00000  Uiso   1.00
C794   C     0.81041   0.16517   0.99013   0.00000  Uiso   1.00
C795   C     0.82020   0.15244   0.93716   0.00000  Uiso   1.00
C796   C     0.84523   0.15513   0.51660   0.00000  Uiso   1.00
C797   C     0.88654   0.12954   0.99137   0.00000  Uiso   1.00
C798   C     0.89178   0.11302   0.94149   0.00000  Uiso   1.00
C799   C     0.85870   0.12406   0.91516   0.00000  Uiso   1.00
C800   C     0.84047   0.16999   0.56733   0.00000  Uiso   1.00
C801   C     0.91514   0.13426   0.56779   0.00000  Uiso   1.00
C802   C     0.79090   0.16810   0.90743   0.00000  Uiso   1.00
C803   C     0.88087   0.30946   0.72676   0.00000  Uiso   1.00
C804   C     0.80715   0.16593   0.85003   0.00000  Uiso   1.00
C805   C     0.87958   0.01767   0.74238   0.00000  Uiso   1.00
C806   C     0.83657   0.04176   0.74593   0.00000  Uiso   1.00
C807   C     0.79599   0.02241   0.73809   0.00000  Uiso   1.00
C808   C     0.79543   0.31335   0.73139   0.00000  Uiso   1.00
C809   C     0.83668   0.28960   0.73273   0.00000  Uiso   1.00
C810   C     0.96557   0.18872   0.78821   0.00000  Uiso   1.00
C811   C     0.68155   0.18690   0.78823   0.00000  Uiso   1.00
C812   C     0.70236   0.14698   0.71105   0.00000  Uiso   1.00
C813   C     0.98630   0.14717   0.71095   0.00000  Uiso   1.00
C814   C     0.83398   0.08708   0.75030   0.00000  Uiso   1.00
C815   C     0.85936   0.16542   0.65012   0.00000  Uiso   1.00
C816   C     0.92159   0.12018   0.51680   0.00000  Uiso   1.00
C817   C     0.87364   0.15824   0.59367   0.00000  Uiso   1.00
C818   C     0.74764   0.19022   0.93257   0.00000  Uiso   1.00
C819   C     0.73490   0.19879   0.98581   0.00000  Uiso   1.00
C820   C     0.76621   0.18733   0.51429   0.00000  Uiso   1.00
Cu821  Cu    0.78645   0.16666   0.75000   0.00000  Uiso   1.00
Cu822  Cu    0.88022   0.16667   0.75000   0.00000  Uiso   1.00
H823   H     0.76408   0.04038   0.73733   0.00000  Uiso   1.00
H824   H     0.72962   0.13085   0.67983   0.00000  Uiso   1.00
H825   H     0.97679   0.13165   0.67944   0.00000  Uiso   1.00
H826   H     0.95333   0.10090   0.99785   0.00000  Uiso   1.00
H827   H     0.81058   0.19020   0.58809   0.00000  Uiso   1.00
H828   H     0.72421   0.20201   0.91081   0.00000  Uiso   1.00
H829   H     0.75418   0.19561   0.55523   0.00000  Uiso   1.00
H830   H     0.70129   0.21571   0.50485   0.00000  Uiso   1.00
H831   H     0.86338   0.11021   0.87722   0.00000  Uiso   1.00
N832   N     0.71598   0.16666   0.74998   0.00000  Uiso   1.00
N833   N     0.95069   0.16669   0.75000   0.00000  Uiso   1.00
O834   O     0.79375   0.22678   0.75001   0.00000  Uiso   1.00
O835   O     0.87294   0.22679   0.75001   0.00000  Uiso   1.00
O836   O     0.77441   0.16665   0.82549   0.00000  Uiso   1.00
O837   O     0.85360   0.16666   0.82549   0.00000  Uiso   1.00
O838   O     0.79373   0.10654   0.75000   0.00000  Uiso   1.00
O839   O     0.87292   0.10655   0.75000   0.00000  Uiso   1.00
O840   O     0.81306   0.16667   0.67451   0.00000  Uiso   1.00
O841   O     0.89225   0.16668   0.67451   0.00000  Uiso   1.00
F842   F     0.94777   0.12218   0.59266   0.00000  Uiso   1.00
S843   S     0.92942   0.03534   0.76315   0.00000  Uiso   1.00
O844   O     0.91252   0.06523   0.80852   0.00000  Uiso   1.00
O845   O     0.95461   0.33304   0.78004   0.00000  Uiso   1.00
O846   O     0.96928   0.05793   0.71349   0.00000  Uiso   1.00
H847   H     0.99888   0.06108   0.72488   0.00000  Uiso   1.00
S848   S     0.74531   0.29281   0.71444   0.00000  Uiso   1.00
O849   O     0.70971   0.27751   0.76279   0.00000  Uiso   1.00
O850   O     0.72080   0.32564   0.69180   0.00000  Uiso   1.00
O851   O     0.76392   0.25399   0.67004   0.00000  Uiso   1.00
H852   H     0.73359   0.24120   0.66770   0.00000  Uiso   1.00
S853   S     0.92853   0.22113   0.84106   0.00000  Uiso   1.00
O854   O     0.88107   0.23797   0.83679   0.00000  Uiso   1.00
O855   O     0.91908   0.19729   0.89006   0.00000  Uiso   1.00
O856   O     0.96087   0.26223   0.84830   0.00000  Uiso   1.00
H857   H     0.94317   0.27471   0.88284   0.00000  Uiso   1.00
F858   F     0.69551   0.20616   0.82657   0.00000  Uiso   1.00
F859   F     0.92947   0.08671   0.91763   0.00000  Uiso   1.00
S860   S     0.93577   0.28627   0.68514   0.00000  Uiso   1.00
O861   O     0.96348   0.26457   0.71677   0.00000  Uiso   1.00
O862   O     0.92374   0.25557   0.64835   0.00000  Uiso   1.00
O863   O     0.97074   0.32230   0.64974   0.00000  Uiso   1.00
H864   H     0.99783   0.30671   0.62448   0.00000  Uiso   1.00
C865   C     0.16795   0.57870   0.74327   0.00000  Uiso   1.00
C866   C     0.14375   0.49851   0.99013   0.00000  Uiso   1.00
C867   C     0.15353   0.48577   0.93716   0.00000  Uiso   1.00
C868   C     0.17856   0.48847   0.51660   0.00000  Uiso   1.00
C869   C     0.21987   0.46287   0.99137   0.00000  Uiso   1.00
C870   C     0.22511   0.44636   0.94149   0.00000  Uiso   1.00
C871   C     0.19203   0.45740   0.91516   0.00000  Uiso   1.00
C872   C     0.17380   0.50332   0.56733   0.00000  Uiso   1.00
C873   C     0.24848   0.46759   0.56779   0.00000  Uiso   1.00
C874   C     0.12423   0.50144   0.90743   0.00000  Uiso   1.00
C875   C     0.21420   0.64280   0.72676   0.00000  Uiso   1.00
C876   C     0.14049   0.49927   0.85003   0.00000  Uiso   1.00
C877   C     0.21291   0.35100   0.74238   0.00000  Uiso   1.00
C878   C     0.16990   0.37510   0.74593   0.00000  Uiso   1.00
C879   C     0.12933   0.35574   0.73809   0.00000  Uiso   1.00
C880   C     0.12876   0.64668   0.73139   0.00000  Uiso   1.00
C881   C     0.17002   0.62294   0.73273   0.00000  Uiso   1.00
C882   C     0.29890   0.52205   0.78821   0.00000  Uiso   1.00
C883   C     0.01488   0.52023   0.78823   0.00000  Uiso   1.00
C884   C     0.03569   0.48031   0.71105   0.00000  Uiso   1.00
C885   C     0.31964   0.48051   0.71095   0.00000  Uiso   1.00
C886   C     0.16732   0.42041   0.75030   0.00000  Uiso   1.00
C887   C     0.19269   0.49875   0.65012   0.00000  Uiso   1.00
C888   C     0.25492   0.45352   0.51680   0.00000  Uiso   1.00
C889   C     0.20698   0.49158   0.59367   0.00000  Uiso   1.00
C890   C     0.08097   0.52355   0.93257   0.00000  Uiso   1.00
C891   C     0.06824   0.53213   0.98581   0.00000  Uiso   1.00
C892   C     0.09955   0.52066   0.51429   0.00000  Uiso   1.00
Cu893  Cu    0.11978   0.49999   0.75000   0.00000  Uiso   1.00
Cu894  Cu    0.21355   0.50001   0.75000   0.00000  Uiso   1.00
H895   H     0.09741   0.37371   0.73733   0.00000  Uiso   1.00
H896   H     0.06296   0.46419   0.67983   0.00000  Uiso   1.00
H897   H     0.31012   0.46498   0.67944   0.00000  Uiso   1.00
H898   H     0.28667   0.43424   0.99785   0.00000  Uiso   1.00
H899   H     0.14391   0.52354   0.58809   0.00000  Uiso   1.00
H900   H     0.05755   0.53535   0.91081   0.00000  Uiso   1.00
H901   H     0.08752   0.52894   0.55523   0.00000  Uiso   1.00
H902   H     0.03462   0.54904   0.50485   0.00000  Uiso   1.00
H903   H     0.19671   0.44354   0.87722   0.00000  Uiso   1.00
N904   N     0.04931   0.49999   0.74998   0.00000  Uiso   1.00
N905   N     0.28402   0.50002   0.75000   0.00000  Uiso   1.00
O906   O     0.12708   0.56011   0.75001   0.00000  Uiso   1.00
O907   O     0.20627   0.56012   0.75001   0.00000  Uiso   1.00
O908   O     0.10775   0.49998   0.82549   0.00000  Uiso   1.00
O909   O     0.18694   0.49999   0.82549   0.00000  Uiso   1.00
O910   O     0.12706   0.43988   0.75000   0.00000  Uiso   1.00
O911   O     0.20625   0.43989   0.75000   0.00000  Uiso   1.00
O912   O     0.14640   0.50001   0.67451   0.00000  Uiso   1.00
O913   O     0.22559   0.50002   0.67451   0.00000  Uiso   1.00
F914   F     0.28110   0.45552   0.59266   0.00000  Uiso   1.00
S915   S     0.26275   0.36867   0.76315   0.00000  Uiso   1.00
O916   O     0.24585   0.39857   0.80852   0.00000  Uiso   1.00
O917   O     0.28794   0.66638   0.78004   0.00000  Uiso   1.00
O918   O     0.30262   0.39127   0.71349   0.00000  Uiso   1.00
H919   H     0.33221   0.39441   0.72488   0.00000  Uiso   1.00
S920   S     0.07864   0.62614   0.71444   0.00000  Uiso   1.00
O921   O     0.04304   0.61085   0.76279   0.00000  Uiso   1.00
O922   O     0.05414   0.65897   0.69180   0.00000  Uiso   1.00
O923   O     0.09726   0.58732   0.67004   0.00000  Uiso   1.00
H924   H     0.06692   0.57453   0.66770   0.00000  Uiso   1.00
S925   S     0.26187   0.55446   0.84106   0.00000  Uiso   1.00
O926   O     0.21440   0.57131   0.83679   0.00000  Uiso   1.00
O927   O     0.25241   0.53062   0.89006   0.00000  Uiso   1.00
O928   O     0.29420   0.59556   0.84830   0.00000  Uiso   1.00
H929   H     0.27650   0.60804   0.88284   0.00000  Uiso   1.00
F930   F     0.02885   0.53949   0.82657   0.00000  Uiso   1.00
F931   F     0.26280   0.42005   0.91763   0.00000  Uiso   1.00
S932   S     0.26911   0.61960   0.68514   0.00000  Uiso   1.00
O933   O     0.29681   0.59791   0.71677   0.00000  Uiso   1.00
O934   O     0.25708   0.58890   0.64835   0.00000  Uiso   1.00
O935   O     0.30408   0.65563   0.64974   0.00000  Uiso   1.00
H936   H     0.33116   0.64004   0.62448   0.00000  Uiso   1.00
C937   C     0.50129   0.57870   0.74327   0.00000  Uiso   1.00
C938   C     0.47708   0.49851   0.99013   0.00000  Uiso   1.00
C939   C     0.48687   0.48577   0.93716   0.00000  Uiso   1.00
C940   C     0.51190   0.48847   0.51660   0.00000  Uiso   1.00
C941   C     0.55320   0.46287   0.99137   0.00000  Uiso   1.00
C942   C     0.55844   0.44636   0.94149   0.00000  Uiso   1.00
C943   C     0.52536   0.45740   0.91516   0.00000  Uiso   1.00
C944   C     0.50713   0.50332   0.56733   0.00000  Uiso   1.00
C945   C     0.58181   0.46759   0.56779   0.00000  Uiso   1.00
C946   C     0.45757   0.50144   0.90743   0.00000  Uiso   1.00
C947   C     0.54753   0.64280   0.72676   0.00000  Uiso   1.00
C948   C     0.47382   0.49927   0.85003   0.00000  Uiso   1.00
C949   C     0.54624   0.35100   0.74238   0.00000  Uiso   1.00
C950   C     0.50324   0.37510   0.74593   0.00000  Uiso   1.00
C951   C     0.46266   0.35574   0.73809   0.00000  Uiso   1.00
C952   C     0.46209   0.64668   0.73139   0.00000  Uiso   1.00
C953   C     0.50335   0.62294   0.73273   0.00000  Uiso   1.00
C954   C     0.63223   0.52205   0.78821   0.00000  Uiso   1.00
C955   C     0.34821   0.52023   0.78823   0.00000  Uiso   1.00
C956   C     0.36903   0.48031   0.71105   0.00000  Uiso   1.00
C957   C     0.65297   0.48051   0.71095   0.00000  Uiso   1.00
C958   C     0.50065   0.42041   0.75030   0.00000  Uiso   1.00
C959   C     0.52602   0.49875   0.65012   0.00000  Uiso   1.00
C960   C     0.58825   0.45352   0.51680   0.00000  Uiso   1.00
C961   C     0.54031   0.49158   0.59367   0.00000  Uiso   1.00
C962   C     0.41430   0.52355   0.93257   0.00000  Uiso   1.00
C963   C     0.40157   0.53213   0.98581   0.00000  Uiso   1.00
C964   C     0.43288   0.52066   0.51429   0.00000  Uiso   1.00
Cu965  Cu    0.45311   0.49999   0.75000   0.00000  Uiso   1.00
Cu966  Cu    0.54689   0.50001   0.75000   0.00000  Uiso   1.00
H967   H     0.43074   0.37371   0.73733   0.00000  Uiso   1.00
H968   H     0.39629   0.46419   0.67983   0.00000  Uiso   1.00
H969   H     0.64346   0.46498   0.67944   0.00000  Uiso   1.00
H970   H     0.62000   0.43424   0.99785   0.00000  Uiso   1.00
H971   H     0.47725   0.52354   0.58809   0.00000  Uiso   1.00
H972   H     0.39088   0.53535   0.91081   0.00000  Uiso   1.00
H973   H     0.42085   0.52894   0.55523   0.00000  Uiso   1.00
H974   H     0.36796   0.54904   0.50485   0.00000  Uiso   1.00
H975   H     0.53005   0.44354   0.87722   0.00000  Uiso   1.00
N976   N     0.38265   0.49999   0.74998   0.00000  Uiso   1.00
N977   N     0.61735   0.50002   0.75000   0.00000  Uiso   1.00
O978   O     0.46042   0.56011   0.75001   0.00000  Uiso   1.00
O979   O     0.53961   0.56012   0.75001   0.00000  Uiso   1.00
O980   O     0.44108   0.49998   0.82549   0.00000  Uiso   1.00
O981   O     0.52027   0.49999   0.82549   0.00000  Uiso   1.00
O982   O     0.46039   0.43988   0.75000   0.00000  Uiso   1.00
O983   O     0.53958   0.43989   0.75000   0.00000  Uiso   1.00
O984   O     0.47973   0.50001   0.67451   0.00000  Uiso   1.00
O985   O     0.55892   0.50002   0.67451   0.00000  Uiso   1.00
F986   F     0.61444   0.45552   0.59266   0.00000  Uiso   1.00
S987   S     0.59608   0.36867   0.76315   0.00000  Uiso   1.00
O988   O     0.57918   0.39857   0.80852   0.00000  Uiso   1.00
O989   O     0.62127   0.66638   0.78004   0.00000  Uiso   1.00
O990   O     0.63595   0.39127   0.71349   0.00000  Uiso   1.00
H991   H     0.66555   0.39441   0.72488   0.00000  Uiso   1.00
S992   S     0.41198   0.62614   0.71444   0.00000  Uiso   1.00
O993   O     0.37637   0.61085   0.76279   0.00000  Uiso   1.00
O994   O     0.38747   0.65897   0.69180   0.00000  Uiso   1.00
O995   O     0.43059   0.58732   0.67004   0.00000  Uiso   1.00
H996   H     0.40026   0.57453   0.66770   0.00000  Uiso   1.00
S997   S     0.59520   0.55446   0.84106   0.00000  Uiso   1.00
O998   O     0.54773   0.57131   0.83679   0.00000  Uiso   1.00
O999   O     0.58574   0.53062   0.89006   0.00000  Uiso   1.00
O1000  O     0.62754   0.59556   0.84830   0.00000  Uiso   1.00
H1001  H     0.60984   0.60804   0.88284   0.00000  Uiso   1.00
F1002  F     0.36218   0.53949   0.82657   0.00000  Uiso   1.00
F1003  F     0.59614   0.42005   0.91763   0.00000  Uiso   1.00
S1004  S     0.60244   0.61960   0.68514   0.00000  Uiso   1.00
O1005  O     0.63015   0.59791   0.71677   0.00000  Uiso   1.00
O1006  O     0.59041   0.58890   0.64835   0.00000  Uiso   1.00
O1007  O     0.63741   0.65563   0.64974   0.00000  Uiso   1.00
H1008  H     0.66450   0.64004   0.62448   0.00000  Uiso   1.00
C1009  C     0.83462   0.57870   0.74327   0.00000  Uiso   1.00
C1010  C     0.81041   0.49851   0.99013   0.00000  Uiso   1.00
C1011  C     0.82020   0.48577   0.93716   0.00000  Uiso   1.00
C1012  C     0.84523   0.48847   0.51660   0.00000  Uiso   1.00
C1013  C     0.88654   0.46287   0.99137   0.00000  Uiso   1.00
C1014  C     0.89178   0.44636   0.94149   0.00000  Uiso   1.00
C1015  C     0.85870   0.45740   0.91516   0.00000  Uiso   1.00
C1016  C     0.84047   0.50332   0.56733   0.00000  Uiso   1.00
C1017  C     0.91514   0.46759   0.56779   0.00000  Uiso   1.00
C1018  C     0.79090   0.50144   0.90743   0.00000  Uiso   1.00
C1019  C     0.88087   0.64280   0.72676   0.00000  Uiso   1.00
C1020  C     0.80715   0.49927   0.85003   0.00000  Uiso   1.00
C1021  C     0.87958   0.35100   0.74238   0.00000  Uiso   1.00
C1022  C     0.83657   0.37510   0.74593   0.00000  Uiso   1.00
C1023  C     0.79599   0.35574   0.73809   0.00000  Uiso   1.00
C1024  C     0.79543   0.64668   0.73139   0.00000  Uiso   1.00
C1025  C     0.83668   0.62294   0.73273   0.00000  Uiso   1.00
C1026  C     0.96557   0.52205   0.78821   0.00000  Uiso   1.00
C1027  C     0.68155   0.52023   0.78823   0.00000  Uiso   1.00
C1028  C     0.70236   0.48031   0.71105   0.00000  Uiso   1.00
C1029  C     0.98630   0.48051   0.71095   0.00000  Uiso   1.00
C1030  C     0.83398   0.42041   0.75030   0.00000  Uiso   1.00
C1031  C     0.85936   0.49875   0.65012   0.00000  Uiso   1.00
C1032  C     0.92159   0.45352   0.51680   0.00000  Uiso   1.00
C1033  C     0.87364   0.49158   0.59367   0.00000  Uiso   1.00
C1034  C     0.74764   0.52355   0.93257   0.00000  Uiso   1.00
C1035  C     0.73490   0.53213   0.98581   0.00000  Uiso   1.00
C1036  C     0.76621   0.52066   0.51429   0.00000  Uiso   1.00
Cu1037 Cu    0.78645   0.49999   0.75000   0.00000  Uiso   1.00
Cu1038 Cu    0.88022   0.50001   0.75000   0.00000  Uiso   1.00
H1039  H     0.76408   0.37371   0.73733   0.00000  Uiso   1.00
H1040  H     0.72962   0.46419   0.67983   0.00000  Uiso   1.00
H1041  H     0.97679   0.46498   0.67944   0.00000  Uiso   1.00
H1042  H     0.95333   0.43424   0.99785   0.00000  Uiso   1.00
H1043  H     0.81058   0.52354   0.58809   0.00000  Uiso   1.00
H1044  H     0.72421   0.53535   0.91081   0.00000  Uiso   1.00
H1045  H     0.75418   0.52894   0.55523   0.00000  Uiso   1.00
H1046  H     0.70129   0.54904   0.50485   0.00000  Uiso   1.00
H1047  H     0.86338   0.44354   0.87722   0.00000  Uiso   1.00
N1048  N     0.71598   0.49999   0.74998   0.00000  Uiso   1.00
N1049  N     0.95069   0.50002   0.75000   0.00000  Uiso   1.00
O1050  O     0.79375   0.56011   0.75001   0.00000  Uiso   1.00
O1051  O     0.87294   0.56012   0.75001   0.00000  Uiso   1.00
O1052  O     0.77441   0.49998   0.82549   0.00000  Uiso   1.00
O1053  O     0.85360   0.49999   0.82549   0.00000  Uiso   1.00
O1054  O     0.79373   0.43988   0.75000   0.00000  Uiso   1.00
O1055  O     0.87292   0.43989   0.75000   0.00000  Uiso   1.00
O1056  O     0.81306   0.50001   0.67451   0.00000  Uiso   1.00
O1057  O     0.89225   0.50002   0.67451   0.00000  Uiso   1.00
F1058  F     0.94777   0.45552   0.59266   0.00000  Uiso   1.00
S1059  S     0.92942   0.36867   0.76315   0.00000  Uiso   1.00
O1060  O     0.91252   0.39857   0.80852   0.00000  Uiso   1.00
O1061  O     0.95461   0.66638   0.78004   0.00000  Uiso   1.00
O1062  O     0.96928   0.39127   0.71349   0.00000  Uiso   1.00
H1063  H     0.99888   0.39441   0.72488   0.00000  Uiso   1.00
S1064  S     0.74531   0.62614   0.71444   0.00000  Uiso   1.00
O1065  O     0.70971   0.61085   0.76279   0.00000  Uiso   1.00
O1066  O     0.72080   0.65897   0.69180   0.00000  Uiso   1.00
O1067  O     0.76392   0.58732   0.67004   0.00000  Uiso   1.00
H1068  H     0.73359   0.57453   0.66770   0.00000  Uiso   1.00
S1069  S     0.92853   0.55446   0.84106   0.00000  Uiso   1.00
O1070  O     0.88107   0.57131   0.83679   0.00000  Uiso   1.00
O1071  O     0.91908   0.53062   0.89006   0.00000  Uiso   1.00
O1072  O     0.96087   0.59556   0.84830   0.00000  Uiso   1.00
H1073  H     0.94317   0.60804   0.88284   0.00000  Uiso   1.00
F1074  F     0.69551   0.53949   0.82657   0.00000  Uiso   1.00
F1075  F     0.92947   0.42005   0.91763   0.00000  Uiso   1.00
S1076  S     0.93577   0.61960   0.68514   0.00000  Uiso   1.00
O1077  O     0.96348   0.59791   0.71677   0.00000  Uiso   1.00
O1078  O     0.92374   0.58890   0.64835   0.00000  Uiso   1.00
O1079  O     0.97074   0.65563   0.64974   0.00000  Uiso   1.00
H1080  H     0.99783   0.64004   0.62448   0.00000  Uiso   1.00
C1081  C     0.16795   0.91203   0.74327   0.00000  Uiso   1.00
C1082  C     0.14375   0.83184   0.99013   0.00000  Uiso   1.00
C1083  C     0.15353   0.81910   0.93716   0.00000  Uiso   1.00
C1084  C     0.17856   0.82180   0.51660   0.00000  Uiso   1.00
C1085  C     0.21987   0.79620   0.99137   0.00000  Uiso   1.00
C1086  C     0.22511   0.77969   0.94149   0.00000  Uiso   1.00
C1087  C     0.19203   0.79073   0.91516   0.00000  Uiso   1.00
C1088  C     0.17380   0.83666   0.56733   0.00000  Uiso   1.00
C1089  C     0.24848   0.80092   0.56779   0.00000  Uiso   1.00
C1090  C     0.12423   0.83477   0.90743   0.00000  Uiso   1.00
C1091  C     0.21420   0.97613   0.72676   0.00000  Uiso   1.00
C1092  C     0.14049   0.83260   0.85003   0.00000  Uiso   1.00
C1093  C     0.21291   0.68433   0.74238   0.00000  Uiso   1.00
C1094  C     0.16990   0.70843   0.74593   0.00000  Uiso   1.00
C1095  C     0.12933   0.68907   0.73809   0.00000  Uiso   1.00
C1096  C     0.12876   0.98001   0.73139   0.00000  Uiso   1.00
C1097  C     0.17002   0.95627   0.73273   0.00000  Uiso   1.00
C1098  C     0.29890   0.85538   0.78821   0.00000  Uiso   1.00
C1099  C     0.01488   0.85356   0.78823   0.00000  Uiso   1.00
C1100  C     0.03569   0.81365   0.71105   0.00000  Uiso   1.00
C1101  C     0.31964   0.81384   0.71095   0.00000  Uiso   1.00
C1102  C     0.16732   0.75374   0.75030   0.00000  Uiso   1.00
C1103  C     0.19269   0.83208   0.65012   0.00000  Uiso   1.00
C1104  C     0.25492   0.78685   0.51680   0.00000  Uiso   1.00
C1105  C     0.20698   0.82491   0.59367   0.00000  Uiso   1.00
C1106  C     0.08097   0.85688   0.93257   0.00000  Uiso   1.00
C1107  C     0.06824   0.86546   0.98581   0.00000  Uiso   1.00
C1108  C     0.09955   0.85400   0.51429   0.00000  Uiso   1.00
Cu1109 Cu    0.11978   0.83333   0.75000   0.00000  Uiso   1.00
Cu1110 Cu    0.21355   0.83334   0.75000   0.00000  Uiso   1.00
H1111  H     0.09741   0.70705   0.73733   0.00000  Uiso   1.00
H1112  H     0.06296   0.79752   0.67983   0.00000  Uiso   1.00
H1113  H     0.31012   0.79831   0.67944   0.00000  Uiso   1.00
H1114  H     0.28667   0.76757   0.99785   0.00000  Uiso   1.00
H1115  H     0.14391   0.85687   0.58809   0.00000  Uiso   1.00
H1116  H     0.05755   0.86868   0.91081   0.00000  Uiso   1.00
H1117  H     0.08752   0.86227   0.55523   0.00000  Uiso   1.00
H1118  H     0.03462   0.88238   0.50485   0.00000  Uiso   1.00
H1119  H     0.19671   0.77688   0.87722   0.00000  Uiso   1.00
N1120  N     0.04931   0.83332   0.74998   0.00000  Uiso   1.00
N1121  N     0.28402   0.83335   0.75000   0.00000  Uiso   1.00
O1122  O     0.12708   0.89345   0.75001   0.00000  Uiso   1.00
O1123  O     0.20627   0.89346   0.75001   0.00000  Uiso   1.00
O1124  O     0.10775   0.83332   0.82549   0.00000  Uiso   1.00
O1125  O     0.18694   0.83333   0.82549   0.00000  Uiso   1.00
O1126  O     0.12706   0.77321   0.75000   0.00000  Uiso   1.00
O1127  O     0.20625   0.77322   0.75000   0.00000  Uiso   1.00
O1128  O     0.14640   0.83334   0.67451   0.00000  Uiso   1.00
O1129  O     0.22559   0.83335   0.67451   0.00000  Uiso   1.00
F1130  F     0.28110   0.78885   0.59266   0.00000  Uiso   1.00
S1131  S     0.26275   0.70201   0.76315   0.00000  Uiso   1.00
O1132  O     0.24585   0.73190   0.80852   0.00000  Uiso   1.00
O1133  O     0.28794   0.99971   0.78004   0.00000  Uiso   1.00
O1134  O     0.30262   0.72460   0.71349   0.00000  Uiso   1.00
H1135  H     0.33221   0.72774   0.72488   0.00000  Uiso   1.00
S1136  S     0.07864   0.95948   0.71444   0.00000  Uiso   1.00
O1137  O     0.04304   0.94418   0.76279   0.00000  Uiso   1.00
O1138  O     0.05414   0.99230   0.69180   0.00000  Uiso   1.00
O1139  O     0.09726   0.92066   0.67004   0.00000  Uiso   1.00
H1140  H     0.06692   0.90787   0.66770   0.00000  Uiso   1.00
S1141  S     0.26187   0.88779   0.84106   0.00000  Uiso   1.00
O1142  O     0.21440   0.90464   0.83679   0.00000  Uiso   1.00
O1143  O     0.25241   0.86395   0.89006   0.00000  Uiso   1.00
O1144  O     0.29420   0.92889   0.84830   0.00000  Uiso   1.00
H1145  H     0.27650   0.94138   0.88284   0.00000  Uiso   1.00
F1146  F     0.02885   0.87283   0.82657   0.00000  Uiso   1.00
F1147  F     0.26280   0.75338   0.91763   0.00000  Uiso   1.00
S1148  S     0.26911   0.95294   0.68514   0.00000  Uiso   1.00
O1149  O     0.29681   0.93124   0.71677   0.00000  Uiso   1.00
O1150  O     0.25708   0.92223   0.64835   0.00000  Uiso   1.00
O1151  O     0.30408   0.98896   0.64974   0.00000  Uiso   1.00
H1152  H     0.33116   0.97337   0.62448   0.00000  Uiso   1.00
C1153  C     0.50129   0.91203   0.74327   0.00000  Uiso   1.00
C1154  C     0.47708   0.83184   0.99013   0.00000  Uiso   1.00
C1155  C     0.48687   0.81910   0.93716   0.00000  Uiso   1.00
C1156  C     0.51190   0.82180   0.51660   0.00000  Uiso   1.00
C1157  C     0.55320   0.79620   0.99137   0.00000  Uiso   1.00
C1158  C     0.55844   0.77969   0.94149   0.00000  Uiso   1.00
C1159  C     0.52536   0.79073   0.91516   0.00000  Uiso   1.00
C1160  C     0.50713   0.83666   0.56733   0.00000  Uiso   1.00
C1161  C     0.58181   0.80092   0.56779   0.00000  Uiso   1.00
C1162  C     0.45757   0.83477   0.90743   0.00000  Uiso   1.00
C1163  C     0.54753   0.97613   0.72676   0.00000  Uiso   1.00
C1164  C     0.47382   0.83260   0.85003   0.00000  Uiso   1.00
C1165  C     0.54624   0.68433   0.74238   0.00000  Uiso   1.00
C1166  C     0.50324   0.70843   0.74593   0.00000  Uiso   1.00
C1167  C     0.46266   0.68907   0.73809   0.00000  Uiso   1.00
C1168  C     0.46209   0.98001   0.73139   0.00000  Uiso   1.00
C1169  C     0.50335   0.95627   0.73273   0.00000  Uiso   1.00
C1170  C     0.63223   0.85538   0.78821   0.00000  Uiso   1.00
C1171  C     0.34821   0.85356   0.78823   0.00000  Uiso   1.00
C1172  C     0.36903   0.81365   0.71105   0.00000  Uiso   1.00
C1173  C     0.65297   0.81384   0.71095   0.00000  Uiso   1.00
C1174  C     0.50065   0.75374   0.75030   0.00000  Uiso   1.00
C1175  C     0.52602   0.83208   0.65012   0.00000  Uiso   1.00
C1176  C     0.58825   0.78685   0.51680   0.00000  Uiso   1.00
C1177  C     0.54031   0.82491   0.59367   0.00000  Uiso   1.00
C1178  C     0.41430   0.85688   0.93257   0.00000  Uiso   1.00
C1179  C     0.40157   0.86546   0.98581   0.00000  Uiso   1.00
C1180  C     0.43288   0.85400   0.51429   0.00000  Uiso   1.00
Cu1181 Cu    0.45311   0.83333   0.75000   0.00000  Uiso   1.00
Cu1182 Cu    0.54689   0.83334   0.75000   0.00000  Uiso   1.00
H1183  H     0.43074   0.70705   0.73733   0.00000  Uiso   1.00
H1184  H     0.39629   0.79752   0.67983   0.00000  Uiso   1.00
H1185  H     0.64346   0.79831   0.67944   0.00000  Uiso   1.00
H1186  H     0.62000   0.76757   0.99785   0.00000  Uiso   1.00
H1187  H     0.47725   0.85687   0.58809   0.00000  Uiso   1.00
H1188  H     0.39088   0.86868   0.91081   0.00000  Uiso   1.00
H1189  H     0.42085   0.86227   0.55523   0.00000  Uiso   1.00
H1190  H     0.36796   0.88238   0.50485   0.00000  Uiso   1.00
H1191  H     0.53005   0.77688   0.87722   0.00000  Uiso   1.00
N1192  N     0.38265   0.83332   0.74998   0.00000  Uiso   1.00
N1193  N     0.61735   0.83335   0.75000   0.00000  Uiso   1.00
O1194  O     0.46042   0.89345   0.75001   0.00000  Uiso   1.00
O1195  O     0.53961   0.89346   0.75001   0.00000  Uiso   1.00
O1196  O     0.44108   0.83332   0.82549   0.00000  Uiso   1.00
O1197  O     0.52027   0.83333   0.82549   0.00000  Uiso   1.00
O1198  O     0.46039   0.77321   0.75000   0.00000  Uiso   1.00
O1199  O     0.53958   0.77322   0.75000   0.00000  Uiso   1.00
O1200  O     0.47973   0.83334   0.67451   0.00000  Uiso   1.00
O1201  O     0.55892   0.83335   0.67451   0.00000  Uiso   1.00
F1202  F     0.61444   0.78885   0.59266   0.00000  Uiso   1.00
S1203  S     0.59608   0.70201   0.76315   0.00000  Uiso   1.00
O1204  O     0.57918   0.73190   0.80852   0.00000  Uiso   1.00
O1205  O     0.62127   0.99971   0.78004   0.00000  Uiso   1.00
O1206  O     0.63595   0.72460   0.71349   0.00000  Uiso   1.00
H1207  H     0.66555   0.72774   0.72488   0.00000  Uiso   1.00
S1208  S     0.41198   0.95948   0.71444   0.00000  Uiso   1.00
O1209  O     0.37637   0.94418   0.76279   0.00000  Uiso   1.00
O1210  O     0.38747   0.99230   0.69180   0.00000  Uiso   1.00
O1211  O     0.43059   0.92066   0.67004   0.00000  Uiso   1.00
H1212  H     0.40026   0.90787   0.66770   0.00000  Uiso   1.00
S1213  S     0.59520   0.88779   0.84106   0.00000  Uiso   1.00
O1214  O     0.54773   0.90464   0.83679   0.00000  Uiso   1.00
O1215  O     0.58574   0.86395   0.89006   0.00000  Uiso   1.00
O1216  O     0.62754   0.92889   0.84830   0.00000  Uiso   1.00
H1217  H     0.60984   0.94138   0.88284   0.00000  Uiso   1.00
F1218  F     0.36218   0.87283   0.82657   0.00000  Uiso   1.00
F1219  F     0.59614   0.75338   0.91763   0.00000  Uiso   1.00
S1220  S     0.60244   0.95294   0.68514   0.00000  Uiso   1.00
O1221  O     0.63015   0.93124   0.71677   0.00000  Uiso   1.00
O1222  O     0.59041   0.92223   0.64835   0.00000  Uiso   1.00
O1223  O     0.63741   0.98896   0.64974   0.00000  Uiso   1.00
H1224  H     0.66450   0.97337   0.62448   0.00000  Uiso   1.00
C1225  C     0.83462   0.91203   0.74327   0.00000  Uiso   1.00
C1226  C     0.81041   0.83184   0.99013   0.00000  Uiso   1.00
C1227  C     0.82020   0.81910   0.93716   0.00000  Uiso   1.00
C1228  C     0.84523   0.82180   0.51660   0.00000  Uiso   1.00
C1229  C     0.88654   0.79620   0.99137   0.00000  Uiso   1.00
C1230  C     0.89178   0.77969   0.94149   0.00000  Uiso   1.00
C1231  C     0.85870   0.79073   0.91516   0.00000  Uiso   1.00
C1232  C     0.84047   0.83666   0.56733   0.00000  Uiso   1.00
C1233  C     0.91514   0.80092   0.56779   0.00000  Uiso   1.00
C1234  C     0.79090   0.83477   0.90743   0.00000  Uiso   1.00
C1235  C     0.88087   0.97613   0.72676   0.00000  Uiso   1.00
C1236  C     0.80715   0.83260   0.85003   0.00000  Uiso   1.00
C1237  C     0.87958   0.68433   0.74238   0.00000  Uiso   1.00
C1238  C     0.83657   0.70843   0.74593   0.00000  Uiso   1.00
C1239  C     0.79599   0.68907   0.73809   0.00000  Uiso   1.00
C1240  C     0.79543   0.98001   0.73139   0.00000  Uiso   1.00
C1241  C     0.83668   0.95627   0.73273   0.00000  Uiso   1.00
C1242  C     0.96557   0.85538   0.78821   0.00000  Uiso   1.00
C1243  C     0.68155   0.85356   0.78823   0.00000  Uiso   1.00
C1244  C     0.70236   0.81365   0.71105   0.00000  Uiso   1.00
C1245  C     0.98630   0.81384   0.71095   0.00000  Uiso   1.00
C1246  C     0.83398   0.75374   0.75030   0.00000  Uiso   1.00
C1247  C     0.85936   0.83208   0.65012   0.00000  Uiso   1.00
C1248  C     0.92159   0.78685   0.51680   0.00000  Uiso   1.00
C1249  C     0.87364   0.82491   0.59367   0.00000  Uiso   1.00
C1250  C     0.74764   0.85688   0.93257   0.00000  Uiso   1.00
C1251  C     0.73490   0.86546   0.98581   0.00000  Uiso   1.00
C1252  C     0.76621   0.85400   0.51429   0.00000  Uiso   1.00
Cu1253 Cu    0.78645   0.83333   0.75000   0.00000  Uiso   1.00
Cu1254 Cu    0.88022   0.83334   0.75000   0.00000  Uiso   1.00
H1255  H     0.76408   0.70705   0.73733   0.00000  Uiso   1.00
H1256  H     0.72962   0.79752   0.67983   0.00000  Uiso   1.00
H1257  H     0.97679   0.79831   0.67944   0.00000  Uiso   1.00
H1258  H     0.95333   0.76757   0.99785   0.00000  Uiso   1.00
H1259  H     0.81058   0.85687   0.58809   0.00000  Uiso   1.00
H1260  H     0.72421   0.86868   0.91081   0.00000  Uiso   1.00
H1261  H     0.75418   0.86227   0.55523   0.00000  Uiso   1.00
H1262  H     0.70129   0.88238   0.50485   0.00000  Uiso   1.00
H1263  H     0.86338   0.77688   0.87722   0.00000  Uiso   1.00
N1264  N     0.71598   0.83332   0.74998   0.00000  Uiso   1.00
N1265  N     0.95069   0.83335   0.75000   0.00000  Uiso   1.00
O1266  O     0.79375   0.89345   0.75001   0.00000  Uiso   1.00
O1267  O     0.87294   0.89346   0.75001   0.00000  Uiso   1.00
O1268  O     0.77441   0.83332   0.82549   0.00000  Uiso   1.00
O1269  O     0.85360   0.83333   0.82549   0.00000  Uiso   1.00
O1270  O     0.79373   0.77321   0.75000   0.00000  Uiso   1.00
O1271  O     0.87292   0.77322   0.75000   0.00000  Uiso   1.00
O1272  O     0.81306   0.83334   0.67451   0.00000  Uiso   1.00
O1273  O     0.89225   0.83335   0.67451   0.00000  Uiso   1.00
F1274  F     0.94777   0.78885   0.59266   0.00000  Uiso   1.00
S1275  S     0.92942   0.70201   0.76315   0.00000  Uiso   1.00
O1276  O     0.91252   0.73190   0.80852   0.00000  Uiso   1.00
O1277  O     0.95461   0.99971   0.78004   0.00000  Uiso   1.00
O1278  O     0.96928   0.72460   0.71349   0.00000  Uiso   1.00
H1279  H     0.99888   0.72774   0.72488   0.00000  Uiso   1.00
S1280  S     0.74531   0.95948   0.71444   0.00000  Uiso   1.00
O1281  O     0.70971   0.94418   0.76279   0.00000  Uiso   1.00
O1282  O     0.72080   0.99230   0.69180   0.00000  Uiso   1.00
O1283  O     0.76392   0.92066   0.67004   0.00000  Uiso   1.00
H1284  H     0.73359   0.90787   0.66770   0.00000  Uiso   1.00
S1285  S     0.92853   0.88779   0.84106   0.00000  Uiso   1.00
O1286  O     0.88107   0.90464   0.83679   0.00000  Uiso   1.00
O1287  O     0.91908   0.86395   0.89006   0.00000  Uiso   1.00
O1288  O     0.96087   0.92889   0.84830   0.00000  Uiso   1.00
H1289  H     0.94317   0.94138   0.88284   0.00000  Uiso   1.00
F1290  F     0.69551   0.87283   0.82657   0.00000  Uiso   1.00
F1291  F     0.92947   0.75338   0.91763   0.00000  Uiso   1.00
S1292  S     0.93577   0.95294   0.68514   0.00000  Uiso   1.00
O1293  O     0.96348   0.93124   0.71677   0.00000  Uiso   1.00
O1294  O     0.92374   0.92223   0.64835   0.00000  Uiso   1.00
O1295  O     0.97074   0.98896   0.64974   0.00000  Uiso   1.00
H1296  H     0.99783   0.97337   0.62448   0.00000  Uiso   1.00
loop_
_geom_bond_atom_site_label_1
_geom_bond_atom_site_label_2
_geom_bond_distance
_geom_bond_site_symmetry_2
_ccdc_geom_bond_type
C1     O42     1.298   .     A
C1     C17     1.472   .     S
C1     O43     1.305   .     A
C2     C3      1.417   .     A
C2     C652    1.423   .     S
C2     C676    1.418   .     S
C3     C10     1.414   .     A
C3     C7      1.405   .     A
C4     C8      1.402   .     A
C4     C650    1.423   1_554 S
C4     C653    1.422   1_554 S
C5     C6      1.396   .     A
C5     C652    1.422   .     S
C5     C672    1.404   .     S
C6     C7      1.387   .     A
C6     F67     1.359   .     S
C7     H39     1.075   .     S
C8     C25     1.395   .     A
C8     H35     1.077   .     S
C9     C25     1.402   .     A
C9     C24     1.392   .     A
C9     F50     1.357   .     S
C10    C26     1.402   .     A
C10    C12     1.473   .     S
C11    S68     1.785   .     S
C11    C17     1.404   .     A
C11    C229    1.402   .     S
C12    O45     1.304   .     A
C12    O44     1.297   .     A
C13    C14     1.427   .     A
C13    S51     1.782   .     S
C13    C443    1.402   1_545 S
C14    C15     1.402   .     A
C14    C22     1.474   .     S
C15    H31     1.083   .     S
C15    C448    1.388   1_545 S
C16    S56     1.770   .     S
C16    C17     1.411   .     A
C16    C231    1.388   .     S
C18    S61     1.805   .     S
C18    N41     1.409   .     A
C18    C91     1.416   .     S
C19    N40     1.347   .     A
C19    F66     1.355   .     S
C19    C162    1.416   1_455 S
C20    N40     1.369   .     A
C20    H32     1.081   .     S
C20    C165    1.419   1_455 S
C21    N41     1.365   .     A
C21    H33     1.080   .     S
C21    C92     1.419   .     S
C22    O47     1.294   .     A
C22    O46     1.309   .     A
C23    C25     1.461   .     S
C23    O49     1.298   .     A
C23    O48     1.298   .     A
C24    C653    1.404   1_554 S
C24    H682    1.084   1_554 S
C26    C27     1.388   .     A
C26    H36     1.082   .     S
C27    C676    1.391   .     S
C27    H686    1.083   .     S
C28    H37     1.077   .     S
C28    C675    1.391   1_554 S
C28    C650    1.418   1_554 S
Cu29   O42     1.971   .     S
Cu29   O48     1.945   .     S
Cu29   O46     1.962   .     S
Cu29   Cu30    2.693   .     S
Cu29   N40     2.024   .     S
Cu29   O44     1.954   .     S
Cu30   O45     1.945   .     S
Cu30   N41     2.024   .     S
Cu30   O49     1.954   .     S
Cu30   O43     1.962   .     S
Cu30   O47     1.971   .     S
H34    C672    1.084   .     S
H38    C675    1.083   1_554 S
S51    O54     1.677   .     S
S51    O52     1.499   .     D
S51    O485    1.501   1_545 S
O53    S267    1.501   .     S
O54    H55     0.990   .     S
S56    O59     1.683   .     S
S56    O58     1.502   .     D
S56    O57     1.500   .     D
O59    H60     0.991   .     S
S61    O64     1.683   .     S
S61    O62     1.495   .     D
S61    O63     1.500   .     D
O64    H65     0.991   .     S
S68    O69     1.501   .     D
S68    O71     1.680   .     S
S68    O70     1.504   .     D
O71    H72     0.991   .     S
C73    O114    1.298   .     A
C73    C89     1.472   .     S
C73    O115    1.305   .     A
C74    C75     1.417   .     A
C74    C724    1.423   .     S
C74    C748    1.418   .     S
C75    C82     1.414   .     A
C75    C79     1.405   .     A
C76    C80     1.402   .     A
C76    C722    1.423   1_554 S
C76    C725    1.422   1_554 S
C77    C78     1.396   .     A
C77    C724    1.422   .     S
C77    C744    1.404   .     S
C78    C79     1.387   .     A
C78    F139    1.359   .     S
C79    H111    1.075   .     S
C80    C97     1.395   .     A
C80    H107    1.077   .     S
C81    C97     1.402   .     A
C81    C96     1.392   .     A
C81    F122    1.357   .     S
C82    C98     1.402   .     A
C82    C84     1.473   .     S
C83    S140    1.785   .     S
C83    C89     1.404   .     A
C83    C301    1.402   .     S
C84    O117    1.304   .     A
C84    O116    1.297   .     A
C85    C86     1.427   .     A
C85    S123    1.782   .     S
C85    C515    1.402   1_545 S
C86    C87     1.402   .     A
C86    C94     1.474   .     S
C87    H103    1.083   .     S
C87    C520    1.388   1_545 S
C88    S128    1.770   .     S
C88    C89     1.411   .     A
C88    C303    1.388   .     S
C90    S133    1.805   .     S
C90    N113    1.409   .     A
C90    C163    1.416   .     S
C91    N112    1.347   .     A
C91    F138    1.355   .     S
C92    N112    1.369   .     A
C92    H104    1.081   .     S
C93    N113    1.365   .     A
C93    H105    1.080   .     S
C93    C164    1.419   .     S
C94    O119    1.294   .     A
C94    O118    1.309   .     A
C95    C97     1.461   .     S
C95    O121    1.298   .     A
C95    O120    1.298   .     A
C96    C725    1.404   1_554 S
C96    H754    1.084   1_554 S
C98    C99     1.388   .     A
C98    H108    1.082   .     S
C99    C748    1.391   .     S
C99    H758    1.083   .     S
C100   H109    1.077   .     S
C100   C747    1.391   1_554 S
C100   C722    1.418   1_554 S
Cu101  O114    1.971   .     S
Cu101  O120    1.945   .     S
Cu101  O118    1.962   .     S
Cu101  Cu102   2.693   .     S
Cu101  N112    2.024   .     S
Cu101  O116    1.954   .     S
Cu102  O117    1.945   .     S
Cu102  N113    2.024   .     S
Cu102  O121    1.954   .     S
Cu102  O115    1.962   .     S
Cu102  O119    1.971   .     S
H106   C744    1.084   .     S
H110   C747    1.083   1_554 S
S123   O126    1.677   .     S
S123   O124    1.499   .     D
S123   O557    1.501   1_545 S
O125   S339    1.501   .     S
O126   H127    0.990   .     S
S128   O131    1.683   .     S
S128   O130    1.502   .     D
S128   O129    1.500   .     D
O131   H132    0.991   .     S
S133   O136    1.683   .     S
S133   O134    1.495   .     D
S133   O135    1.500   .     D
O136   H137    0.991   .     S
S140   O141    1.501   .     D
S140   O143    1.680   .     S
S140   O142    1.504   .     D
O143   H144    0.991   .     S
C145   O186    1.298   .     A
C145   C161    1.472   .     S
C145   O187    1.305   .     A
C146   C147    1.417   .     A
C146   C796    1.423   .     S
C146   C820    1.418   .     S
C147   C154    1.414   .     A
C147   C151    1.405   .     A
C148   C152    1.402   .     A
C148   C794    1.423   1_554 S
C148   C797    1.422   1_554 S
C149   C150    1.396   .     A
C149   C796    1.422   .     S
C149   C816    1.404   .     S
C150   C151    1.387   .     A
C150   F211    1.359   .     S
C151   H183    1.075   .     S
C152   C169    1.395   .     A
C152   H179    1.077   .     S
C153   C169    1.402   .     A
C153   C168    1.392   .     A
C153   F194    1.357   .     S
C154   C170    1.402   .     A
C154   C156    1.473   .     S
C155   S212    1.785   .     S
C155   C161    1.404   .     A
C155   C373    1.402   .     S
C156   O189    1.304   .     A
C156   O188    1.297   .     A
C157   C158    1.427   .     A
C157   S195    1.782   .     S
C157   C587    1.402   1_545 S
C158   C159    1.402   .     A
C158   C166    1.474   .     S
C159   H175    1.083   .     S
C159   C592    1.388   1_545 S
C160   S200    1.770   .     S
C160   C161    1.411   .     A
C160   C375    1.388   .     S
C162   S205    1.805   .     S
C162   N185    1.409   .     A
C162   C19     1.416   1_655 S
C163   N184    1.347   .     A
C163   F210    1.355   .     S
C164   N184    1.369   .     A
C164   H176    1.081   .     S
C165   N185    1.365   .     A
C165   H177    1.080   .     S
C165   C20     1.419   1_655 S
C166   O191    1.294   .     A
C166   O190    1.309   .     A
C167   C169    1.461   .     S
C167   O193    1.298   .     A
C167   O192    1.298   .     A
C168   C797    1.404   1_554 S
C168   H826    1.084   1_554 S
C170   C171    1.388   .     A
C170   H180    1.082   .     S
C171   C820    1.391   .     S
C171   H830    1.083   .     S
C172   H181    1.077   .     S
C172   C819    1.391   1_554 S
C172   C794    1.418   1_554 S
Cu173  O186    1.971   .     S
Cu173  O192    1.945   .     S
Cu173  O190    1.962   .     S
Cu173  Cu174   2.693   .     S
Cu173  N184    2.024   .     S
Cu173  O188    1.954   .     S
Cu174  O189    1.945   .     S
Cu174  N185    2.024   .     S
Cu174  O193    1.954   .     S
Cu174  O187    1.962   .     S
Cu174  O191    1.971   .     S
H178   C816    1.084   .     S
H182   C819    1.083   1_554 S
S195   O198    1.677   .     S
S195   O196    1.499   .     D
S195   O629    1.501   1_545 S
O197   S411    1.501   .     S
O198   H199    0.990   .     S
S200   O203    1.683   .     S
S200   O202    1.502   .     D
S200   O201    1.500   .     D
O203   H204    0.991   .     S
S205   O208    1.683   .     S
S205   O206    1.495   .     D
S205   O207    1.500   .     D
O208   H209    0.991   .     S
S212   O213    1.501   .     D
S212   O215    1.680   .     S
S212   O214    1.504   .     D
O215   H216    0.991   .     S
C217   O258    1.298   .     A
C217   C233    1.472   .     S
C217   O259    1.305   .     A
C218   C219    1.417   .     A
C218   C868    1.423   .     S
C218   C892    1.418   .     S
C219   C226    1.414   .     A
C219   C223    1.405   .     A
C220   C224    1.402   .     A
C220   C866    1.423   1_554 S
C220   C869    1.422   1_554 S
C221   C222    1.396   .     A
C221   C868    1.422   .     S
C221   C888    1.404   .     S
C222   C223    1.387   .     A
C222   F283    1.359   .     S
C223   H255    1.075   .     S
C224   C241    1.395   .     A
C224   H251    1.077   .     S
C225   C241    1.402   .     A
C225   C240    1.392   .     A
C225   F266    1.357   .     S
C226   C242    1.402   .     A
C226   C228    1.473   .     S
C227   S284    1.785   .     S
C227   C233    1.404   .     A
C227   C445    1.402   .     S
C228   O261    1.304   .     A
C228   O260    1.297   .     A
C229   C230    1.427   .     A
C229   S267    1.782   .     S
C230   C231    1.402   .     A
C230   C238    1.474   .     S
C231   H247    1.083   .     S
C232   S272    1.770   .     S
C232   C233    1.411   .     A
C232   C447    1.388   .     S
C234   S277    1.805   .     S
C234   N257    1.409   .     A
C234   C307    1.416   .     S
C235   N256    1.347   .     A
C235   F282    1.355   .     S
C235   C378    1.416   1_455 S
C236   N256    1.369   .     A
C236   H248    1.081   .     S
C236   C381    1.419   1_455 S
C237   N257    1.365   .     A
C237   H249    1.080   .     S
C237   C308    1.419   .     S
C238   O263    1.294   .     A
C238   O262    1.309   .     A
C239   C241    1.461   .     S
C239   O265    1.298   .     A
C239   O264    1.298   .     A
C240   C869    1.404   1_554 S
C240   H898    1.084   1_554 S
C242   C243    1.388   .     A
C242   H252    1.082   .     S
C243   C892    1.391   .     S
C243   H902    1.083   .     S
C244   H253    1.077   .     S
C244   C891    1.391   1_554 S
C244   C866    1.418   1_554 S
Cu245  O258    1.971   .     S
Cu245  O264    1.945   .     S
Cu245  O262    1.962   .     S
Cu245  Cu246   2.693   .     S
Cu245  N256    2.024   .     S
Cu245  O260    1.954   .     S
Cu246  O261    1.945   .     S
Cu246  N257    2.024   .     S
Cu246  O265    1.954   .     S
Cu246  O259    1.962   .     S
Cu246  O263    1.971   .     S
H250   C888    1.084   .     S
H254   C891    1.083   1_554 S
S267   O270    1.677   .     S
S267   O268    1.499   .     D
O269   S483    1.501   .     S
O270   H271    0.990   .     S
S272   O275    1.683   .     S
S272   O274    1.502   .     D
S272   O273    1.500   .     D
O275   H276    0.991   .     S
S277   O280    1.683   .     S
S277   O278    1.495   .     D
S277   O279    1.500   .     D
O280   H281    0.991   .     S
S284   O285    1.501   .     D
S284   O287    1.680   .     S
S284   O286    1.504   .     D
O287   H288    0.991   .     S
C289   O330    1.298   .     A
C289   C305    1.472   .     S
C289   O331    1.305   .     A
C290   C291    1.417   .     A
C290   C940    1.423   .     S
C290   C964    1.418   .     S
C291   C298    1.414   .     A
C291   C295    1.405   .     A
C292   C296    1.402   .     A
C292   C938    1.423   1_554 S
C292   C941    1.422   1_554 S
C293   C294    1.396   .     A
C293   C940    1.422   .     S
C293   C960    1.404   .     S
C294   C295    1.387   .     A
C294   F355    1.359   .     S
C295   H327    1.075   .     S
C296   C313    1.395   .     A
C296   H323    1.077   .     S
C297   C313    1.402   .     A
C297   C312    1.392   .     A
C297   F338    1.357   .     S
C298   C314    1.402   .     A
C298   C300    1.473   .     S
C299   S356    1.785   .     S
C299   C305    1.404   .     A
C299   C517    1.402   .     S
C300   O333    1.304   .     A
C300   O332    1.297   .     A
C301   C302    1.427   .     A
C301   S339    1.782   .     S
C302   C303    1.402   .     A
C302   C310    1.474   .     S
C303   H319    1.083   .     S
C304   S344    1.770   .     S
C304   C305    1.411   .     A
C304   C519    1.388   .     S
C306   S349    1.805   .     S
C306   N329    1.409   .     A
C306   C379    1.416   .     S
C307   N328    1.347   .     A
C307   F354    1.355   .     S
C308   N328    1.369   .     A
C308   H320    1.081   .     S
C309   N329    1.365   .     A
C309   H321    1.080   .     S
C309   C380    1.419   .     S
C310   O335    1.294   .     A
C310   O334    1.309   .     A
C311   C313    1.461   .     S
C311   O337    1.298   .     A
C311   O336    1.298   .     A
C312   C941    1.404   1_554 S
C312   H970    1.084   1_554 S
C314   C315    1.388   .     A
C314   H324    1.082   .     S
C315   C964    1.391   .     S
C315   H974    1.083   .     S
C316   H325    1.077   .     S
C316   C963    1.391   1_554 S
C316   C938    1.418   1_554 S
Cu317  O330    1.971   .     S
Cu317  O336    1.945   .     S
Cu317  O334    1.962   .     S
Cu317  Cu318   2.693   .     S
Cu317  N328    2.024   .     S
Cu317  O332    1.954   .     S
Cu318  O333    1.945   .     S
Cu318  N329    2.024   .     S
Cu318  O337    1.954   .     S
Cu318  O331    1.962   .     S
Cu318  O335    1.971   .     S
H322   C960    1.084   .     S
H326   C963    1.083   1_554 S
S339   O342    1.677   .     S
S339   O340    1.499   .     D
O341   S555    1.501   .     S
O342   H343    0.990   .     S
S344   O347    1.683   .     S
S344   O346    1.502   .     D
S344   O345    1.500   .     D
O347   H348    0.991   .     S
S349   O352    1.683   .     S
S349   O350    1.495   .     D
S349   O351    1.500   .     D
O352   H353    0.991   .     S
S356   O357    1.501   .     D
S356   O359    1.680   .     S
S356   O358    1.504   .     D
O359   H360    0.991   .     S
C361   O402    1.298   .     A
C361   C377    1.472   .     S
C361   O403    1.305   .     A
C362   C363    1.417   .     A
C362   C1012   1.423   .     S
C362   C1036   1.418   .     S
C363   C370    1.414   .     A
C363   C367    1.405   .     A
C364   C368    1.402   .     A
C364   C1010   1.423   1_554 S
C364   C1013   1.422   1_554 S
C365   C366    1.396   .     A
C365   C1012   1.422   .     S
C365   C1032   1.404   .     S
C366   C367    1.387   .     A
C366   F427    1.359   .     S
C367   H399    1.075   .     S
C368   C385    1.395   .     A
C368   H395    1.077   .     S
C369   C385    1.402   .     A
C369   C384    1.392   .     A
C369   F410    1.357   .     S
C370   C386    1.402   .     A
C370   C372    1.473   .     S
C371   S428    1.785   .     S
C371   C377    1.404   .     A
C371   C589    1.402   .     S
C372   O405    1.304   .     A
C372   O404    1.297   .     A
C373   C374    1.427   .     A
C373   S411    1.782   .     S
C374   C375    1.402   .     A
C374   C382    1.474   .     S
C375   H391    1.083   .     S
C376   S416    1.770   .     S
C376   C377    1.411   .     A
C376   C591    1.388   .     S
C378   S421    1.805   .     S
C378   N401    1.409   .     A
C378   C235    1.416   1_655 S
C379   N400    1.347   .     A
C379   F426    1.355   .     S
C380   N400    1.369   .     A
C380   H392    1.081   .     S
C381   N401    1.365   .     A
C381   H393    1.080   .     S
C381   C236    1.419   1_655 S
C382   O407    1.294   .     A
C382   O406    1.309   .     A
C383   C385    1.461   .     S
C383   O409    1.298   .     A
C383   O408    1.298   .     A
C384   C1013   1.404   1_554 S
C384   H1042   1.084   1_554 S
C386   C387    1.388   .     A
C386   H396    1.082   .     S
C387   C1036   1.391   .     S
C387   H1046   1.083   .     S
C388   H397    1.077   .     S
C388   C1035   1.391   1_554 S
C388   C1010   1.418   1_554 S
Cu389  O402    1.971   .     S
Cu389  O408    1.945   .     S
Cu389  O406    1.962   .     S
Cu389  Cu390   2.693   .     S
Cu389  N400    2.024   .     S
Cu389  O404    1.954   .     S
Cu390  O405    1.945   .     S
Cu390  N401    2.024   .     S
Cu390  O409    1.954   .     S
Cu390  O403    1.962   .     S
Cu390  O407    1.971   .     S
H394   C1032   1.084   .     S
H398   C1035   1.083   1_554 S
S411   O414    1.677   .     S
S411   O412    1.499   .     D
O413   S627    1.501   .     S
O414   H415    0.990   .     S
S416   O419    1.683   .     S
S416   O418    1.502   .     D
S416   O417    1.500   .     D
O419   H420    0.991   .     S
S421   O424    1.683   .     S
S421   O422    1.495   .     D
S421   O423    1.500   .     D
O424   H425    0.991   .     S
S428   O429    1.501   .     D
S428   O431    1.680   .     S
S428   O430    1.504   .     D
O431   H432    0.991   .     S
C433   O474    1.298   .     A
C433   C449    1.472   .     S
C433   O475    1.305   .     A
C434   C435    1.417   .     A
C434   C1084   1.423   .     S
C434   C1108   1.418   .     S
C435   C442    1.414   .     A
C435   C439    1.405   .     A
C436   C440    1.402   .     A
C436   C1082   1.423   1_554 S
C436   C1085   1.422   1_554 S
C437   C438    1.396   .     A
C437   C1084   1.422   .     S
C437   C1104   1.404   .     S
C438   C439    1.387   .     A
C438   F499    1.359   .     S
C439   H471    1.075   .     S
C440   C457    1.395   .     A
C440   H467    1.077   .     S
C441   C457    1.402   .     A
C441   C456    1.392   .     A
C441   F482    1.357   .     S
C442   C458    1.402   .     A
C442   C444    1.473   .     S
C443   S500    1.785   .     S
C443   C449    1.404   .     A
C443   C13     1.402   1_565 S
C444   O477    1.304   .     A
C444   O476    1.297   .     A
C445   C446    1.427   .     A
C445   S483    1.782   .     S
C446   C447    1.402   .     A
C446   C454    1.474   .     S
C447   H463    1.083   .     S
C448   S488    1.770   .     S
C448   C449    1.411   .     A
C448   C15     1.388   1_565 S
C450   S493    1.805   .     S
C450   N473    1.409   .     A
C450   C523    1.416   .     S
C451   N472    1.347   .     A
C451   F498    1.355   .     S
C451   C594    1.416   1_455 S
C452   N472    1.369   .     A
C452   H464    1.081   .     S
C452   C597    1.419   1_455 S
C453   N473    1.365   .     A
C453   H465    1.080   .     S
C453   C524    1.419   .     S
C454   O479    1.294   .     A
C454   O478    1.309   .     A
C455   C457    1.461   .     S
C455   O481    1.298   .     A
C455   O480    1.298   .     A
C456   C1085   1.404   1_554 S
C456   H1114   1.084   1_554 S
C458   C459    1.388   .     A
C458   H468    1.082   .     S
C459   C1108   1.391   .     S
C459   H1118   1.083   .     S
C460   H469    1.077   .     S
C460   C1107   1.391   1_554 S
C460   C1082   1.418   1_554 S
Cu461  O474    1.971   .     S
Cu461  O480    1.945   .     S
Cu461  O478    1.962   .     S
Cu461  Cu462   2.693   .     S
Cu461  N472    2.024   .     S
Cu461  O476    1.954   .     S
Cu462  O477    1.945   .     S
Cu462  N473    2.024   .     S
Cu462  O481    1.954   .     S
Cu462  O475    1.962   .     S
Cu462  O479    1.971   .     S
H466   C1104   1.084   .     S
H470   C1107   1.083   1_554 S
S483   O486    1.677   .     S
S483   O484    1.499   .     D
O485   S51     1.501   1_565 S
O486   H487    0.990   .     S
S488   O491    1.683   .     S
S488   O490    1.502   .     D
S488   O489    1.500   .     D
O491   H492    0.991   .     S
S493   O496    1.683   .     S
S493   O494    1.495   .     D
S493   O495    1.500   .     D
O496   H497    0.991   .     S
S500   O501    1.501   .     D
S500   O503    1.680   .     S
S500   O502    1.504   .     D
O503   H504    0.991   .     S
C505   O546    1.298   .     A
C505   C521    1.472   .     S
C505   O547    1.305   .     A
C506   C507    1.417   .     A
C506   C1156   1.423   .     S
C506   C1180   1.418   .     S
C507   C514    1.414   .     A
C507   C511    1.405   .     A
C508   C512    1.402   .     A
C508   C1154   1.423   1_554 S
C508   C1157   1.422   1_554 S
C509   C510    1.396   .     A
C509   C1156   1.422   .     S
C509   C1176   1.404   .     S
C510   C511    1.387   .     A
C510   F571    1.359   .     S
C511   H543    1.075   .     S
C512   C529    1.395   .     A
C512   H539    1.077   .     S
C513   C529    1.402   .     A
C513   C528    1.392   .     A
C513   F554    1.357   .     S
C514   C530    1.402   .     A
C514   C516    1.473   .     S
C515   S572    1.785   .     S
C515   C521    1.404   .     A
C515   C85     1.402   1_565 S
C516   O549    1.304   .     A
C516   O548    1.297   .     A
C517   C518    1.427   .     A
C517   S555    1.782   .     S
C518   C519    1.402   .     A
C518   C526    1.474   .     S
C519   H535    1.083   .     S
C520   S560    1.770   .     S
C520   C521    1.411   .     A
C520   C87     1.388   1_565 S
C522   S565    1.805   .     S
C522   N545    1.409   .     A
C522   C595    1.416   .     S
C523   N544    1.347   .     A
C523   F570    1.355   .     S
C524   N544    1.369   .     A
C524   H536    1.081   .     S
C525   N545    1.365   .     A
C525   H537    1.080   .     S
C525   C596    1.419   .     S
C526   O551    1.294   .     A
C526   O550    1.309   .     A
C527   C529    1.461   .     S
C527   O553    1.298   .     A
C527   O552    1.298   .     A
C528   C1157   1.404   1_554 S
C528   H1186   1.084   1_554 S
C530   C531    1.388   .     A
C530   H540    1.082   .     S
C531   C1180   1.391   .     S
C531   H1190   1.083   .     S
C532   H541    1.077   .     S
C532   C1179   1.391   1_554 S
C532   C1154   1.418   1_554 S
Cu533  O546    1.971   .     S
Cu533  O552    1.945   .     S
Cu533  O550    1.962   .     S
Cu533  Cu534   2.693   .     S
Cu533  N544    2.024   .     S
Cu533  O548    1.954   .     S
Cu534  O549    1.945   .     S
Cu534  N545    2.024   .     S
Cu534  O553    1.954   .     S
Cu534  O547    1.962   .     S
Cu534  O551    1.971   .     S
H538   C1176   1.084   .     S
H542   C1179   1.083   1_554 S
S555   O558    1.677   .     S
S555   O556    1.499   .     D
O557   S123    1.501   1_565 S
O558   H559    0.990   .     S
S560   O563    1.683   .     S
S560   O562    1.502   .     D
S560   O561    1.500   .     D
O563   H564    0.991   .     S
S565   O568    1.683   .     S
S565   O566    1.495   .     D
S565   O567    1.500   .     D
O568   H569    0.991   .     S
S572   O573    1.501   .     D
S572   O575    1.680   .     S
S572   O574    1.504   .     D
O575   H576    0.991   .     S
C577   O618    1.298   .     A
C577   C593    1.472   .     S
C577   O619    1.305   .     A
C578   C579    1.417   .     A
C578   C1228   1.423   .     S
C578   C1252   1.418   .     S
C579   C586    1.414   .     A
C579   C583    1.405   .     A
C580   C584    1.402   .     A
C580   C1226   1.423   1_554 S
C580   C1229   1.422   1_554 S
C581   C582    1.396   .     A
C581   C1228   1.422   .     S
C581   C1248   1.404   .     S
C582   C583    1.387   .     A
C582   F643    1.359   .     S
C583   H615    1.075   .     S
C584   C601    1.395   .     A
C584   H611    1.077   .     S
C585   C601    1.402   .     A
C585   C600    1.392   .     A
C585   F626    1.357   .     S
C586   C602    1.402   .     A
C586   C588    1.473   .     S
C587   S644    1.785   .     S
C587   C593    1.404   .     A
C587   C157    1.402   1_565 S
C588   O621    1.304   .     A
C588   O620    1.297   .     A
C589   C590    1.427   .     A
C589   S627    1.782   .     S
C590   C591    1.402   .     A
C590   C598    1.474   .     S
C591   H607    1.083   .     S
C592   S632    1.770   .     S
C592   C593    1.411   .     A
C592   C159    1.388   1_565 S
C594   S637    1.805   .     S
C594   N617    1.409   .     A
C594   C451    1.416   1_655 S
C595   N616    1.347   .     A
C595   F642    1.355   .     S
C596   N616    1.369   .     A
C596   H608    1.081   .     S
C597   N617    1.365   .     A
C597   H609    1.080   .     S
C597   C452    1.419   1_655 S
C598   O623    1.294   .     A
C598   O622    1.309   .     A
C599   C601    1.461   .     S
C599   O625    1.298   .     A
C599   O624    1.298   .     A
C600   C1229   1.404   1_554 S
C600   H1258   1.084   1_554 S
C602   C603    1.388   .     A
C602   H612    1.082   .     S
C603   C1252   1.391   .     S
C603   H1262   1.083   .     S
C604   H613    1.077   .     S
C604   C1251   1.391   1_554 S
C604   C1226   1.418   1_554 S
Cu605  O618    1.971   .     S
Cu605  O624    1.945   .     S
Cu605  O622    1.962   .     S
Cu605  Cu606   2.693   .     S
Cu605  N616    2.024   .     S
Cu605  O620    1.954   .     S
Cu606  O621    1.945   .     S
Cu606  N617    2.024   .     S
Cu606  O625    1.954   .     S
Cu606  O619    1.962   .     S
Cu606  O623    1.971   .     S
H610   C1248   1.084   .     S
H614   C1251   1.083   1_554 S
S627   O630    1.677   .     S
S627   O628    1.499   .     D
O629   S195    1.501   1_565 S
O630   H631    0.990   .     S
S632   O635    1.683   .     S
S632   O634    1.502   .     D
S632   O633    1.500   .     D
O635   H636    0.991   .     S
S637   O640    1.683   .     S
S637   O638    1.495   .     D
S637   O639    1.500   .     D
O640   H641    0.991   .     S
S644   O645    1.501   .     D
S644   O647    1.680   .     S
S644   O646    1.504   .     D
O647   H648    0.991   .     S
C649   O690    1.298   .     A
C649   C665    1.472   .     S
C649   O691    1.305   .     A
C650   C651    1.417   .     A
C650   C4      1.423   1_556 S
C650   C28     1.418   1_556 S
C651   C658    1.414   .     A
C651   C655    1.405   .     A
C652   C656    1.402   .     A
C653   C654    1.396   .     A
C653   C4      1.422   1_556 S
C653   C24     1.404   1_556 S
C654   C655    1.387   .     A
C654   F715    1.359   .     S
C655   H687    1.075   .     S
C656   C673    1.395   .     A
C656   H683    1.077   .     S
C657   C673    1.402   .     A
C657   C672    1.392   .     A
C657   F698    1.357   .     S
C658   C674    1.402   .     A
C658   C660    1.473   .     S
C659   S716    1.785   .     S
C659   C665    1.404   .     A
C659   C877    1.402   .     S
C660   O693    1.304   .     A
C660   O692    1.297   .     A
C661   C662    1.427   .     A
C661   S699    1.782   .     S
C661   C1091   1.402   1_545 S
C662   C663    1.402   .     A
C662   C670    1.474   .     S
C663   H679    1.083   .     S
C663   C1096   1.388   1_545 S
C664   S704    1.770   .     S
C664   C665    1.411   .     A
C664   C879    1.388   .     S
C666   S709    1.805   .     S
C666   N689    1.409   .     A
C666   C739    1.416   .     S
C667   N688    1.347   .     A
C667   F714    1.355   .     S
C667   C810    1.416   1_455 S
C668   N688    1.369   .     A
C668   H680    1.081   .     S
C668   C813    1.419   1_455 S
C669   N689    1.365   .     A
C669   H681    1.080   .     S
C669   C740    1.419   .     S
C670   O695    1.294   .     A
C670   O694    1.309   .     A
C671   C673    1.461   .     S
C671   O697    1.298   .     A
C671   O696    1.298   .     A
C674   C675    1.388   .     A
C674   H684    1.082   .     S
C675   C28     1.391   1_556 S
C675   H38     1.083   1_556 S
C676   H685    1.077   .     S
Cu677  O690    1.971   .     S
Cu677  O696    1.945   .     S
Cu677  O694    1.962   .     S
Cu677  Cu678   2.693   .     S
Cu677  N688    2.024   .     S
Cu677  O692    1.954   .     S
Cu678  O693    1.945   .     S
Cu678  N689    2.024   .     S
Cu678  O697    1.954   .     S
Cu678  O691    1.962   .     S
Cu678  O695    1.971   .     S
H682   C24     1.084   1_556 S
S699   O702    1.677   .     S
S699   O700    1.499   .     D
S699   O1133   1.501   1_545 S
O701   S915    1.501   .     S
O702   H703    0.990   .     S
S704   O707    1.683   .     S
S704   O706    1.502   .     D
S704   O705    1.500   .     D
O707   H708    0.991   .     S
S709   O712    1.683   .     S
S709   O710    1.495   .     D
S709   O711    1.500   .     D
O712   H713    0.991   .     S
S716   O717    1.501   .     D
S716   O719    1.680   .     S
S716   O718    1.504   .     D
O719   H720    0.991   .     S
C721   O762    1.298   .     A
C721   C737    1.472   .     S
C721   O763    1.305   .     A
C722   C723    1.417   .     A
C722   C76     1.423   1_556 S
C722   C100    1.418   1_556 S
C723   C730    1.414   .     A
C723   C727    1.405   .     A
C724   C728    1.402   .     A
C725   C726    1.396   .     A
C725   C76     1.422   1_556 S
C725   C96     1.404   1_556 S
C726   C727    1.387   .     A
C726   F787    1.359   .     S
C727   H759    1.075   .     S
C728   C745    1.395   .     A
C728   H755    1.077   .     S
C729   C745    1.402   .     A
C729   C744    1.392   .     A
C729   F770    1.357   .     S
C730   C746    1.402   .     A
C730   C732    1.473   .     S
C731   S788    1.785   .     S
C731   C737    1.404   .     A
C731   C949    1.402   .     S
C732   O765    1.304   .     A
C732   O764    1.297   .     A
C733   C734    1.427   .     A
C733   S771    1.782   .     S
C733   C1163   1.402   1_545 S
C734   C735    1.402   .     A
C734   C742    1.474   .     S
C735   H751    1.083   .     S
C735   C1168   1.388   1_545 S
C736   S776    1.770   .     S
C736   C737    1.411   .     A
C736   C951    1.388   .     S
C738   S781    1.805   .     S
C738   N761    1.409   .     A
C738   C811    1.416   .     S
C739   N760    1.347   .     A
C739   F786    1.355   .     S
C740   N760    1.369   .     A
C740   H752    1.081   .     S
C741   N761    1.365   .     A
C741   H753    1.080   .     S
C741   C812    1.419   .     S
C742   O767    1.294   .     A
C742   O766    1.309   .     A
C743   C745    1.461   .     S
C743   O769    1.298   .     A
C743   O768    1.298   .     A
C746   C747    1.388   .     A
C746   H756    1.082   .     S
C747   C100    1.391   1_556 S
C747   H110    1.083   1_556 S
C748   H757    1.077   .     S
Cu749  O762    1.971   .     S
Cu749  O768    1.945   .     S
Cu749  O766    1.962   .     S
Cu749  Cu750   2.693   .     S
Cu749  N760    2.024   .     S
Cu749  O764    1.954   .     S
Cu750  O765    1.945   .     S
Cu750  N761    2.024   .     S
Cu750  O769    1.954   .     S
Cu750  O763    1.962   .     S
Cu750  O767    1.971   .     S
H754   C96     1.084   1_556 S
S771   O774    1.677   .     S
S771   O772    1.499   .     D
S771   O1205   1.501   1_545 S
O773   S987    1.501   .     S
O774   H775    0.990   .     S
S776   O779    1.683   .     S
S776   O778    1.502   .     D
S776   O777    1.500   .     D
O779   H780    0.991   .     S
S781   O784    1.683   .     S
S781   O782    1.495   .     D
S781   O783    1.500   .     D
O784   H785    0.991   .     S
S788   O789    1.501   .     D
S788   O791    1.680   .     S
S788   O790    1.504   .     D
O791   H792    0.991   .     S
C793   O834    1.298   .     A
C793   C809    1.472   .     S
C793   O835    1.305   .     A
C794   C795    1.417   .     A
C794   C148    1.423   1_556 S
C794   C172    1.418   1_556 S
C795   C802    1.414   .     A
C795   C799    1.405   .     A
C796   C800    1.402   .     A
C797   C798    1.396   .     A
C797   C148    1.422   1_556 S
C797   C168    1.404   1_556 S
C798   C799    1.387   .     A
C798   F859    1.359   .     S
C799   H831    1.075   .     S
C800   C817    1.395   .     A
C800   H827    1.077   .     S
C801   C817    1.402   .     A
C801   C816    1.392   .     A
C801   F842    1.357   .     S
C802   C818    1.402   .     A
C802   C804    1.473   .     S
C803   S860    1.785   .     S
C803   C809    1.404   .     A
C803   C1021   1.402   .     S
C804   O837    1.304   .     A
C804   O836    1.297   .     A
C805   C806    1.427   .     A
C805   S843    1.782   .     S
C805   C1235   1.402   1_545 S
C806   C807    1.402   .     A
C806   C814    1.474   .     S
C807   H823    1.083   .     S
C807   C1240   1.388   1_545 S
C808   S848    1.770   .     S
C808   C809    1.411   .     A
C808   C1023   1.388   .     S
C810   S853    1.805   .     S
C810   N833    1.409   .     A
C810   C667    1.416   1_655 S
C811   N832    1.347   .     A
C811   F858    1.355   .     S
C812   N832    1.369   .     A
C812   H824    1.081   .     S
C813   N833    1.365   .     A
C813   H825    1.080   .     S
C813   C668    1.419   1_655 S
C814   O839    1.294   .     A
C814   O838    1.309   .     A
C815   C817    1.461   .     S
C815   O841    1.298   .     A
C815   O840    1.298   .     A
C818   C819    1.388   .     A
C818   H828    1.082   .     S
C819   C172    1.391   1_556 S
C819   H182    1.083   1_556 S
C820   H829    1.077   .     S
Cu821  O834    1.971   .     S
Cu821  O840    1.945   .     S
Cu821  O838    1.962   .     S
Cu821  Cu822   2.693   .     S
Cu821  N832    2.024   .     S
Cu821  O836    1.954   .     S
Cu822  O837    1.945   .     S
Cu822  N833    2.024   .     S
Cu822  O841    1.954   .     S
Cu822  O835    1.962   .     S
Cu822  O839    1.971   .     S
H826   C168    1.084   1_556 S
S843   O846    1.677   .     S
S843   O844    1.499   .     D
S843   O1277   1.501   1_545 S
O845   S1059   1.501   .     S
O846   H847    0.990   .     S
S848   O851    1.683   .     S
S848   O850    1.502   .     D
S848   O849    1.500   .     D
O851   H852    0.991   .     S
S853   O856    1.683   .     S
S853   O854    1.495   .     D
S853   O855    1.500   .     D
O856   H857    0.991   .     S
S860   O861    1.501   .     D
S860   O863    1.680   .     S
S860   O862    1.504   .     D
O863   H864    0.991   .     S
C865   O906    1.298   .     A
C865   C881    1.472   .     S
C865   O907    1.305   .     A
C866   C867    1.417   .     A
C866   C220    1.423   1_556 S
C866   C244    1.418   1_556 S
C867   C874    1.414   .     A
C867   C871    1.405   .     A
C868   C872    1.402   .     A
C869   C870    1.396   .     A
C869   C220    1.422   1_556 S
C869   C240    1.404   1_556 S
C870   C871    1.387   .     A
C870   F931    1.359   .     S
C871   H903    1.075   .     S
C872   C889    1.395   .     A
C872   H899    1.077   .     S
C873   C889    1.402   .     A
C873   C888    1.392   .     A
C873   F914    1.357   .     S
C874   C890    1.402   .     A
C874   C876    1.473   .     S
C875   S932    1.785   .     S
C875   C881    1.404   .     A
C875   C1093   1.402   .     S
C876   O909    1.304   .     A
C876   O908    1.297   .     A
C877   C878    1.427   .     A
C877   S915    1.782   .     S
C878   C879    1.402   .     A
C878   C886    1.474   .     S
C879   H895    1.083   .     S
C880   S920    1.770   .     S
C880   C881    1.411   .     A
C880   C1095   1.388   .     S
C882   S925    1.805   .     S
C882   N905    1.409   .     A
C882   C955    1.416   .     S
C883   N904    1.347   .     A
C883   F930    1.355   .     S
C883   C1026   1.416   1_455 S
C884   N904    1.369   .     A
C884   H896    1.081   .     S
C884   C1029   1.419   1_455 S
C885   N905    1.365   .     A
C885   H897    1.080   .     S
C885   C956    1.419   .     S
C886   O911    1.294   .     A
C886   O910    1.309   .     A
C887   C889    1.461   .     S
C887   O913    1.298   .     A
C887   O912    1.298   .     A
C890   C891    1.388   .     A
C890   H900    1.082   .     S
C891   C244    1.391   1_556 S
C891   H254    1.083   1_556 S
C892   H901    1.077   .     S
Cu893  O906    1.971   .     S
Cu893  O912    1.945   .     S
Cu893  O910    1.962   .     S
Cu893  Cu894   2.693   .     S
Cu893  N904    2.024   .     S
Cu893  O908    1.954   .     S
Cu894  O909    1.945   .     S
Cu894  N905    2.024   .     S
Cu894  O913    1.954   .     S
Cu894  O907    1.962   .     S
Cu894  O911    1.971   .     S
H898   C240    1.084   1_556 S
S915   O918    1.677   .     S
S915   O916    1.499   .     D
O917   S1131   1.501   .     S
O918   H919    0.990   .     S
S920   O923    1.683   .     S
S920   O922    1.502   .     D
S920   O921    1.500   .     D
O923   H924    0.991   .     S
S925   O928    1.683   .     S
S925   O926    1.495   .     D
S925   O927    1.500   .     D
O928   H929    0.991   .     S
S932   O933    1.501   .     D
S932   O935    1.680   .     S
S932   O934    1.504   .     D
O935   H936    0.991   .     S
C937   O978    1.298   .     A
C937   C953    1.472   .     S
C937   O979    1.305   .     A
C938   C939    1.417   .     A
C938   C292    1.423   1_556 S
C938   C316    1.418   1_556 S
C939   C946    1.414   .     A
C939   C943    1.405   .     A
C940   C944    1.402   .     A
C941   C942    1.396   .     A
C941   C292    1.422   1_556 S
C941   C312    1.404   1_556 S
C942   C943    1.387   .     A
C942   F1003   1.359   .     S
C943   H975    1.075   .     S
C944   C961    1.395   .     A
C944   H971    1.077   .     S
C945   C961    1.402   .     A
C945   C960    1.392   .     A
C945   F986    1.357   .     S
C946   C962    1.402   .     A
C946   C948    1.473   .     S
C947   S1004   1.785   .     S
C947   C953    1.404   .     A
C947   C1165   1.402   .     S
C948   O981    1.304   .     A
C948   O980    1.297   .     A
C949   C950    1.427   .     A
C949   S987    1.782   .     S
C950   C951    1.402   .     A
C950   C958    1.474   .     S
C951   H967    1.083   .     S
C952   S992    1.770   .     S
C952   C953    1.411   .     A
C952   C1167   1.388   .     S
C954   S997    1.805   .     S
C954   N977    1.409   .     A
C954   C1027   1.416   .     S
C955   N976    1.347   .     A
C955   F1002   1.355   .     S
C956   N976    1.369   .     A
C956   H968    1.081   .     S
C957   N977    1.365   .     A
C957   H969    1.080   .     S
C957   C1028   1.419   .     S
C958   O983    1.294   .     A
C958   O982    1.309   .     A
C959   C961    1.461   .     S
C959   O985    1.298   .     A
C959   O984    1.298   .     A
C962   C963    1.388   .     A
C962   H972    1.082   .     S
C963   C316    1.391   1_556 S
C963   H326    1.083   1_556 S
C964   H973    1.077   .     S
Cu965  O978    1.971   .     S
Cu965  O984    1.945   .     S
Cu965  O982    1.962   .     S
Cu965  Cu966   2.693   .     S
Cu965  N976    2.024   .     S
Cu965  O980    1.954   .     S
Cu966  O981    1.945   .     S
Cu966  N977    2.024   .     S
Cu966  O985    1.954   .     S
Cu966  O979    1.962   .     S
Cu966  O983    1.971   .     S
H970   C312    1.084   1_556 S
S987   O990    1.677   .     S
S987   O988    1.499   .     D
O989   S1203   1.501   .     S
O990   H991    0.990   .     S
S992   O995    1.683   .     S
S992   O994    1.502   .     D
S992   O993    1.500   .     D
O995   H996    0.991   .     S
S997   O1000   1.683   .     S
S997   O998    1.495   .     D
S997   O999    1.500   .     D
O1000  H1001   0.991   .     S
S1004  O1005   1.501   .     D
S1004  O1007   1.680   .     S
S1004  O1006   1.504   .     D
O1007  H1008   0.991   .     S
C1009  O1050   1.298   .     A
C1009  C1025   1.472   .     S
C1009  O1051   1.305   .     A
C1010  C1011   1.417   .     A
C1010  C364    1.423   1_556 S
C1010  C388    1.418   1_556 S
C1011  C1018   1.414   .     A
C1011  C1015   1.405   .     A
C1012  C1016   1.402   .     A
C1013  C1014   1.396   .     A
C1013  C364    1.422   1_556 S
C1013  C384    1.404   1_556 S
C1014  C1015   1.387   .     A
C1014  F1075   1.359   .     S
C1015  H1047   1.075   .     S
C1016  C1033   1.395   .     A
C1016  H1043   1.077   .     S
C1017  C1033   1.402   .     A
C1017  C1032   1.392   .     A
C1017  F1058   1.357   .     S
C1018  C1034   1.402   .     A
C1018  C1020   1.473   .     S
C1019  S1076   1.785   .     S
C1019  C1025   1.404   .     A
C1019  C1237   1.402   .     S
C1020  O1053   1.304   .     A
C1020  O1052   1.297   .     A
C1021  C1022   1.427   .     A
C1021  S1059   1.782   .     S
C1022  C1023   1.402   .     A
C1022  C1030   1.474   .     S
C1023  H1039   1.083   .     S
C1024  S1064   1.770   .     S
C1024  C1025   1.411   .     A
C1024  C1239   1.388   .     S
C1026  S1069   1.805   .     S
C1026  N1049   1.409   .     A
C1026  C883    1.416   1_655 S
C1027  N1048   1.347   .     A
C1027  F1074   1.355   .     S
C1028  N1048   1.369   .     A
C1028  H1040   1.081   .     S
C1029  N1049   1.365   .     A
C1029  H1041   1.080   .     S
C1029  C884    1.419   1_655 S
C1030  O1055   1.294   .     A
C1030  O1054   1.309   .     A
C1031  C1033   1.461   .     S
C1031  O1057   1.298   .     A
C1031  O1056   1.298   .     A
C1034  C1035   1.388   .     A
C1034  H1044   1.082   .     S
C1035  C388    1.391   1_556 S
C1035  H398    1.083   1_556 S
C1036  H1045   1.077   .     S
Cu1037 O1050   1.971   .     S
Cu1037 O1056   1.945   .     S
Cu1037 O1054   1.962   .     S
Cu1037 Cu1038  2.693   .     S
Cu1037 N1048   2.024   .     S
Cu1037 O1052   1.954   .     S
Cu1038 O1053   1.945   .     S
Cu1038 N1049   2.024   .     S
Cu1038 O1057   1.954   .     S
Cu1038 O1051   1.962   .     S
Cu1038 O1055   1.971   .     S
H1042  C384    1.084   1_556 S
S1059  O1062   1.677   .     S
S1059  O1060   1.499   .     D
O1061  S1275   1.501   .     S
O1062  H1063   0.990   .     S
S1064  O1067   1.683   .     S
S1064  O1066   1.502   .     D
S1064  O1065   1.500   .     D
O1067  H1068   0.991   .     S
S1069  O1072   1.683   .     S
S1069  O1070   1.495   .     D
S1069  O1071   1.500   .     D
O1072  H1073   0.991   .     S
S1076  O1077   1.501   .     D
S1076  O1079   1.680   .     S
S1076  O1078   1.504   .     D
O1079  H1080   0.991   .     S
C1081  O1122   1.298   .     A
C1081  C1097   1.472   .     S
C1081  O1123   1.305   .     A
C1082  C1083   1.417   .     A
C1082  C436    1.423   1_556 S
C1082  C460    1.418   1_556 S
C1083  C1090   1.414   .     A
C1083  C1087   1.405   .     A
C1084  C1088   1.402   .     A
C1085  C1086   1.396   .     A
C1085  C436    1.422   1_556 S
C1085  C456    1.404   1_556 S
C1086  C1087   1.387   .     A
C1086  F1147   1.359   .     S
C1087  H1119   1.075   .     S
C1088  C1105   1.395   .     A
C1088  H1115   1.077   .     S
C1089  C1105   1.402   .     A
C1089  C1104   1.392   .     A
C1089  F1130   1.357   .     S
C1090  C1106   1.402   .     A
C1090  C1092   1.473   .     S
C1091  S1148   1.785   .     S
C1091  C1097   1.404   .     A
C1091  C661    1.402   1_565 S
C1092  O1125   1.304   .     A
C1092  O1124   1.297   .     A
C1093  C1094   1.427   .     A
C1093  S1131   1.782   .     S
C1094  C1095   1.402   .     A
C1094  C1102   1.474   .     S
C1095  H1111   1.083   .     S
C1096  S1136   1.770   .     S
C1096  C1097   1.411   .     A
C1096  C663    1.388   1_565 S
C1098  S1141   1.805   .     S
C1098  N1121   1.409   .     A
C1098  C1171   1.416   .     S
C1099  N1120   1.347   .     A
C1099  F1146   1.355   .     S
C1099  C1242   1.416   1_455 S
C1100  N1120   1.369   .     A
C1100  H1112   1.081   .     S
C1100  C1245   1.419   1_455 S
C1101  N1121   1.365   .     A
C1101  H1113   1.080   .     S
C1101  C1172   1.419   .     S
C1102  O1127   1.294   .     A
C1102  O1126   1.309   .     A
C1103  C1105   1.461   .     S
C1103  O1129   1.298   .     A
C1103  O1128   1.298   .     A
C1106  C1107   1.388   .     A
C1106  H1116   1.082   .     S
C1107  C460    1.391   1_556 S
C1107  H470    1.083   1_556 S
C1108  H1117   1.077   .     S
Cu1109 O1122   1.971   .     S
Cu1109 O1128   1.945   .     S
Cu1109 O1126   1.962   .     S
Cu1109 Cu1110  2.693   .     S
Cu1109 N1120   2.024   .     S
Cu1109 O1124   1.954   .     S
Cu1110 O1125   1.945   .     S
Cu1110 N1121   2.024   .     S
Cu1110 O1129   1.954   .     S
Cu1110 O1123   1.962   .     S
Cu1110 O1127   1.971   .     S
H1114  C456    1.084   1_556 S
S1131  O1134   1.677   .     S
S1131  O1132   1.499   .     D
O1133  S699    1.501   1_565 S
O1134  H1135   0.990   .     S
S1136  O1139   1.683   .     S
S1136  O1138   1.502   .     D
S1136  O1137   1.500   .     D
O1139  H1140   0.991   .     S
S1141  O1144   1.683   .     S
S1141  O1142   1.495   .     D
S1141  O1143   1.500   .     D
O1144  H1145   0.991   .     S
S1148  O1149   1.501   .     D
S1148  O1151   1.680   .     S
S1148  O1150   1.504   .     D
O1151  H1152   0.991   .     S
C1153  O1194   1.298   .     A
C1153  C1169   1.472   .     S
C1153  O1195   1.305   .     A
C1154  C1155   1.417   .     A
C1154  C508    1.423   1_556 S
C1154  C532    1.418   1_556 S
C1155  C1162   1.414   .     A
C1155  C1159   1.405   .     A
C1156  C1160   1.402   .     A
C1157  C1158   1.396   .     A
C1157  C508    1.422   1_556 S
C1157  C528    1.404   1_556 S
C1158  C1159   1.387   .     A
C1158  F1219   1.359   .     S
C1159  H1191   1.075   .     S
C1160  C1177   1.395   .     A
C1160  H1187   1.077   .     S
C1161  C1177   1.402   .     A
C1161  C1176   1.392   .     A
C1161  F1202   1.357   .     S
C1162  C1178   1.402   .     A
C1162  C1164   1.473   .     S
C1163  S1220   1.785   .     S
C1163  C1169   1.404   .     A
C1163  C733    1.402   1_565 S
C1164  O1197   1.304   .     A
C1164  O1196   1.297   .     A
C1165  C1166   1.427   .     A
C1165  S1203   1.782   .     S
C1166  C1167   1.402   .     A
C1166  C1174   1.474   .     S
C1167  H1183   1.083   .     S
C1168  S1208   1.770   .     S
C1168  C1169   1.411   .     A
C1168  C735    1.388   1_565 S
C1170  S1213   1.805   .     S
C1170  N1193   1.409   .     A
C1170  C1243   1.416   .     S
C1171  N1192   1.347   .     A
C1171  F1218   1.355   .     S
C1172  N1192   1.369   .     A
C1172  H1184   1.081   .     S
C1173  N1193   1.365   .     A
C1173  H1185   1.080   .     S
C1173  C1244   1.419   .     S
C1174  O1199   1.294   .     A
C1174  O1198   1.309   .     A
C1175  C1177   1.461   .     S
C1175  O1201   1.298   .     A
C1175  O1200   1.298   .     A
C1178  C1179   1.388   .     A
C1178  H1188   1.082   .     S
C1179  C532    1.391   1_556 S
C1179  H542    1.083   1_556 S
C1180  H1189   1.077   .     S
Cu1181 O1194   1.971   .     S
Cu1181 O1200   1.945   .     S
Cu1181 O1198   1.962   .     S
Cu1181 Cu1182  2.693   .     S
Cu1181 N1192   2.024   .     S
Cu1181 O1196   1.954   .     S
Cu1182 O1197   1.945   .     S
Cu1182 N1193   2.024   .     S
Cu1182 O1201   1.954   .     S
Cu1182 O1195   1.962   .     S
Cu1182 O1199   1.971   .     S
H1186  C528    1.084   1_556 S
S1203  O1206   1.677   .     S
S1203  O1204   1.499   .     D
O1205  S771    1.501   1_565 S
O1206  H1207   0.990   .     S
S1208  O1211   1.683   .     S
S1208  O1210   1.502   .     D
S1208  O1209   1.500   .     D
O1211  H1212   0.991   .     S
S1213  O1216   1.683   .     S
S1213  O1214   1.495   .     D
S1213  O1215   1.500   .     D
O1216  H1217   0.991   .     S
S1220  O1221   1.501   .     D
S1220  O1223   1.680   .     S
S1220  O1222   1.504   .     D
O1223  H1224   0.991   .     S
C1225  O1266   1.298   .     A
C1225  C1241   1.472   .     S
C1225  O1267   1.305   .     A
C1226  C1227   1.417   .     A
C1226  C580    1.423   1_556 S
C1226  C604    1.418   1_556 S
C1227  C1234   1.414   .     A
C1227  C1231   1.405   .     A
C1228  C1232   1.402   .     A
C1229  C1230   1.396   .     A
C1229  C580    1.422   1_556 S
C1229  C600    1.404   1_556 S
C1230  C1231   1.387   .     A
C1230  F1291   1.359   .     S
C1231  H1263   1.075   .     S
C1232  C1249   1.395   .     A
C1232  H1259   1.077   .     S
C1233  C1249   1.402   .     A
C1233  C1248   1.392   .     A
C1233  F1274   1.357   .     S
C1234  C1250   1.402   .     A
C1234  C1236   1.473   .     S
C1235  S1292   1.785   .     S
C1235  C1241   1.404   .     A
C1235  C805    1.402   1_565 S
C1236  O1269   1.304   .     A
C1236  O1268   1.297   .     A
C1237  C1238   1.427   .     A
C1237  S1275   1.782   .     S
C1238  C1239   1.402   .     A
C1238  C1246   1.474   .     S
C1239  H1255   1.083   .     S
C1240  S1280   1.770   .     S
C1240  C1241   1.411   .     A
C1240  C807    1.388   1_565 S
C1242  S1285   1.805   .     S
C1242  N1265   1.409   .     A
C1242  C1099   1.416   1_655 S
C1243  N1264   1.347   .     A
C1243  F1290   1.355   .     S
C1244  N1264   1.369   .     A
C1244  H1256   1.081   .     S
C1245  N1265   1.365   .     A
C1245  H1257   1.080   .     S
C1245  C1100   1.419   1_655 S
C1246  O1271   1.294   .     A
C1246  O1270   1.309   .     A
C1247  C1249   1.461   .     S
C1247  O1273   1.298   .     A
C1247  O1272   1.298   .     A
C1250  C1251   1.388   .     A
C1250  H1260   1.082   .     S
C1251  C604    1.391   1_556 S
C1251  H614    1.083   1_556 S
C1252  H1261   1.077   .     S
Cu1253 O1266   1.971   .     S
Cu1253 O1272   1.945   .     S
Cu1253 O1270   1.962   .     S
Cu1253 Cu1254  2.693   .     S
Cu1253 N1264   2.024   .     S
Cu1253 O1268   1.954   .     S
Cu1254 O1269   1.945   .     S
Cu1254 N1265   2.024   .     S
Cu1254 O1273   1.954   .     S
Cu1254 O1267   1.962   .     S
Cu1254 O1271   1.971   .     S
H1258  C600    1.084   1_556 S
S1275  O1278   1.677   .     S
S1275  O1276   1.499   .     D
O1277  S843    1.501   1_565 S
O1278  H1279   0.990   .     S
S1280  O1283   1.683   .     S
S1280  O1282   1.502   .     D
S1280  O1281   1.500   .     D
O1283  H1284   0.991   .     S
S1285  O1288   1.683   .     S
S1285  O1286   1.495   .     D
S1285  O1287   1.500   .     D
O1288  H1289   0.991   .     S
S1292  O1293   1.501   .     D
S1292  O1295   1.680   .     S
S1292  O1294   1.504   .     D
O1295  H1296   0.991   .     S
