data_str_m2_o2_o10_pcu_sym.161
_audit_creation_date              2020-01-03
_audit_creation_method            'Materials Studio'
_symmetry_space_group_name_H-M    'P1'
_symmetry_Int_Tables_number       1
_symmetry_cell_setting            triclinic
loop_
_symmetry_equiv_pos_as_xyz
  x,y,z
_cell_length_a                    26.1872
_cell_length_b                    30.2741
_cell_length_c                    27.8279
_cell_angle_alpha                 90.5196
_cell_angle_beta                  98.4028
_cell_angle_gamma                 90.7918
loop_
_atom_site_label
_atom_site_type_symbol
_atom_site_fract_x
_atom_site_fract_y
_atom_site_fract_z
_atom_site_U_iso_or_equiv
_atom_site_adp_type
_atom_site_occupancy
O1     O     0.16667   0.18573   0.29072   0.00000  Uiso   1.00
O2     O     0.16666   0.31428   0.20929   0.00000  Uiso   1.00
O3     O     0.16667   0.18573   0.20928   0.00000  Uiso   1.00
O4     O     0.16666   0.31427   0.29072   0.00000  Uiso   1.00
C5     C     0.16652   0.16503   0.24981   0.00000  Uiso   1.00
C6     C     0.16645   0.33507   0.25013   0.00000  Uiso   1.00
O7     O     0.09161   0.25000   0.28132   0.00000  Uiso   1.00
O8     O     0.24172   0.25001   0.21868   0.00000  Uiso   1.00
O9     O     0.09161   0.25000   0.19989   0.00000  Uiso   1.00
O10    O     0.24172   0.25000   0.30012   0.00000  Uiso   1.00
C11    C     0.06788   0.24996   0.23748   0.00000  Uiso   1.00
C12    C     0.26545   0.25005   0.26253   0.00000  Uiso   1.00
Cu13   Cu    0.16667   0.25000   0.29822   0.00000  Uiso   1.00
Cu14   Cu    0.16667   0.25001   0.20179   0.00000  Uiso   1.00
C15    C     0.01249   0.24995   0.23067   0.00000  Uiso   1.00
C16    C     0.32085   0.25006   0.26935   0.00000  Uiso   1.00
H17    H     0.32553   0.24987   0.19369   0.00000  Uiso   1.00
H18    H     0.00780   0.25015   0.30633   0.00000  Uiso   1.00
C19    C     0.14375   0.04801   0.28511   0.00000  Uiso   1.00
C20    C     0.15635   0.45199   0.20591   0.00000  Uiso   1.00
H21    H     0.12571   0.03094   0.31241   0.00000  Uiso   1.00
H22    H     0.14833   0.46871   0.17146   0.00000  Uiso   1.00
C23    C     0.14442   0.09391   0.28530   0.00000  Uiso   1.00
C24    C     0.15688   0.40610   0.20607   0.00000  Uiso   1.00
H25    H     0.12733   0.11144   0.31295   0.00000  Uiso   1.00
H26    H     0.14982   0.38843   0.17166   0.00000  Uiso   1.00
C27    C     0.16607   0.11688   0.24953   0.00000  Uiso   1.00
C28    C     0.16582   0.38341   0.25018   0.00000  Uiso   1.00
C29    C     0.18743   0.09359   0.21378   0.00000  Uiso   1.00
C30    C     0.17416   0.40727   0.29411   0.00000  Uiso   1.00
H31    H     0.20492   0.11088   0.18627   0.00000  Uiso   1.00
H32    H     0.18098   0.39057   0.32862   0.00000  Uiso   1.00
C33    C     0.18749   0.04766   0.21401   0.00000  Uiso   1.00
C34    C     0.17440   0.45319   0.29392   0.00000  Uiso   1.00
H35    H     0.20538   0.03033   0.18677   0.00000  Uiso   1.00
H36    H     0.18224   0.47087   0.32826   0.00000  Uiso   1.00
C37    C     0.16551   0.02449   0.24961   0.00000  Uiso   1.00
C38    C     0.16542   0.47592   0.24982   0.00000  Uiso   1.00
C39    C     0.19262   0.28342   0.05799   0.00000  Uiso   1.00
C40    C     0.12413   0.23205   0.43978   0.00000  Uiso   1.00
H41    H     0.21305   0.31019   0.04325   0.00000  Uiso   1.00
H42    H     0.09032   0.21830   0.45260   0.00000  Uiso   1.00
C43    C     0.19309   0.28214   0.10871   0.00000  Uiso   1.00
C44    C     0.12588   0.23171   0.38932   0.00000  Uiso   1.00
H45    H     0.21441   0.30729   0.13150   0.00000  Uiso   1.00
H46    H     0.09406   0.21688   0.36516   0.00000  Uiso   1.00
N47    N     0.16667   0.25001   0.12935   0.00000  Uiso   1.00
N48    N     0.16667   0.24999   0.37066   0.00000  Uiso   1.00
C49    C     0.13930   0.21833   0.10006   0.00000  Uiso   1.00
C50    C     0.20704   0.26848   0.40212   0.00000  Uiso   1.00
C51    C     0.13906   0.21810   0.04946   0.00000  Uiso   1.00
C52    C     0.20704   0.26814   0.45266   0.00000  Uiso   1.00
H53    H     0.11825   0.19184   0.02797   0.00000  Uiso   1.00
H54    H     0.24023   0.28188   0.47602   0.00000  Uiso   1.00
C55    C     0.16545   0.25089   0.02718   0.00000  Uiso   1.00
C56    C     0.16525   0.25049   0.47266   0.00000  Uiso   1.00
N57    N     0.11002   0.18485   0.12003   0.00000  Uiso   1.00
O58    O     0.06272   0.19299   0.12602   0.00000  Uiso   1.00
O59    O     0.12386   0.14392   0.11719   0.00000  Uiso   1.00
N60    N     0.25027   0.28877   0.38473   0.00000  Uiso   1.00
O61    O     0.24511   0.32706   0.36403   0.00000  Uiso   1.00
O62    O     0.29650   0.27491   0.40028   0.00000  Uiso   1.00
O63    O     0.50000   0.18573   0.29072   0.00000  Uiso   1.00
O64    O     0.50000   0.31428   0.20929   0.00000  Uiso   1.00
O65    O     0.50000   0.18573   0.20928   0.00000  Uiso   1.00
O66    O     0.50000   0.31427   0.29072   0.00000  Uiso   1.00
C67    C     0.49986   0.16503   0.24981   0.00000  Uiso   1.00
C68    C     0.49978   0.33507   0.25013   0.00000  Uiso   1.00
O69    O     0.42495   0.25000   0.28132   0.00000  Uiso   1.00
O70    O     0.57505   0.25001   0.21868   0.00000  Uiso   1.00
O71    O     0.42495   0.25000   0.19989   0.00000  Uiso   1.00
O72    O     0.57505   0.25000   0.30012   0.00000  Uiso   1.00
C73    C     0.40122   0.24996   0.23748   0.00000  Uiso   1.00
C74    C     0.59878   0.25005   0.26253   0.00000  Uiso   1.00
Cu75   Cu    0.50000   0.25000   0.29822   0.00000  Uiso   1.00
Cu76   Cu    0.50000   0.25001   0.20179   0.00000  Uiso   1.00
C77    C     0.34582   0.24995   0.23067   0.00000  Uiso   1.00
C78    C     0.65418   0.25006   0.26935   0.00000  Uiso   1.00
H79    H     0.65886   0.24987   0.19369   0.00000  Uiso   1.00
H80    H     0.34113   0.25015   0.30633   0.00000  Uiso   1.00
C81    C     0.47708   0.04801   0.28511   0.00000  Uiso   1.00
C82    C     0.48969   0.45199   0.20591   0.00000  Uiso   1.00
H83    H     0.45904   0.03094   0.31241   0.00000  Uiso   1.00
H84    H     0.48166   0.46871   0.17146   0.00000  Uiso   1.00
C85    C     0.47775   0.09391   0.28530   0.00000  Uiso   1.00
C86    C     0.49021   0.40610   0.20607   0.00000  Uiso   1.00
H87    H     0.46066   0.11144   0.31295   0.00000  Uiso   1.00
H88    H     0.48316   0.38843   0.17166   0.00000  Uiso   1.00
C89    C     0.49940   0.11688   0.24953   0.00000  Uiso   1.00
C90    C     0.49916   0.38341   0.25018   0.00000  Uiso   1.00
C91    C     0.52076   0.09359   0.21378   0.00000  Uiso   1.00
C92    C     0.50749   0.40727   0.29411   0.00000  Uiso   1.00
H93    H     0.53826   0.11088   0.18627   0.00000  Uiso   1.00
H94    H     0.51431   0.39057   0.32862   0.00000  Uiso   1.00
C95    C     0.52082   0.04766   0.21401   0.00000  Uiso   1.00
C96    C     0.50773   0.45319   0.29392   0.00000  Uiso   1.00
H97    H     0.53871   0.03033   0.18677   0.00000  Uiso   1.00
H98    H     0.51557   0.47087   0.32826   0.00000  Uiso   1.00
C99    C     0.49884   0.02449   0.24961   0.00000  Uiso   1.00
C100   C     0.49875   0.47592   0.24982   0.00000  Uiso   1.00
C101   C     0.52595   0.28342   0.05799   0.00000  Uiso   1.00
C102   C     0.45747   0.23205   0.43978   0.00000  Uiso   1.00
H103   H     0.54638   0.31019   0.04325   0.00000  Uiso   1.00
H104   H     0.42365   0.21830   0.45260   0.00000  Uiso   1.00
C105   C     0.52642   0.28214   0.10871   0.00000  Uiso   1.00
C106   C     0.45921   0.23171   0.38932   0.00000  Uiso   1.00
H107   H     0.54775   0.30729   0.13150   0.00000  Uiso   1.00
H108   H     0.42739   0.21688   0.36516   0.00000  Uiso   1.00
N109   N     0.50000   0.25001   0.12935   0.00000  Uiso   1.00
N110   N     0.50000   0.24999   0.37066   0.00000  Uiso   1.00
C111   C     0.47264   0.21833   0.10006   0.00000  Uiso   1.00
C112   C     0.54037   0.26848   0.40212   0.00000  Uiso   1.00
C113   C     0.47240   0.21810   0.04946   0.00000  Uiso   1.00
C114   C     0.54037   0.26814   0.45266   0.00000  Uiso   1.00
H115   H     0.45158   0.19184   0.02797   0.00000  Uiso   1.00
H116   H     0.57356   0.28188   0.47602   0.00000  Uiso   1.00
C117   C     0.49879   0.25089   0.02718   0.00000  Uiso   1.00
C118   C     0.49858   0.25049   0.47266   0.00000  Uiso   1.00
N119   N     0.44336   0.18485   0.12003   0.00000  Uiso   1.00
O120   O     0.39605   0.19299   0.12602   0.00000  Uiso   1.00
O121   O     0.45719   0.14392   0.11719   0.00000  Uiso   1.00
N122   N     0.58361   0.28877   0.38473   0.00000  Uiso   1.00
O123   O     0.57845   0.32706   0.36403   0.00000  Uiso   1.00
O124   O     0.62984   0.27491   0.40028   0.00000  Uiso   1.00
O125   O     0.83334   0.18573   0.29072   0.00000  Uiso   1.00
O126   O     0.83333   0.31428   0.20929   0.00000  Uiso   1.00
O127   O     0.83334   0.18573   0.20928   0.00000  Uiso   1.00
O128   O     0.83333   0.31427   0.29072   0.00000  Uiso   1.00
C129   C     0.83319   0.16503   0.24981   0.00000  Uiso   1.00
C130   C     0.83311   0.33507   0.25013   0.00000  Uiso   1.00
O131   O     0.75828   0.25000   0.28132   0.00000  Uiso   1.00
O132   O     0.90839   0.25001   0.21868   0.00000  Uiso   1.00
O133   O     0.75828   0.25000   0.19989   0.00000  Uiso   1.00
O134   O     0.90839   0.25000   0.30012   0.00000  Uiso   1.00
C135   C     0.73455   0.24996   0.23748   0.00000  Uiso   1.00
C136   C     0.93212   0.25005   0.26253   0.00000  Uiso   1.00
Cu137  Cu    0.83333   0.25000   0.29822   0.00000  Uiso   1.00
Cu138  Cu    0.83333   0.25001   0.20179   0.00000  Uiso   1.00
C139   C     0.67915   0.24995   0.23067   0.00000  Uiso   1.00
C140   C     0.98751   0.25006   0.26935   0.00000  Uiso   1.00
H141   H     0.99219   0.24987   0.19369   0.00000  Uiso   1.00
H142   H     0.67447   0.25015   0.30633   0.00000  Uiso   1.00
C143   C     0.81042   0.04801   0.28511   0.00000  Uiso   1.00
C144   C     0.82302   0.45199   0.20591   0.00000  Uiso   1.00
H145   H     0.79238   0.03094   0.31241   0.00000  Uiso   1.00
H146   H     0.81500   0.46871   0.17146   0.00000  Uiso   1.00
C147   C     0.81109   0.09391   0.28530   0.00000  Uiso   1.00
C148   C     0.82355   0.40610   0.20607   0.00000  Uiso   1.00
H149   H     0.79400   0.11144   0.31295   0.00000  Uiso   1.00
H150   H     0.81649   0.38843   0.17166   0.00000  Uiso   1.00
C151   C     0.83273   0.11688   0.24953   0.00000  Uiso   1.00
C152   C     0.83249   0.38341   0.25018   0.00000  Uiso   1.00
C153   C     0.85409   0.09359   0.21378   0.00000  Uiso   1.00
C154   C     0.84083   0.40727   0.29411   0.00000  Uiso   1.00
H155   H     0.87159   0.11088   0.18627   0.00000  Uiso   1.00
H156   H     0.84764   0.39057   0.32862   0.00000  Uiso   1.00
C157   C     0.85416   0.04766   0.21401   0.00000  Uiso   1.00
C158   C     0.84107   0.45319   0.29392   0.00000  Uiso   1.00
H159   H     0.87204   0.03033   0.18677   0.00000  Uiso   1.00
H160   H     0.84890   0.47087   0.32826   0.00000  Uiso   1.00
C161   C     0.83218   0.02449   0.24961   0.00000  Uiso   1.00
C162   C     0.83208   0.47592   0.24982   0.00000  Uiso   1.00
C163   C     0.85929   0.28342   0.05799   0.00000  Uiso   1.00
C164   C     0.79080   0.23205   0.43978   0.00000  Uiso   1.00
H165   H     0.87971   0.31019   0.04325   0.00000  Uiso   1.00
H166   H     0.75699   0.21830   0.45260   0.00000  Uiso   1.00
C167   C     0.85975   0.28214   0.10871   0.00000  Uiso   1.00
C168   C     0.79254   0.23171   0.38932   0.00000  Uiso   1.00
H169   H     0.88108   0.30729   0.13150   0.00000  Uiso   1.00
H170   H     0.76073   0.21688   0.36516   0.00000  Uiso   1.00
N171   N     0.83333   0.25001   0.12935   0.00000  Uiso   1.00
N172   N     0.83333   0.24999   0.37066   0.00000  Uiso   1.00
C173   C     0.80597   0.21833   0.10006   0.00000  Uiso   1.00
C174   C     0.87371   0.26848   0.40212   0.00000  Uiso   1.00
C175   C     0.80573   0.21810   0.04946   0.00000  Uiso   1.00
C176   C     0.87371   0.26814   0.45266   0.00000  Uiso   1.00
H177   H     0.78491   0.19184   0.02797   0.00000  Uiso   1.00
H178   H     0.90690   0.28188   0.47602   0.00000  Uiso   1.00
C179   C     0.83212   0.25089   0.02718   0.00000  Uiso   1.00
C180   C     0.83192   0.25049   0.47266   0.00000  Uiso   1.00
N181   N     0.77669   0.18485   0.12003   0.00000  Uiso   1.00
O182   O     0.72939   0.19299   0.12602   0.00000  Uiso   1.00
O183   O     0.79052   0.14392   0.11719   0.00000  Uiso   1.00
N184   N     0.91694   0.28877   0.38473   0.00000  Uiso   1.00
O185   O     0.91178   0.32706   0.36403   0.00000  Uiso   1.00
O186   O     0.96317   0.27491   0.40028   0.00000  Uiso   1.00
O187   O     0.16667   0.68573   0.29072   0.00000  Uiso   1.00
O188   O     0.16666   0.81428   0.20929   0.00000  Uiso   1.00
O189   O     0.16667   0.68573   0.20928   0.00000  Uiso   1.00
O190   O     0.16666   0.81427   0.29072   0.00000  Uiso   1.00
C191   C     0.16652   0.66503   0.24981   0.00000  Uiso   1.00
C192   C     0.16645   0.83507   0.25013   0.00000  Uiso   1.00
O193   O     0.09161   0.75000   0.28132   0.00000  Uiso   1.00
O194   O     0.24172   0.75001   0.21868   0.00000  Uiso   1.00
O195   O     0.09161   0.75000   0.19989   0.00000  Uiso   1.00
O196   O     0.24172   0.75000   0.30012   0.00000  Uiso   1.00
C197   C     0.06788   0.74996   0.23748   0.00000  Uiso   1.00
C198   C     0.26545   0.75005   0.26253   0.00000  Uiso   1.00
Cu199  Cu    0.16667   0.75000   0.29822   0.00000  Uiso   1.00
Cu200  Cu    0.16667   0.75001   0.20179   0.00000  Uiso   1.00
C201   C     0.01249   0.74995   0.23067   0.00000  Uiso   1.00
C202   C     0.32085   0.75006   0.26935   0.00000  Uiso   1.00
H203   H     0.32553   0.74987   0.19369   0.00000  Uiso   1.00
H204   H     0.00780   0.75015   0.30633   0.00000  Uiso   1.00
C205   C     0.14375   0.54801   0.28511   0.00000  Uiso   1.00
C206   C     0.15635   0.95199   0.20591   0.00000  Uiso   1.00
H207   H     0.12571   0.53094   0.31241   0.00000  Uiso   1.00
H208   H     0.14833   0.96871   0.17146   0.00000  Uiso   1.00
C209   C     0.14442   0.59391   0.28530   0.00000  Uiso   1.00
C210   C     0.15688   0.90610   0.20607   0.00000  Uiso   1.00
H211   H     0.12733   0.61144   0.31295   0.00000  Uiso   1.00
H212   H     0.14982   0.88843   0.17166   0.00000  Uiso   1.00
C213   C     0.16607   0.61688   0.24953   0.00000  Uiso   1.00
C214   C     0.16582   0.88341   0.25018   0.00000  Uiso   1.00
C215   C     0.18743   0.59359   0.21378   0.00000  Uiso   1.00
C216   C     0.17416   0.90727   0.29411   0.00000  Uiso   1.00
H217   H     0.20492   0.61088   0.18627   0.00000  Uiso   1.00
H218   H     0.18098   0.89057   0.32862   0.00000  Uiso   1.00
C219   C     0.18749   0.54766   0.21401   0.00000  Uiso   1.00
C220   C     0.17440   0.95319   0.29392   0.00000  Uiso   1.00
H221   H     0.20538   0.53033   0.18677   0.00000  Uiso   1.00
H222   H     0.18224   0.97087   0.32826   0.00000  Uiso   1.00
C223   C     0.16551   0.52449   0.24961   0.00000  Uiso   1.00
C224   C     0.16542   0.97592   0.24982   0.00000  Uiso   1.00
C225   C     0.19262   0.78342   0.05799   0.00000  Uiso   1.00
C226   C     0.12413   0.73205   0.43978   0.00000  Uiso   1.00
H227   H     0.21305   0.81019   0.04325   0.00000  Uiso   1.00
H228   H     0.09032   0.71830   0.45260   0.00000  Uiso   1.00
C229   C     0.19309   0.78214   0.10871   0.00000  Uiso   1.00
C230   C     0.12588   0.73171   0.38932   0.00000  Uiso   1.00
H231   H     0.21441   0.80729   0.13150   0.00000  Uiso   1.00
H232   H     0.09406   0.71688   0.36516   0.00000  Uiso   1.00
N233   N     0.16667   0.75001   0.12935   0.00000  Uiso   1.00
N234   N     0.16667   0.74999   0.37066   0.00000  Uiso   1.00
C235   C     0.13930   0.71833   0.10006   0.00000  Uiso   1.00
C236   C     0.20704   0.76848   0.40212   0.00000  Uiso   1.00
C237   C     0.13906   0.71810   0.04946   0.00000  Uiso   1.00
C238   C     0.20704   0.76814   0.45266   0.00000  Uiso   1.00
H239   H     0.11825   0.69184   0.02797   0.00000  Uiso   1.00
H240   H     0.24023   0.78188   0.47602   0.00000  Uiso   1.00
C241   C     0.16545   0.75089   0.02718   0.00000  Uiso   1.00
C242   C     0.16525   0.75049   0.47266   0.00000  Uiso   1.00
N243   N     0.11002   0.68485   0.12003   0.00000  Uiso   1.00
O244   O     0.06272   0.69299   0.12602   0.00000  Uiso   1.00
O245   O     0.12386   0.64392   0.11719   0.00000  Uiso   1.00
N246   N     0.25027   0.78877   0.38473   0.00000  Uiso   1.00
O247   O     0.24511   0.82706   0.36403   0.00000  Uiso   1.00
O248   O     0.29650   0.77491   0.40028   0.00000  Uiso   1.00
O249   O     0.50000   0.68573   0.29072   0.00000  Uiso   1.00
O250   O     0.50000   0.81428   0.20929   0.00000  Uiso   1.00
O251   O     0.50000   0.68573   0.20928   0.00000  Uiso   1.00
O252   O     0.50000   0.81427   0.29072   0.00000  Uiso   1.00
C253   C     0.49986   0.66503   0.24981   0.00000  Uiso   1.00
C254   C     0.49978   0.83507   0.25013   0.00000  Uiso   1.00
O255   O     0.42495   0.75000   0.28132   0.00000  Uiso   1.00
O256   O     0.57505   0.75001   0.21868   0.00000  Uiso   1.00
O257   O     0.42495   0.75000   0.19989   0.00000  Uiso   1.00
O258   O     0.57505   0.75000   0.30012   0.00000  Uiso   1.00
C259   C     0.40122   0.74996   0.23748   0.00000  Uiso   1.00
C260   C     0.59878   0.75005   0.26253   0.00000  Uiso   1.00
Cu261  Cu    0.50000   0.75000   0.29822   0.00000  Uiso   1.00
Cu262  Cu    0.50000   0.75001   0.20179   0.00000  Uiso   1.00
C263   C     0.34582   0.74995   0.23067   0.00000  Uiso   1.00
C264   C     0.65418   0.75006   0.26935   0.00000  Uiso   1.00
H265   H     0.65886   0.74987   0.19369   0.00000  Uiso   1.00
H266   H     0.34113   0.75015   0.30633   0.00000  Uiso   1.00
C267   C     0.47708   0.54801   0.28511   0.00000  Uiso   1.00
C268   C     0.48969   0.95199   0.20591   0.00000  Uiso   1.00
H269   H     0.45904   0.53094   0.31241   0.00000  Uiso   1.00
H270   H     0.48166   0.96871   0.17146   0.00000  Uiso   1.00
C271   C     0.47775   0.59391   0.28530   0.00000  Uiso   1.00
C272   C     0.49021   0.90610   0.20607   0.00000  Uiso   1.00
H273   H     0.46066   0.61144   0.31295   0.00000  Uiso   1.00
H274   H     0.48316   0.88843   0.17166   0.00000  Uiso   1.00
C275   C     0.49940   0.61688   0.24953   0.00000  Uiso   1.00
C276   C     0.49916   0.88341   0.25018   0.00000  Uiso   1.00
C277   C     0.52076   0.59359   0.21378   0.00000  Uiso   1.00
C278   C     0.50749   0.90727   0.29411   0.00000  Uiso   1.00
H279   H     0.53826   0.61088   0.18627   0.00000  Uiso   1.00
H280   H     0.51431   0.89057   0.32862   0.00000  Uiso   1.00
C281   C     0.52082   0.54766   0.21401   0.00000  Uiso   1.00
C282   C     0.50773   0.95319   0.29392   0.00000  Uiso   1.00
H283   H     0.53871   0.53033   0.18677   0.00000  Uiso   1.00
H284   H     0.51557   0.97087   0.32826   0.00000  Uiso   1.00
C285   C     0.49884   0.52449   0.24961   0.00000  Uiso   1.00
C286   C     0.49875   0.97592   0.24982   0.00000  Uiso   1.00
C287   C     0.52595   0.78342   0.05799   0.00000  Uiso   1.00
C288   C     0.45747   0.73205   0.43978   0.00000  Uiso   1.00
H289   H     0.54638   0.81019   0.04325   0.00000  Uiso   1.00
H290   H     0.42365   0.71830   0.45260   0.00000  Uiso   1.00
C291   C     0.52642   0.78214   0.10871   0.00000  Uiso   1.00
C292   C     0.45921   0.73171   0.38932   0.00000  Uiso   1.00
H293   H     0.54775   0.80729   0.13150   0.00000  Uiso   1.00
H294   H     0.42739   0.71688   0.36516   0.00000  Uiso   1.00
N295   N     0.50000   0.75001   0.12935   0.00000  Uiso   1.00
N296   N     0.50000   0.74999   0.37066   0.00000  Uiso   1.00
C297   C     0.47264   0.71833   0.10006   0.00000  Uiso   1.00
C298   C     0.54037   0.76848   0.40212   0.00000  Uiso   1.00
C299   C     0.47240   0.71810   0.04946   0.00000  Uiso   1.00
C300   C     0.54037   0.76814   0.45266   0.00000  Uiso   1.00
H301   H     0.45158   0.69184   0.02797   0.00000  Uiso   1.00
H302   H     0.57356   0.78188   0.47602   0.00000  Uiso   1.00
C303   C     0.49879   0.75089   0.02718   0.00000  Uiso   1.00
C304   C     0.49858   0.75049   0.47266   0.00000  Uiso   1.00
N305   N     0.44336   0.68485   0.12003   0.00000  Uiso   1.00
O306   O     0.39605   0.69299   0.12602   0.00000  Uiso   1.00
O307   O     0.45719   0.64392   0.11719   0.00000  Uiso   1.00
N308   N     0.58361   0.78877   0.38473   0.00000  Uiso   1.00
O309   O     0.57845   0.82706   0.36403   0.00000  Uiso   1.00
O310   O     0.62984   0.77491   0.40028   0.00000  Uiso   1.00
O311   O     0.83334   0.68573   0.29072   0.00000  Uiso   1.00
O312   O     0.83333   0.81428   0.20929   0.00000  Uiso   1.00
O313   O     0.83334   0.68573   0.20928   0.00000  Uiso   1.00
O314   O     0.83333   0.81427   0.29072   0.00000  Uiso   1.00
C315   C     0.83319   0.66503   0.24981   0.00000  Uiso   1.00
C316   C     0.83311   0.83507   0.25013   0.00000  Uiso   1.00
O317   O     0.75828   0.75000   0.28132   0.00000  Uiso   1.00
O318   O     0.90839   0.75001   0.21868   0.00000  Uiso   1.00
O319   O     0.75828   0.75000   0.19989   0.00000  Uiso   1.00
O320   O     0.90839   0.75000   0.30012   0.00000  Uiso   1.00
C321   C     0.73455   0.74996   0.23748   0.00000  Uiso   1.00
C322   C     0.93212   0.75005   0.26253   0.00000  Uiso   1.00
Cu323  Cu    0.83333   0.75000   0.29822   0.00000  Uiso   1.00
Cu324  Cu    0.83333   0.75001   0.20179   0.00000  Uiso   1.00
C325   C     0.67915   0.74995   0.23067   0.00000  Uiso   1.00
C326   C     0.98751   0.75006   0.26935   0.00000  Uiso   1.00
H327   H     0.99219   0.74987   0.19369   0.00000  Uiso   1.00
H328   H     0.67447   0.75015   0.30633   0.00000  Uiso   1.00
C329   C     0.81042   0.54801   0.28511   0.00000  Uiso   1.00
C330   C     0.82302   0.95199   0.20591   0.00000  Uiso   1.00
H331   H     0.79238   0.53094   0.31241   0.00000  Uiso   1.00
H332   H     0.81500   0.96871   0.17146   0.00000  Uiso   1.00
C333   C     0.81109   0.59391   0.28530   0.00000  Uiso   1.00
C334   C     0.82355   0.90610   0.20607   0.00000  Uiso   1.00
H335   H     0.79400   0.61144   0.31295   0.00000  Uiso   1.00
H336   H     0.81649   0.88843   0.17166   0.00000  Uiso   1.00
C337   C     0.83273   0.61688   0.24953   0.00000  Uiso   1.00
C338   C     0.83249   0.88341   0.25018   0.00000  Uiso   1.00
C339   C     0.85409   0.59359   0.21378   0.00000  Uiso   1.00
C340   C     0.84083   0.90727   0.29411   0.00000  Uiso   1.00
H341   H     0.87159   0.61088   0.18627   0.00000  Uiso   1.00
H342   H     0.84764   0.89057   0.32862   0.00000  Uiso   1.00
C343   C     0.85416   0.54766   0.21401   0.00000  Uiso   1.00
C344   C     0.84107   0.95319   0.29392   0.00000  Uiso   1.00
H345   H     0.87204   0.53033   0.18677   0.00000  Uiso   1.00
H346   H     0.84890   0.97087   0.32826   0.00000  Uiso   1.00
C347   C     0.83218   0.52449   0.24961   0.00000  Uiso   1.00
C348   C     0.83208   0.97592   0.24982   0.00000  Uiso   1.00
C349   C     0.85929   0.78342   0.05799   0.00000  Uiso   1.00
C350   C     0.79080   0.73205   0.43978   0.00000  Uiso   1.00
H351   H     0.87971   0.81019   0.04325   0.00000  Uiso   1.00
H352   H     0.75699   0.71830   0.45260   0.00000  Uiso   1.00
C353   C     0.85975   0.78214   0.10871   0.00000  Uiso   1.00
C354   C     0.79254   0.73171   0.38932   0.00000  Uiso   1.00
H355   H     0.88108   0.80729   0.13150   0.00000  Uiso   1.00
H356   H     0.76073   0.71688   0.36516   0.00000  Uiso   1.00
N357   N     0.83333   0.75001   0.12935   0.00000  Uiso   1.00
N358   N     0.83333   0.74999   0.37066   0.00000  Uiso   1.00
C359   C     0.80597   0.71833   0.10006   0.00000  Uiso   1.00
C360   C     0.87371   0.76848   0.40212   0.00000  Uiso   1.00
C361   C     0.80573   0.71810   0.04946   0.00000  Uiso   1.00
C362   C     0.87371   0.76814   0.45266   0.00000  Uiso   1.00
H363   H     0.78491   0.69184   0.02797   0.00000  Uiso   1.00
H364   H     0.90690   0.78188   0.47602   0.00000  Uiso   1.00
C365   C     0.83212   0.75089   0.02718   0.00000  Uiso   1.00
C366   C     0.83192   0.75049   0.47266   0.00000  Uiso   1.00
N367   N     0.77669   0.68485   0.12003   0.00000  Uiso   1.00
O368   O     0.72939   0.69299   0.12602   0.00000  Uiso   1.00
O369   O     0.79052   0.64392   0.11719   0.00000  Uiso   1.00
N370   N     0.91694   0.78877   0.38473   0.00000  Uiso   1.00
O371   O     0.91178   0.82706   0.36403   0.00000  Uiso   1.00
O372   O     0.96317   0.77491   0.40028   0.00000  Uiso   1.00
O373   O     0.16667   0.18573   0.79072   0.00000  Uiso   1.00
O374   O     0.16666   0.31428   0.70929   0.00000  Uiso   1.00
O375   O     0.16667   0.18573   0.70928   0.00000  Uiso   1.00
O376   O     0.16666   0.31427   0.79072   0.00000  Uiso   1.00
C377   C     0.16652   0.16503   0.74981   0.00000  Uiso   1.00
C378   C     0.16645   0.33507   0.75013   0.00000  Uiso   1.00
O379   O     0.09161   0.25000   0.78132   0.00000  Uiso   1.00
O380   O     0.24172   0.25001   0.71868   0.00000  Uiso   1.00
O381   O     0.09161   0.25000   0.69989   0.00000  Uiso   1.00
O382   O     0.24172   0.25000   0.80012   0.00000  Uiso   1.00
C383   C     0.06788   0.24996   0.73748   0.00000  Uiso   1.00
C384   C     0.26545   0.25005   0.76253   0.00000  Uiso   1.00
Cu385  Cu    0.16667   0.25000   0.79822   0.00000  Uiso   1.00
Cu386  Cu    0.16667   0.25001   0.70179   0.00000  Uiso   1.00
C387   C     0.01249   0.24995   0.73067   0.00000  Uiso   1.00
C388   C     0.32085   0.25006   0.76935   0.00000  Uiso   1.00
H389   H     0.32553   0.24987   0.69369   0.00000  Uiso   1.00
H390   H     0.00780   0.25015   0.80633   0.00000  Uiso   1.00
C391   C     0.14375   0.04801   0.78511   0.00000  Uiso   1.00
C392   C     0.15635   0.45199   0.70591   0.00000  Uiso   1.00
H393   H     0.12571   0.03094   0.81241   0.00000  Uiso   1.00
H394   H     0.14833   0.46871   0.67146   0.00000  Uiso   1.00
C395   C     0.14442   0.09391   0.78530   0.00000  Uiso   1.00
C396   C     0.15688   0.40610   0.70607   0.00000  Uiso   1.00
H397   H     0.12733   0.11144   0.81295   0.00000  Uiso   1.00
H398   H     0.14982   0.38843   0.67166   0.00000  Uiso   1.00
C399   C     0.16607   0.11688   0.74953   0.00000  Uiso   1.00
C400   C     0.16582   0.38341   0.75018   0.00000  Uiso   1.00
C401   C     0.18743   0.09359   0.71378   0.00000  Uiso   1.00
C402   C     0.17416   0.40727   0.79411   0.00000  Uiso   1.00
H403   H     0.20492   0.11088   0.68627   0.00000  Uiso   1.00
H404   H     0.18098   0.39057   0.82862   0.00000  Uiso   1.00
C405   C     0.18749   0.04766   0.71401   0.00000  Uiso   1.00
C406   C     0.17440   0.45319   0.79392   0.00000  Uiso   1.00
H407   H     0.20538   0.03033   0.68677   0.00000  Uiso   1.00
H408   H     0.18224   0.47087   0.82826   0.00000  Uiso   1.00
C409   C     0.16551   0.02449   0.74961   0.00000  Uiso   1.00
C410   C     0.16542   0.47592   0.74982   0.00000  Uiso   1.00
C411   C     0.19262   0.28342   0.55799   0.00000  Uiso   1.00
C412   C     0.12413   0.23205   0.93978   0.00000  Uiso   1.00
H413   H     0.21305   0.31019   0.54325   0.00000  Uiso   1.00
H414   H     0.09032   0.21830   0.95260   0.00000  Uiso   1.00
C415   C     0.19309   0.28214   0.60871   0.00000  Uiso   1.00
C416   C     0.12588   0.23171   0.88932   0.00000  Uiso   1.00
H417   H     0.21441   0.30729   0.63150   0.00000  Uiso   1.00
H418   H     0.09406   0.21688   0.86516   0.00000  Uiso   1.00
N419   N     0.16667   0.25001   0.62935   0.00000  Uiso   1.00
N420   N     0.16667   0.24999   0.87066   0.00000  Uiso   1.00
C421   C     0.13930   0.21833   0.60006   0.00000  Uiso   1.00
C422   C     0.20704   0.26848   0.90212   0.00000  Uiso   1.00
C423   C     0.13906   0.21810   0.54946   0.00000  Uiso   1.00
C424   C     0.20704   0.26814   0.95266   0.00000  Uiso   1.00
H425   H     0.11825   0.19184   0.52797   0.00000  Uiso   1.00
H426   H     0.24023   0.28188   0.97602   0.00000  Uiso   1.00
C427   C     0.16545   0.25089   0.52718   0.00000  Uiso   1.00
C428   C     0.16525   0.25049   0.97266   0.00000  Uiso   1.00
N429   N     0.11002   0.18485   0.62003   0.00000  Uiso   1.00
O430   O     0.06272   0.19299   0.62602   0.00000  Uiso   1.00
O431   O     0.12386   0.14392   0.61719   0.00000  Uiso   1.00
N432   N     0.25027   0.28877   0.88473   0.00000  Uiso   1.00
O433   O     0.24511   0.32706   0.86403   0.00000  Uiso   1.00
O434   O     0.29650   0.27491   0.90028   0.00000  Uiso   1.00
O435   O     0.50000   0.18573   0.79072   0.00000  Uiso   1.00
O436   O     0.50000   0.31428   0.70929   0.00000  Uiso   1.00
O437   O     0.50000   0.18573   0.70928   0.00000  Uiso   1.00
O438   O     0.50000   0.31427   0.79072   0.00000  Uiso   1.00
C439   C     0.49986   0.16503   0.74981   0.00000  Uiso   1.00
C440   C     0.49978   0.33507   0.75013   0.00000  Uiso   1.00
O441   O     0.42495   0.25000   0.78132   0.00000  Uiso   1.00
O442   O     0.57505   0.25001   0.71868   0.00000  Uiso   1.00
O443   O     0.42495   0.25000   0.69989   0.00000  Uiso   1.00
O444   O     0.57505   0.25000   0.80012   0.00000  Uiso   1.00
C445   C     0.40122   0.24996   0.73748   0.00000  Uiso   1.00
C446   C     0.59878   0.25005   0.76253   0.00000  Uiso   1.00
Cu447  Cu    0.50000   0.25000   0.79822   0.00000  Uiso   1.00
Cu448  Cu    0.50000   0.25001   0.70179   0.00000  Uiso   1.00
C449   C     0.34582   0.24995   0.73067   0.00000  Uiso   1.00
C450   C     0.65418   0.25006   0.76935   0.00000  Uiso   1.00
H451   H     0.65886   0.24987   0.69369   0.00000  Uiso   1.00
H452   H     0.34113   0.25015   0.80633   0.00000  Uiso   1.00
C453   C     0.47708   0.04801   0.78511   0.00000  Uiso   1.00
C454   C     0.48969   0.45199   0.70591   0.00000  Uiso   1.00
H455   H     0.45904   0.03094   0.81241   0.00000  Uiso   1.00
H456   H     0.48166   0.46871   0.67146   0.00000  Uiso   1.00
C457   C     0.47775   0.09391   0.78530   0.00000  Uiso   1.00
C458   C     0.49021   0.40610   0.70607   0.00000  Uiso   1.00
H459   H     0.46066   0.11144   0.81295   0.00000  Uiso   1.00
H460   H     0.48316   0.38843   0.67166   0.00000  Uiso   1.00
C461   C     0.49940   0.11688   0.74953   0.00000  Uiso   1.00
C462   C     0.49916   0.38341   0.75018   0.00000  Uiso   1.00
C463   C     0.52076   0.09359   0.71378   0.00000  Uiso   1.00
C464   C     0.50749   0.40727   0.79411   0.00000  Uiso   1.00
H465   H     0.53826   0.11088   0.68627   0.00000  Uiso   1.00
H466   H     0.51431   0.39057   0.82862   0.00000  Uiso   1.00
C467   C     0.52082   0.04766   0.71401   0.00000  Uiso   1.00
C468   C     0.50773   0.45319   0.79392   0.00000  Uiso   1.00
H469   H     0.53871   0.03033   0.68677   0.00000  Uiso   1.00
H470   H     0.51557   0.47087   0.82826   0.00000  Uiso   1.00
C471   C     0.49884   0.02449   0.74961   0.00000  Uiso   1.00
C472   C     0.49875   0.47592   0.74982   0.00000  Uiso   1.00
C473   C     0.52595   0.28342   0.55799   0.00000  Uiso   1.00
C474   C     0.45747   0.23205   0.93978   0.00000  Uiso   1.00
H475   H     0.54638   0.31019   0.54325   0.00000  Uiso   1.00
H476   H     0.42365   0.21830   0.95260   0.00000  Uiso   1.00
C477   C     0.52642   0.28214   0.60871   0.00000  Uiso   1.00
C478   C     0.45921   0.23171   0.88932   0.00000  Uiso   1.00
H479   H     0.54775   0.30729   0.63150   0.00000  Uiso   1.00
H480   H     0.42739   0.21688   0.86516   0.00000  Uiso   1.00
N481   N     0.50000   0.25001   0.62935   0.00000  Uiso   1.00
N482   N     0.50000   0.24999   0.87066   0.00000  Uiso   1.00
C483   C     0.47264   0.21833   0.60006   0.00000  Uiso   1.00
C484   C     0.54037   0.26848   0.90212   0.00000  Uiso   1.00
C485   C     0.47240   0.21810   0.54946   0.00000  Uiso   1.00
C486   C     0.54037   0.26814   0.95266   0.00000  Uiso   1.00
H487   H     0.45158   0.19184   0.52797   0.00000  Uiso   1.00
H488   H     0.57356   0.28188   0.97602   0.00000  Uiso   1.00
C489   C     0.49879   0.25089   0.52718   0.00000  Uiso   1.00
C490   C     0.49858   0.25049   0.97266   0.00000  Uiso   1.00
N491   N     0.44336   0.18485   0.62003   0.00000  Uiso   1.00
O492   O     0.39605   0.19299   0.62602   0.00000  Uiso   1.00
O493   O     0.45719   0.14392   0.61719   0.00000  Uiso   1.00
N494   N     0.58361   0.28877   0.88473   0.00000  Uiso   1.00
O495   O     0.57845   0.32706   0.86403   0.00000  Uiso   1.00
O496   O     0.62984   0.27491   0.90028   0.00000  Uiso   1.00
O497   O     0.83334   0.18573   0.79072   0.00000  Uiso   1.00
O498   O     0.83333   0.31428   0.70929   0.00000  Uiso   1.00
O499   O     0.83334   0.18573   0.70928   0.00000  Uiso   1.00
O500   O     0.83333   0.31427   0.79072   0.00000  Uiso   1.00
C501   C     0.83319   0.16503   0.74981   0.00000  Uiso   1.00
C502   C     0.83311   0.33507   0.75013   0.00000  Uiso   1.00
O503   O     0.75828   0.25000   0.78132   0.00000  Uiso   1.00
O504   O     0.90839   0.25001   0.71868   0.00000  Uiso   1.00
O505   O     0.75828   0.25000   0.69989   0.00000  Uiso   1.00
O506   O     0.90839   0.25000   0.80012   0.00000  Uiso   1.00
C507   C     0.73455   0.24996   0.73748   0.00000  Uiso   1.00
C508   C     0.93212   0.25005   0.76253   0.00000  Uiso   1.00
Cu509  Cu    0.83333   0.25000   0.79822   0.00000  Uiso   1.00
Cu510  Cu    0.83333   0.25001   0.70179   0.00000  Uiso   1.00
C511   C     0.67915   0.24995   0.73067   0.00000  Uiso   1.00
C512   C     0.98751   0.25006   0.76935   0.00000  Uiso   1.00
H513   H     0.99219   0.24987   0.69369   0.00000  Uiso   1.00
H514   H     0.67447   0.25015   0.80633   0.00000  Uiso   1.00
C515   C     0.81042   0.04801   0.78511   0.00000  Uiso   1.00
C516   C     0.82302   0.45199   0.70591   0.00000  Uiso   1.00
H517   H     0.79238   0.03094   0.81241   0.00000  Uiso   1.00
H518   H     0.81500   0.46871   0.67146   0.00000  Uiso   1.00
C519   C     0.81109   0.09391   0.78530   0.00000  Uiso   1.00
C520   C     0.82355   0.40610   0.70607   0.00000  Uiso   1.00
H521   H     0.79400   0.11144   0.81295   0.00000  Uiso   1.00
H522   H     0.81649   0.38843   0.67166   0.00000  Uiso   1.00
C523   C     0.83273   0.11688   0.74953   0.00000  Uiso   1.00
C524   C     0.83249   0.38341   0.75018   0.00000  Uiso   1.00
C525   C     0.85409   0.09359   0.71378   0.00000  Uiso   1.00
C526   C     0.84083   0.40727   0.79411   0.00000  Uiso   1.00
H527   H     0.87159   0.11088   0.68627   0.00000  Uiso   1.00
H528   H     0.84764   0.39057   0.82862   0.00000  Uiso   1.00
C529   C     0.85416   0.04766   0.71401   0.00000  Uiso   1.00
C530   C     0.84107   0.45319   0.79392   0.00000  Uiso   1.00
H531   H     0.87204   0.03033   0.68677   0.00000  Uiso   1.00
H532   H     0.84890   0.47087   0.82826   0.00000  Uiso   1.00
C533   C     0.83218   0.02449   0.74961   0.00000  Uiso   1.00
C534   C     0.83208   0.47592   0.74982   0.00000  Uiso   1.00
C535   C     0.85929   0.28342   0.55799   0.00000  Uiso   1.00
C536   C     0.79080   0.23205   0.93978   0.00000  Uiso   1.00
H537   H     0.87971   0.31019   0.54325   0.00000  Uiso   1.00
H538   H     0.75699   0.21830   0.95260   0.00000  Uiso   1.00
C539   C     0.85975   0.28214   0.60871   0.00000  Uiso   1.00
C540   C     0.79254   0.23171   0.88932   0.00000  Uiso   1.00
H541   H     0.88108   0.30729   0.63150   0.00000  Uiso   1.00
H542   H     0.76073   0.21688   0.86516   0.00000  Uiso   1.00
N543   N     0.83333   0.25001   0.62935   0.00000  Uiso   1.00
N544   N     0.83333   0.24999   0.87066   0.00000  Uiso   1.00
C545   C     0.80597   0.21833   0.60006   0.00000  Uiso   1.00
C546   C     0.87371   0.26848   0.90212   0.00000  Uiso   1.00
C547   C     0.80573   0.21810   0.54946   0.00000  Uiso   1.00
C548   C     0.87371   0.26814   0.95266   0.00000  Uiso   1.00
H549   H     0.78491   0.19184   0.52797   0.00000  Uiso   1.00
H550   H     0.90690   0.28188   0.97602   0.00000  Uiso   1.00
C551   C     0.83212   0.25089   0.52718   0.00000  Uiso   1.00
C552   C     0.83192   0.25049   0.97266   0.00000  Uiso   1.00
N553   N     0.77669   0.18485   0.62003   0.00000  Uiso   1.00
O554   O     0.72939   0.19299   0.62602   0.00000  Uiso   1.00
O555   O     0.79052   0.14392   0.61719   0.00000  Uiso   1.00
N556   N     0.91694   0.28877   0.88473   0.00000  Uiso   1.00
O557   O     0.91178   0.32706   0.86403   0.00000  Uiso   1.00
O558   O     0.96317   0.27491   0.90028   0.00000  Uiso   1.00
O559   O     0.16667   0.68573   0.79072   0.00000  Uiso   1.00
O560   O     0.16666   0.81428   0.70929   0.00000  Uiso   1.00
O561   O     0.16667   0.68573   0.70928   0.00000  Uiso   1.00
O562   O     0.16666   0.81427   0.79072   0.00000  Uiso   1.00
C563   C     0.16652   0.66503   0.74981   0.00000  Uiso   1.00
C564   C     0.16645   0.83507   0.75013   0.00000  Uiso   1.00
O565   O     0.09161   0.75000   0.78132   0.00000  Uiso   1.00
O566   O     0.24172   0.75001   0.71868   0.00000  Uiso   1.00
O567   O     0.09161   0.75000   0.69989   0.00000  Uiso   1.00
O568   O     0.24172   0.75000   0.80012   0.00000  Uiso   1.00
C569   C     0.06788   0.74996   0.73748   0.00000  Uiso   1.00
C570   C     0.26545   0.75005   0.76253   0.00000  Uiso   1.00
Cu571  Cu    0.16667   0.75000   0.79822   0.00000  Uiso   1.00
Cu572  Cu    0.16667   0.75001   0.70179   0.00000  Uiso   1.00
C573   C     0.01249   0.74995   0.73067   0.00000  Uiso   1.00
C574   C     0.32085   0.75006   0.76935   0.00000  Uiso   1.00
H575   H     0.32553   0.74987   0.69369   0.00000  Uiso   1.00
H576   H     0.00780   0.75015   0.80633   0.00000  Uiso   1.00
C577   C     0.14375   0.54801   0.78511   0.00000  Uiso   1.00
C578   C     0.15635   0.95199   0.70591   0.00000  Uiso   1.00
H579   H     0.12571   0.53094   0.81241   0.00000  Uiso   1.00
H580   H     0.14833   0.96871   0.67146   0.00000  Uiso   1.00
C581   C     0.14442   0.59391   0.78530   0.00000  Uiso   1.00
C582   C     0.15688   0.90610   0.70607   0.00000  Uiso   1.00
H583   H     0.12733   0.61144   0.81295   0.00000  Uiso   1.00
H584   H     0.14982   0.88843   0.67166   0.00000  Uiso   1.00
C585   C     0.16607   0.61688   0.74953   0.00000  Uiso   1.00
C586   C     0.16582   0.88341   0.75018   0.00000  Uiso   1.00
C587   C     0.18743   0.59359   0.71378   0.00000  Uiso   1.00
C588   C     0.17416   0.90727   0.79411   0.00000  Uiso   1.00
H589   H     0.20492   0.61088   0.68627   0.00000  Uiso   1.00
H590   H     0.18098   0.89057   0.82862   0.00000  Uiso   1.00
C591   C     0.18749   0.54766   0.71401   0.00000  Uiso   1.00
C592   C     0.17440   0.95319   0.79392   0.00000  Uiso   1.00
H593   H     0.20538   0.53033   0.68677   0.00000  Uiso   1.00
H594   H     0.18224   0.97087   0.82826   0.00000  Uiso   1.00
C595   C     0.16551   0.52449   0.74961   0.00000  Uiso   1.00
C596   C     0.16542   0.97592   0.74982   0.00000  Uiso   1.00
C597   C     0.19262   0.78342   0.55799   0.00000  Uiso   1.00
C598   C     0.12413   0.73205   0.93978   0.00000  Uiso   1.00
H599   H     0.21305   0.81019   0.54325   0.00000  Uiso   1.00
H600   H     0.09032   0.71830   0.95260   0.00000  Uiso   1.00
C601   C     0.19309   0.78214   0.60871   0.00000  Uiso   1.00
C602   C     0.12588   0.73171   0.88932   0.00000  Uiso   1.00
H603   H     0.21441   0.80729   0.63150   0.00000  Uiso   1.00
H604   H     0.09406   0.71688   0.86516   0.00000  Uiso   1.00
N605   N     0.16667   0.75001   0.62935   0.00000  Uiso   1.00
N606   N     0.16667   0.74999   0.87066   0.00000  Uiso   1.00
C607   C     0.13930   0.71833   0.60006   0.00000  Uiso   1.00
C608   C     0.20704   0.76848   0.90212   0.00000  Uiso   1.00
C609   C     0.13906   0.71810   0.54946   0.00000  Uiso   1.00
C610   C     0.20704   0.76814   0.95266   0.00000  Uiso   1.00
H611   H     0.11825   0.69184   0.52797   0.00000  Uiso   1.00
H612   H     0.24023   0.78188   0.97602   0.00000  Uiso   1.00
C613   C     0.16545   0.75089   0.52718   0.00000  Uiso   1.00
C614   C     0.16525   0.75049   0.97266   0.00000  Uiso   1.00
N615   N     0.11002   0.68485   0.62003   0.00000  Uiso   1.00
O616   O     0.06272   0.69299   0.62602   0.00000  Uiso   1.00
O617   O     0.12386   0.64392   0.61719   0.00000  Uiso   1.00
N618   N     0.25027   0.78877   0.88473   0.00000  Uiso   1.00
O619   O     0.24511   0.82706   0.86403   0.00000  Uiso   1.00
O620   O     0.29650   0.77491   0.90028   0.00000  Uiso   1.00
O621   O     0.50000   0.68573   0.79072   0.00000  Uiso   1.00
O622   O     0.50000   0.81428   0.70929   0.00000  Uiso   1.00
O623   O     0.50000   0.68573   0.70928   0.00000  Uiso   1.00
O624   O     0.50000   0.81427   0.79072   0.00000  Uiso   1.00
C625   C     0.49986   0.66503   0.74981   0.00000  Uiso   1.00
C626   C     0.49978   0.83507   0.75013   0.00000  Uiso   1.00
O627   O     0.42495   0.75000   0.78132   0.00000  Uiso   1.00
O628   O     0.57505   0.75001   0.71868   0.00000  Uiso   1.00
O629   O     0.42495   0.75000   0.69989   0.00000  Uiso   1.00
O630   O     0.57505   0.75000   0.80012   0.00000  Uiso   1.00
C631   C     0.40122   0.74996   0.73748   0.00000  Uiso   1.00
C632   C     0.59878   0.75005   0.76253   0.00000  Uiso   1.00
Cu633  Cu    0.50000   0.75000   0.79822   0.00000  Uiso   1.00
Cu634  Cu    0.50000   0.75001   0.70179   0.00000  Uiso   1.00
C635   C     0.34582   0.74995   0.73067   0.00000  Uiso   1.00
C636   C     0.65418   0.75006   0.76935   0.00000  Uiso   1.00
H637   H     0.65886   0.74987   0.69369   0.00000  Uiso   1.00
H638   H     0.34113   0.75015   0.80633   0.00000  Uiso   1.00
C639   C     0.47708   0.54801   0.78511   0.00000  Uiso   1.00
C640   C     0.48969   0.95199   0.70591   0.00000  Uiso   1.00
H641   H     0.45904   0.53094   0.81241   0.00000  Uiso   1.00
H642   H     0.48166   0.96871   0.67146   0.00000  Uiso   1.00
C643   C     0.47775   0.59391   0.78530   0.00000  Uiso   1.00
C644   C     0.49021   0.90610   0.70607   0.00000  Uiso   1.00
H645   H     0.46066   0.61144   0.81295   0.00000  Uiso   1.00
H646   H     0.48316   0.88843   0.67166   0.00000  Uiso   1.00
C647   C     0.49940   0.61688   0.74953   0.00000  Uiso   1.00
C648   C     0.49916   0.88341   0.75018   0.00000  Uiso   1.00
C649   C     0.52076   0.59359   0.71378   0.00000  Uiso   1.00
C650   C     0.50749   0.90727   0.79411   0.00000  Uiso   1.00
H651   H     0.53826   0.61088   0.68627   0.00000  Uiso   1.00
H652   H     0.51431   0.89057   0.82862   0.00000  Uiso   1.00
C653   C     0.52082   0.54766   0.71401   0.00000  Uiso   1.00
C654   C     0.50773   0.95319   0.79392   0.00000  Uiso   1.00
H655   H     0.53871   0.53033   0.68677   0.00000  Uiso   1.00
H656   H     0.51557   0.97087   0.82826   0.00000  Uiso   1.00
C657   C     0.49884   0.52449   0.74961   0.00000  Uiso   1.00
C658   C     0.49875   0.97592   0.74982   0.00000  Uiso   1.00
C659   C     0.52595   0.78342   0.55799   0.00000  Uiso   1.00
C660   C     0.45747   0.73205   0.93978   0.00000  Uiso   1.00
H661   H     0.54638   0.81019   0.54325   0.00000  Uiso   1.00
H662   H     0.42365   0.71830   0.95260   0.00000  Uiso   1.00
C663   C     0.52642   0.78214   0.60871   0.00000  Uiso   1.00
C664   C     0.45921   0.73171   0.88932   0.00000  Uiso   1.00
H665   H     0.54775   0.80729   0.63150   0.00000  Uiso   1.00
H666   H     0.42739   0.71688   0.86516   0.00000  Uiso   1.00
N667   N     0.50000   0.75001   0.62935   0.00000  Uiso   1.00
N668   N     0.50000   0.74999   0.87066   0.00000  Uiso   1.00
C669   C     0.47264   0.71833   0.60006   0.00000  Uiso   1.00
C670   C     0.54037   0.76848   0.90212   0.00000  Uiso   1.00
C671   C     0.47240   0.71810   0.54946   0.00000  Uiso   1.00
C672   C     0.54037   0.76814   0.95266   0.00000  Uiso   1.00
H673   H     0.45158   0.69184   0.52797   0.00000  Uiso   1.00
H674   H     0.57356   0.78188   0.97602   0.00000  Uiso   1.00
C675   C     0.49879   0.75089   0.52718   0.00000  Uiso   1.00
C676   C     0.49858   0.75049   0.97266   0.00000  Uiso   1.00
N677   N     0.44336   0.68485   0.62003   0.00000  Uiso   1.00
O678   O     0.39605   0.69299   0.62602   0.00000  Uiso   1.00
O679   O     0.45719   0.64392   0.61719   0.00000  Uiso   1.00
N680   N     0.58361   0.78877   0.88473   0.00000  Uiso   1.00
O681   O     0.57845   0.82706   0.86403   0.00000  Uiso   1.00
O682   O     0.62984   0.77491   0.90028   0.00000  Uiso   1.00
O683   O     0.83334   0.68573   0.79072   0.00000  Uiso   1.00
O684   O     0.83333   0.81428   0.70929   0.00000  Uiso   1.00
O685   O     0.83334   0.68573   0.70928   0.00000  Uiso   1.00
O686   O     0.83333   0.81427   0.79072   0.00000  Uiso   1.00
C687   C     0.83319   0.66503   0.74981   0.00000  Uiso   1.00
C688   C     0.83311   0.83507   0.75013   0.00000  Uiso   1.00
O689   O     0.75828   0.75000   0.78132   0.00000  Uiso   1.00
O690   O     0.90839   0.75001   0.71868   0.00000  Uiso   1.00
O691   O     0.75828   0.75000   0.69989   0.00000  Uiso   1.00
O692   O     0.90839   0.75000   0.80012   0.00000  Uiso   1.00
C693   C     0.73455   0.74996   0.73748   0.00000  Uiso   1.00
C694   C     0.93212   0.75005   0.76253   0.00000  Uiso   1.00
Cu695  Cu    0.83333   0.75000   0.79822   0.00000  Uiso   1.00
Cu696  Cu    0.83333   0.75001   0.70179   0.00000  Uiso   1.00
C697   C     0.67915   0.74995   0.73067   0.00000  Uiso   1.00
C698   C     0.98751   0.75006   0.76935   0.00000  Uiso   1.00
H699   H     0.99219   0.74987   0.69369   0.00000  Uiso   1.00
H700   H     0.67447   0.75015   0.80633   0.00000  Uiso   1.00
C701   C     0.81042   0.54801   0.78511   0.00000  Uiso   1.00
C702   C     0.82302   0.95199   0.70591   0.00000  Uiso   1.00
H703   H     0.79238   0.53094   0.81241   0.00000  Uiso   1.00
H704   H     0.81500   0.96871   0.67146   0.00000  Uiso   1.00
C705   C     0.81109   0.59391   0.78530   0.00000  Uiso   1.00
C706   C     0.82355   0.90610   0.70607   0.00000  Uiso   1.00
H707   H     0.79400   0.61144   0.81295   0.00000  Uiso   1.00
H708   H     0.81649   0.88843   0.67166   0.00000  Uiso   1.00
C709   C     0.83273   0.61688   0.74953   0.00000  Uiso   1.00
C710   C     0.83249   0.88341   0.75018   0.00000  Uiso   1.00
C711   C     0.85409   0.59359   0.71378   0.00000  Uiso   1.00
C712   C     0.84083   0.90727   0.79411   0.00000  Uiso   1.00
H713   H     0.87159   0.61088   0.68627   0.00000  Uiso   1.00
H714   H     0.84764   0.89057   0.82862   0.00000  Uiso   1.00
C715   C     0.85416   0.54766   0.71401   0.00000  Uiso   1.00
C716   C     0.84107   0.95319   0.79392   0.00000  Uiso   1.00
H717   H     0.87204   0.53033   0.68677   0.00000  Uiso   1.00
H718   H     0.84890   0.97087   0.82826   0.00000  Uiso   1.00
C719   C     0.83218   0.52449   0.74961   0.00000  Uiso   1.00
C720   C     0.83208   0.97592   0.74982   0.00000  Uiso   1.00
C721   C     0.85929   0.78342   0.55799   0.00000  Uiso   1.00
C722   C     0.79080   0.73205   0.93978   0.00000  Uiso   1.00
H723   H     0.87971   0.81019   0.54325   0.00000  Uiso   1.00
H724   H     0.75699   0.71830   0.95260   0.00000  Uiso   1.00
C725   C     0.85975   0.78214   0.60871   0.00000  Uiso   1.00
C726   C     0.79254   0.73171   0.88932   0.00000  Uiso   1.00
H727   H     0.88108   0.80729   0.63150   0.00000  Uiso   1.00
H728   H     0.76073   0.71688   0.86516   0.00000  Uiso   1.00
N729   N     0.83333   0.75001   0.62935   0.00000  Uiso   1.00
N730   N     0.83333   0.74999   0.87066   0.00000  Uiso   1.00
C731   C     0.80597   0.71833   0.60006   0.00000  Uiso   1.00
C732   C     0.87371   0.76848   0.90212   0.00000  Uiso   1.00
C733   C     0.80573   0.71810   0.54946   0.00000  Uiso   1.00
C734   C     0.87371   0.76814   0.95266   0.00000  Uiso   1.00
H735   H     0.78491   0.69184   0.52797   0.00000  Uiso   1.00
H736   H     0.90690   0.78188   0.97602   0.00000  Uiso   1.00
C737   C     0.83212   0.75089   0.52718   0.00000  Uiso   1.00
C738   C     0.83192   0.75049   0.97266   0.00000  Uiso   1.00
N739   N     0.77669   0.68485   0.62003   0.00000  Uiso   1.00
O740   O     0.72939   0.69299   0.62602   0.00000  Uiso   1.00
O741   O     0.79052   0.64392   0.61719   0.00000  Uiso   1.00
N742   N     0.91694   0.78877   0.88473   0.00000  Uiso   1.00
O743   O     0.91178   0.82706   0.86403   0.00000  Uiso   1.00
O744   O     0.96317   0.77491   0.90028   0.00000  Uiso   1.00
loop_
_geom_bond_atom_site_label_1
_geom_bond_atom_site_label_2
_geom_bond_distance
_geom_bond_site_symmetry_2
_ccdc_geom_bond_type
O1     C5      1.294   .     A
O1     Cu13    1.955   .     S
O2     C6      1.295   .     A
O2     Cu14    1.955   .     S
O3     Cu14    1.959   .     S
O3     C5      1.296   .     A
O4     C6      1.298   .     A
O4     Cu13    1.959   .     S
C5     C27     1.457   .     S
C6     C28     1.464   .     S
O7     Cu13    1.953   .     S
O7     C11     1.286   .     A
O8     C12     1.286   .     A
O8     Cu14    1.953   .     S
O9     Cu14    1.958   .     S
O9     C11     1.292   .     A
O10    C12     1.292   .     A
O10    Cu13    1.958   .     S
C11    C15     1.435   .     S
C12    C16     1.435   .     S
Cu13   N48     2.016   .     S
Cu13   Cu14    2.683   .     S
Cu14   N47     2.016   .     S
C15    C140    1.338   1_455 S
C15    H141    1.087   1_455 S
C16    C77     1.338   .     S
C16    H80     1.087   .     S
H17    C77     1.087   .     S
H18    C140    1.087   1_455 S
C19    H21     1.083   .     S
C19    C23     1.389   .     A
C19    C37     1.404   .     A
C20    C38     1.403   .     A
C20    H22     1.083   .     S
C20    C24     1.390   .     A
C23    C27     1.401   .     A
C23    H25     1.083   .     S
C24    H26     1.083   .     S
C24    C28     1.403   .     A
C27    C29     1.400   .     A
C28    C30     1.402   .     A
C29    H31     1.083   .     S
C29    C33     1.390   .     A
C30    C34     1.390   .     A
C30    H32     1.082   .     S
C33    H35     1.083   .     S
C33    C37     1.405   .     A
C34    C38     1.404   .     A
C34    H36     1.083   .     S
C37    C224    1.470   1_545 S
C38    C223    1.470   .     S
C39    C43     1.410   .     A
C39    C55     1.413   .     A
C39    H41     1.081   .     S
C40    C44     1.412   .     A
C40    C56     1.412   .     A
C40    H42     1.081   .     S
C43    H45     1.082   .     S
C43    N47     1.365   .     A
C44    N48     1.367   .     A
C44    H46     1.081   .     S
N47    C49     1.376   .     A
N48    C50     1.379   .     A
C49    N57     1.427   .     S
C49    C51     1.407   .     A
C50    C52     1.407   .     A
C50    N60     1.428   .     S
C51    C55     1.402   .     A
C51    H53     1.082   .     S
C52    C56     1.400   .     A
C52    H54     1.082   .     S
C55    C428    1.516   1_554 S
C56    C427    1.516   .     S
N57    O58     1.300   .     A
N57    O59     1.301   .     A
N60    O62     1.301   .     A
N60    O61     1.299   .     A
O63    C67     1.294   .     A
O63    Cu75    1.955   .     S
O64    C68     1.295   .     A
O64    Cu76    1.955   .     S
O65    Cu76    1.959   .     S
O65    C67     1.296   .     A
O66    C68     1.298   .     A
O66    Cu75    1.959   .     S
C67    C89     1.457   .     S
C68    C90     1.464   .     S
O69    Cu75    1.953   .     S
O69    C73     1.286   .     A
O70    C74     1.286   .     A
O70    Cu76    1.953   .     S
O71    Cu76    1.958   .     S
O71    C73     1.292   .     A
O72    C74     1.292   .     A
O72    Cu75    1.958   .     S
C73    C77     1.435   .     S
C74    C78     1.435   .     S
Cu75   N110    2.016   .     S
Cu75   Cu76    2.683   .     S
Cu76   N109    2.016   .     S
C78    C139    1.338   .     S
C78    H142    1.087   .     S
H79    C139    1.087   .     S
C81    H83     1.083   .     S
C81    C85     1.389   .     A
C81    C99     1.404   .     A
C82    C100    1.403   .     A
C82    H84     1.083   .     S
C82    C86     1.390   .     A
C85    C89     1.401   .     A
C85    H87     1.083   .     S
C86    H88     1.083   .     S
C86    C90     1.403   .     A
C89    C91     1.400   .     A
C90    C92     1.402   .     A
C91    H93     1.083   .     S
C91    C95     1.390   .     A
C92    C96     1.390   .     A
C92    H94     1.082   .     S
C95    H97     1.083   .     S
C95    C99     1.405   .     A
C96    C100    1.404   .     A
C96    H98     1.083   .     S
C99    C286    1.470   1_545 S
C100   C285    1.470   .     S
C101   C105    1.410   .     A
C101   C117    1.413   .     A
C101   H103    1.081   .     S
C102   C106    1.412   .     A
C102   C118    1.412   .     A
C102   H104    1.081   .     S
C105   H107    1.082   .     S
C105   N109    1.365   .     A
C106   N110    1.367   .     A
C106   H108    1.081   .     S
N109   C111    1.376   .     A
N110   C112    1.379   .     A
C111   N119    1.427   .     S
C111   C113    1.407   .     A
C112   C114    1.407   .     A
C112   N122    1.428   .     S
C113   C117    1.402   .     A
C113   H115    1.082   .     S
C114   C118    1.400   .     A
C114   H116    1.082   .     S
C117   C490    1.516   1_554 S
C118   C489    1.516   .     S
N119   O120    1.300   .     A
N119   O121    1.301   .     A
N122   O124    1.301   .     A
N122   O123    1.299   .     A
O125   C129    1.294   .     A
O125   Cu137   1.955   .     S
O126   C130    1.295   .     A
O126   Cu138   1.955   .     S
O127   Cu138   1.959   .     S
O127   C129    1.296   .     A
O128   C130    1.298   .     A
O128   Cu137   1.959   .     S
C129   C151    1.457   .     S
C130   C152    1.464   .     S
O131   Cu137   1.953   .     S
O131   C135    1.286   .     A
O132   C136    1.286   .     A
O132   Cu138   1.953   .     S
O133   Cu138   1.958   .     S
O133   C135    1.292   .     A
O134   C136    1.292   .     A
O134   Cu137   1.958   .     S
C135   C139    1.435   .     S
C136   C140    1.435   .     S
Cu137  N172    2.016   .     S
Cu137  Cu138   2.683   .     S
Cu138  N171    2.016   .     S
C140   C15     1.338   1_655 S
C140   H18     1.087   1_655 S
H141   C15     1.087   1_655 S
C143   H145    1.083   .     S
C143   C147    1.389   .     A
C143   C161    1.404   .     A
C144   C162    1.403   .     A
C144   H146    1.083   .     S
C144   C148    1.390   .     A
C147   C151    1.401   .     A
C147   H149    1.083   .     S
C148   H150    1.083   .     S
C148   C152    1.403   .     A
C151   C153    1.400   .     A
C152   C154    1.402   .     A
C153   H155    1.083   .     S
C153   C157    1.390   .     A
C154   C158    1.390   .     A
C154   H156    1.082   .     S
C157   H159    1.083   .     S
C157   C161    1.405   .     A
C158   C162    1.404   .     A
C158   H160    1.083   .     S
C161   C348    1.470   1_545 S
C162   C347    1.470   .     S
C163   C167    1.410   .     A
C163   C179    1.413   .     A
C163   H165    1.081   .     S
C164   C168    1.412   .     A
C164   C180    1.412   .     A
C164   H166    1.081   .     S
C167   H169    1.082   .     S
C167   N171    1.365   .     A
C168   N172    1.367   .     A
C168   H170    1.081   .     S
N171   C173    1.376   .     A
N172   C174    1.379   .     A
C173   N181    1.427   .     S
C173   C175    1.407   .     A
C174   C176    1.407   .     A
C174   N184    1.428   .     S
C175   C179    1.402   .     A
C175   H177    1.082   .     S
C176   C180    1.400   .     A
C176   H178    1.082   .     S
C179   C552    1.516   1_554 S
C180   C551    1.516   .     S
N181   O182    1.300   .     A
N181   O183    1.301   .     A
N184   O186    1.301   .     A
N184   O185    1.299   .     A
O187   C191    1.294   .     A
O187   Cu199   1.955   .     S
O188   C192    1.295   .     A
O188   Cu200   1.955   .     S
O189   Cu200   1.959   .     S
O189   C191    1.296   .     A
O190   C192    1.298   .     A
O190   Cu199   1.959   .     S
C191   C213    1.457   .     S
C192   C214    1.464   .     S
O193   Cu199   1.953   .     S
O193   C197    1.286   .     A
O194   C198    1.286   .     A
O194   Cu200   1.953   .     S
O195   Cu200   1.958   .     S
O195   C197    1.292   .     A
O196   C198    1.292   .     A
O196   Cu199   1.958   .     S
C197   C201    1.435   .     S
C198   C202    1.435   .     S
Cu199  N234    2.016   .     S
Cu199  Cu200   2.683   .     S
Cu200  N233    2.016   .     S
C201   C326    1.338   1_455 S
C201   H327    1.087   1_455 S
C202   C263    1.338   .     S
C202   H266    1.087   .     S
H203   C263    1.087   .     S
H204   C326    1.087   1_455 S
C205   H207    1.083   .     S
C205   C209    1.389   .     A
C205   C223    1.404   .     A
C206   C224    1.403   .     A
C206   H208    1.083   .     S
C206   C210    1.390   .     A
C209   C213    1.401   .     A
C209   H211    1.083   .     S
C210   H212    1.083   .     S
C210   C214    1.403   .     A
C213   C215    1.400   .     A
C214   C216    1.402   .     A
C215   H217    1.083   .     S
C215   C219    1.390   .     A
C216   C220    1.390   .     A
C216   H218    1.082   .     S
C219   H221    1.083   .     S
C219   C223    1.405   .     A
C220   C224    1.404   .     A
C220   H222    1.083   .     S
C224   C37     1.470   1_565 S
C225   C229    1.410   .     A
C225   C241    1.413   .     A
C225   H227    1.081   .     S
C226   C230    1.412   .     A
C226   C242    1.412   .     A
C226   H228    1.081   .     S
C229   H231    1.082   .     S
C229   N233    1.365   .     A
C230   N234    1.367   .     A
C230   H232    1.081   .     S
N233   C235    1.376   .     A
N234   C236    1.379   .     A
C235   N243    1.427   .     S
C235   C237    1.407   .     A
C236   C238    1.407   .     A
C236   N246    1.428   .     S
C237   C241    1.402   .     A
C237   H239    1.082   .     S
C238   C242    1.400   .     A
C238   H240    1.082   .     S
C241   C614    1.516   1_554 S
C242   C613    1.516   .     S
N243   O244    1.300   .     A
N243   O245    1.301   .     A
N246   O248    1.301   .     A
N246   O247    1.299   .     A
O249   C253    1.294   .     A
O249   Cu261   1.955   .     S
O250   C254    1.295   .     A
O250   Cu262   1.955   .     S
O251   Cu262   1.959   .     S
O251   C253    1.296   .     A
O252   C254    1.298   .     A
O252   Cu261   1.959   .     S
C253   C275    1.457   .     S
C254   C276    1.464   .     S
O255   Cu261   1.953   .     S
O255   C259    1.286   .     A
O256   C260    1.286   .     A
O256   Cu262   1.953   .     S
O257   Cu262   1.958   .     S
O257   C259    1.292   .     A
O258   C260    1.292   .     A
O258   Cu261   1.958   .     S
C259   C263    1.435   .     S
C260   C264    1.435   .     S
Cu261  N296    2.016   .     S
Cu261  Cu262   2.683   .     S
Cu262  N295    2.016   .     S
C264   C325    1.338   .     S
C264   H328    1.087   .     S
H265   C325    1.087   .     S
C267   H269    1.083   .     S
C267   C271    1.389   .     A
C267   C285    1.404   .     A
C268   C286    1.403   .     A
C268   H270    1.083   .     S
C268   C272    1.390   .     A
C271   C275    1.401   .     A
C271   H273    1.083   .     S
C272   H274    1.083   .     S
C272   C276    1.403   .     A
C275   C277    1.400   .     A
C276   C278    1.402   .     A
C277   H279    1.083   .     S
C277   C281    1.390   .     A
C278   C282    1.390   .     A
C278   H280    1.082   .     S
C281   H283    1.083   .     S
C281   C285    1.405   .     A
C282   C286    1.404   .     A
C282   H284    1.083   .     S
C286   C99     1.470   1_565 S
C287   C291    1.410   .     A
C287   C303    1.413   .     A
C287   H289    1.081   .     S
C288   C292    1.412   .     A
C288   C304    1.412   .     A
C288   H290    1.081   .     S
C291   H293    1.082   .     S
C291   N295    1.365   .     A
C292   N296    1.367   .     A
C292   H294    1.081   .     S
N295   C297    1.376   .     A
N296   C298    1.379   .     A
C297   N305    1.427   .     S
C297   C299    1.407   .     A
C298   C300    1.407   .     A
C298   N308    1.428   .     S
C299   C303    1.402   .     A
C299   H301    1.082   .     S
C300   C304    1.400   .     A
C300   H302    1.082   .     S
C303   C676    1.516   1_554 S
C304   C675    1.516   .     S
N305   O306    1.300   .     A
N305   O307    1.301   .     A
N308   O310    1.301   .     A
N308   O309    1.299   .     A
O311   C315    1.294   .     A
O311   Cu323   1.955   .     S
O312   C316    1.295   .     A
O312   Cu324   1.955   .     S
O313   Cu324   1.959   .     S
O313   C315    1.296   .     A
O314   C316    1.298   .     A
O314   Cu323   1.959   .     S
C315   C337    1.457   .     S
C316   C338    1.464   .     S
O317   Cu323   1.953   .     S
O317   C321    1.286   .     A
O318   C322    1.286   .     A
O318   Cu324   1.953   .     S
O319   Cu324   1.958   .     S
O319   C321    1.292   .     A
O320   C322    1.292   .     A
O320   Cu323   1.958   .     S
C321   C325    1.435   .     S
C322   C326    1.435   .     S
Cu323  N358    2.016   .     S
Cu323  Cu324   2.683   .     S
Cu324  N357    2.016   .     S
C326   C201    1.338   1_655 S
C326   H204    1.087   1_655 S
H327   C201    1.087   1_655 S
C329   H331    1.083   .     S
C329   C333    1.389   .     A
C329   C347    1.404   .     A
C330   C348    1.403   .     A
C330   H332    1.083   .     S
C330   C334    1.390   .     A
C333   C337    1.401   .     A
C333   H335    1.083   .     S
C334   H336    1.083   .     S
C334   C338    1.403   .     A
C337   C339    1.400   .     A
C338   C340    1.402   .     A
C339   H341    1.083   .     S
C339   C343    1.390   .     A
C340   C344    1.390   .     A
C340   H342    1.082   .     S
C343   H345    1.083   .     S
C343   C347    1.405   .     A
C344   C348    1.404   .     A
C344   H346    1.083   .     S
C348   C161    1.470   1_565 S
C349   C353    1.410   .     A
C349   C365    1.413   .     A
C349   H351    1.081   .     S
C350   C354    1.412   .     A
C350   C366    1.412   .     A
C350   H352    1.081   .     S
C353   H355    1.082   .     S
C353   N357    1.365   .     A
C354   N358    1.367   .     A
C354   H356    1.081   .     S
N357   C359    1.376   .     A
N358   C360    1.379   .     A
C359   N367    1.427   .     S
C359   C361    1.407   .     A
C360   C362    1.407   .     A
C360   N370    1.428   .     S
C361   C365    1.402   .     A
C361   H363    1.082   .     S
C362   C366    1.400   .     A
C362   H364    1.082   .     S
C365   C738    1.516   1_554 S
C366   C737    1.516   .     S
N367   O368    1.300   .     A
N367   O369    1.301   .     A
N370   O372    1.301   .     A
N370   O371    1.299   .     A
O373   C377    1.294   .     A
O373   Cu385   1.955   .     S
O374   C378    1.295   .     A
O374   Cu386   1.955   .     S
O375   Cu386   1.959   .     S
O375   C377    1.296   .     A
O376   C378    1.298   .     A
O376   Cu385   1.959   .     S
C377   C399    1.457   .     S
C378   C400    1.464   .     S
O379   Cu385   1.953   .     S
O379   C383    1.286   .     A
O380   C384    1.286   .     A
O380   Cu386   1.953   .     S
O381   Cu386   1.958   .     S
O381   C383    1.292   .     A
O382   C384    1.292   .     A
O382   Cu385   1.958   .     S
C383   C387    1.435   .     S
C384   C388    1.435   .     S
Cu385  N420    2.016   .     S
Cu385  Cu386   2.683   .     S
Cu386  N419    2.016   .     S
C387   C512    1.338   1_455 S
C387   H513    1.087   1_455 S
C388   C449    1.338   .     S
C388   H452    1.087   .     S
H389   C449    1.087   .     S
H390   C512    1.087   1_455 S
C391   H393    1.083   .     S
C391   C395    1.389   .     A
C391   C409    1.404   .     A
C392   C410    1.403   .     A
C392   H394    1.083   .     S
C392   C396    1.390   .     A
C395   C399    1.401   .     A
C395   H397    1.083   .     S
C396   H398    1.083   .     S
C396   C400    1.403   .     A
C399   C401    1.400   .     A
C400   C402    1.402   .     A
C401   H403    1.083   .     S
C401   C405    1.390   .     A
C402   C406    1.390   .     A
C402   H404    1.082   .     S
C405   H407    1.083   .     S
C405   C409    1.405   .     A
C406   C410    1.404   .     A
C406   H408    1.083   .     S
C409   C596    1.470   1_545 S
C410   C595    1.470   .     S
C411   C415    1.410   .     A
C411   C427    1.413   .     A
C411   H413    1.081   .     S
C412   C416    1.412   .     A
C412   C428    1.412   .     A
C412   H414    1.081   .     S
C415   H417    1.082   .     S
C415   N419    1.365   .     A
C416   N420    1.367   .     A
C416   H418    1.081   .     S
N419   C421    1.376   .     A
N420   C422    1.379   .     A
C421   N429    1.427   .     S
C421   C423    1.407   .     A
C422   C424    1.407   .     A
C422   N432    1.428   .     S
C423   C427    1.402   .     A
C423   H425    1.082   .     S
C424   C428    1.400   .     A
C424   H426    1.082   .     S
C428   C55     1.516   1_556 S
N429   O430    1.300   .     A
N429   O431    1.301   .     A
N432   O434    1.301   .     A
N432   O433    1.299   .     A
O435   C439    1.294   .     A
O435   Cu447   1.955   .     S
O436   C440    1.295   .     A
O436   Cu448   1.955   .     S
O437   Cu448   1.959   .     S
O437   C439    1.296   .     A
O438   C440    1.298   .     A
O438   Cu447   1.959   .     S
C439   C461    1.457   .     S
C440   C462    1.464   .     S
O441   Cu447   1.953   .     S
O441   C445    1.286   .     A
O442   C446    1.286   .     A
O442   Cu448   1.953   .     S
O443   Cu448   1.958   .     S
O443   C445    1.292   .     A
O444   C446    1.292   .     A
O444   Cu447   1.958   .     S
C445   C449    1.435   .     S
C446   C450    1.435   .     S
Cu447  N482    2.016   .     S
Cu447  Cu448   2.683   .     S
Cu448  N481    2.016   .     S
C450   C511    1.338   .     S
C450   H514    1.087   .     S
H451   C511    1.087   .     S
C453   H455    1.083   .     S
C453   C457    1.389   .     A
C453   C471    1.404   .     A
C454   C472    1.403   .     A
C454   H456    1.083   .     S
C454   C458    1.390   .     A
C457   C461    1.401   .     A
C457   H459    1.083   .     S
C458   H460    1.083   .     S
C458   C462    1.403   .     A
C461   C463    1.400   .     A
C462   C464    1.402   .     A
C463   H465    1.083   .     S
C463   C467    1.390   .     A
C464   C468    1.390   .     A
C464   H466    1.082   .     S
C467   H469    1.083   .     S
C467   C471    1.405   .     A
C468   C472    1.404   .     A
C468   H470    1.083   .     S
C471   C658    1.470   1_545 S
C472   C657    1.470   .     S
C473   C477    1.410   .     A
C473   C489    1.413   .     A
C473   H475    1.081   .     S
C474   C478    1.412   .     A
C474   C490    1.412   .     A
C474   H476    1.081   .     S
C477   H479    1.082   .     S
C477   N481    1.365   .     A
C478   N482    1.367   .     A
C478   H480    1.081   .     S
N481   C483    1.376   .     A
N482   C484    1.379   .     A
C483   N491    1.427   .     S
C483   C485    1.407   .     A
C484   C486    1.407   .     A
C484   N494    1.428   .     S
C485   C489    1.402   .     A
C485   H487    1.082   .     S
C486   C490    1.400   .     A
C486   H488    1.082   .     S
C490   C117    1.516   1_556 S
N491   O492    1.300   .     A
N491   O493    1.301   .     A
N494   O496    1.301   .     A
N494   O495    1.299   .     A
O497   C501    1.294   .     A
O497   Cu509   1.955   .     S
O498   C502    1.295   .     A
O498   Cu510   1.955   .     S
O499   Cu510   1.959   .     S
O499   C501    1.296   .     A
O500   C502    1.298   .     A
O500   Cu509   1.959   .     S
C501   C523    1.457   .     S
C502   C524    1.464   .     S
O503   Cu509   1.953   .     S
O503   C507    1.286   .     A
O504   C508    1.286   .     A
O504   Cu510   1.953   .     S
O505   Cu510   1.958   .     S
O505   C507    1.292   .     A
O506   C508    1.292   .     A
O506   Cu509   1.958   .     S
C507   C511    1.435   .     S
C508   C512    1.435   .     S
Cu509  N544    2.016   .     S
Cu509  Cu510   2.683   .     S
Cu510  N543    2.016   .     S
C512   C387    1.338   1_655 S
C512   H390    1.087   1_655 S
H513   C387    1.087   1_655 S
C515   H517    1.083   .     S
C515   C519    1.389   .     A
C515   C533    1.404   .     A
C516   C534    1.403   .     A
C516   H518    1.083   .     S
C516   C520    1.390   .     A
C519   C523    1.401   .     A
C519   H521    1.083   .     S
C520   H522    1.083   .     S
C520   C524    1.403   .     A
C523   C525    1.400   .     A
C524   C526    1.402   .     A
C525   H527    1.083   .     S
C525   C529    1.390   .     A
C526   C530    1.390   .     A
C526   H528    1.082   .     S
C529   H531    1.083   .     S
C529   C533    1.405   .     A
C530   C534    1.404   .     A
C530   H532    1.083   .     S
C533   C720    1.470   1_545 S
C534   C719    1.470   .     S
C535   C539    1.410   .     A
C535   C551    1.413   .     A
C535   H537    1.081   .     S
C536   C540    1.412   .     A
C536   C552    1.412   .     A
C536   H538    1.081   .     S
C539   H541    1.082   .     S
C539   N543    1.365   .     A
C540   N544    1.367   .     A
C540   H542    1.081   .     S
N543   C545    1.376   .     A
N544   C546    1.379   .     A
C545   N553    1.427   .     S
C545   C547    1.407   .     A
C546   C548    1.407   .     A
C546   N556    1.428   .     S
C547   C551    1.402   .     A
C547   H549    1.082   .     S
C548   C552    1.400   .     A
C548   H550    1.082   .     S
C552   C179    1.516   1_556 S
N553   O554    1.300   .     A
N553   O555    1.301   .     A
N556   O558    1.301   .     A
N556   O557    1.299   .     A
O559   C563    1.294   .     A
O559   Cu571   1.955   .     S
O560   C564    1.295   .     A
O560   Cu572   1.955   .     S
O561   Cu572   1.959   .     S
O561   C563    1.296   .     A
O562   C564    1.298   .     A
O562   Cu571   1.959   .     S
C563   C585    1.457   .     S
C564   C586    1.464   .     S
O565   Cu571   1.953   .     S
O565   C569    1.286   .     A
O566   C570    1.286   .     A
O566   Cu572   1.953   .     S
O567   Cu572   1.958   .     S
O567   C569    1.292   .     A
O568   C570    1.292   .     A
O568   Cu571   1.958   .     S
C569   C573    1.435   .     S
C570   C574    1.435   .     S
Cu571  N606    2.016   .     S
Cu571  Cu572   2.683   .     S
Cu572  N605    2.016   .     S
C573   C698    1.338   1_455 S
C573   H699    1.087   1_455 S
C574   C635    1.338   .     S
C574   H638    1.087   .     S
H575   C635    1.087   .     S
H576   C698    1.087   1_455 S
C577   H579    1.083   .     S
C577   C581    1.389   .     A
C577   C595    1.404   .     A
C578   C596    1.403   .     A
C578   H580    1.083   .     S
C578   C582    1.390   .     A
C581   C585    1.401   .     A
C581   H583    1.083   .     S
C582   H584    1.083   .     S
C582   C586    1.403   .     A
C585   C587    1.400   .     A
C586   C588    1.402   .     A
C587   H589    1.083   .     S
C587   C591    1.390   .     A
C588   C592    1.390   .     A
C588   H590    1.082   .     S
C591   H593    1.083   .     S
C591   C595    1.405   .     A
C592   C596    1.404   .     A
C592   H594    1.083   .     S
C596   C409    1.470   1_565 S
C597   C601    1.410   .     A
C597   C613    1.413   .     A
C597   H599    1.081   .     S
C598   C602    1.412   .     A
C598   C614    1.412   .     A
C598   H600    1.081   .     S
C601   H603    1.082   .     S
C601   N605    1.365   .     A
C602   N606    1.367   .     A
C602   H604    1.081   .     S
N605   C607    1.376   .     A
N606   C608    1.379   .     A
C607   N615    1.427   .     S
C607   C609    1.407   .     A
C608   C610    1.407   .     A
C608   N618    1.428   .     S
C609   C613    1.402   .     A
C609   H611    1.082   .     S
C610   C614    1.400   .     A
C610   H612    1.082   .     S
C614   C241    1.516   1_556 S
N615   O616    1.300   .     A
N615   O617    1.301   .     A
N618   O620    1.301   .     A
N618   O619    1.299   .     A
O621   C625    1.294   .     A
O621   Cu633   1.955   .     S
O622   C626    1.295   .     A
O622   Cu634   1.955   .     S
O623   Cu634   1.959   .     S
O623   C625    1.296   .     A
O624   C626    1.298   .     A
O624   Cu633   1.959   .     S
C625   C647    1.457   .     S
C626   C648    1.464   .     S
O627   Cu633   1.953   .     S
O627   C631    1.286   .     A
O628   C632    1.286   .     A
O628   Cu634   1.953   .     S
O629   Cu634   1.958   .     S
O629   C631    1.292   .     A
O630   C632    1.292   .     A
O630   Cu633   1.958   .     S
C631   C635    1.435   .     S
C632   C636    1.435   .     S
Cu633  N668    2.016   .     S
Cu633  Cu634   2.683   .     S
Cu634  N667    2.016   .     S
C636   C697    1.338   .     S
C636   H700    1.087   .     S
H637   C697    1.087   .     S
C639   H641    1.083   .     S
C639   C643    1.389   .     A
C639   C657    1.404   .     A
C640   C658    1.403   .     A
C640   H642    1.083   .     S
C640   C644    1.390   .     A
C643   C647    1.401   .     A
C643   H645    1.083   .     S
C644   H646    1.083   .     S
C644   C648    1.403   .     A
C647   C649    1.400   .     A
C648   C650    1.402   .     A
C649   H651    1.083   .     S
C649   C653    1.390   .     A
C650   C654    1.390   .     A
C650   H652    1.082   .     S
C653   H655    1.083   .     S
C653   C657    1.405   .     A
C654   C658    1.404   .     A
C654   H656    1.083   .     S
C658   C471    1.470   1_565 S
C659   C663    1.410   .     A
C659   C675    1.413   .     A
C659   H661    1.081   .     S
C660   C664    1.412   .     A
C660   C676    1.412   .     A
C660   H662    1.081   .     S
C663   H665    1.082   .     S
C663   N667    1.365   .     A
C664   N668    1.367   .     A
C664   H666    1.081   .     S
N667   C669    1.376   .     A
N668   C670    1.379   .     A
C669   N677    1.427   .     S
C669   C671    1.407   .     A
C670   C672    1.407   .     A
C670   N680    1.428   .     S
C671   C675    1.402   .     A
C671   H673    1.082   .     S
C672   C676    1.400   .     A
C672   H674    1.082   .     S
C676   C303    1.516   1_556 S
N677   O678    1.300   .     A
N677   O679    1.301   .     A
N680   O682    1.301   .     A
N680   O681    1.299   .     A
O683   C687    1.294   .     A
O683   Cu695   1.955   .     S
O684   C688    1.295   .     A
O684   Cu696   1.955   .     S
O685   Cu696   1.959   .     S
O685   C687    1.296   .     A
O686   C688    1.298   .     A
O686   Cu695   1.959   .     S
C687   C709    1.457   .     S
C688   C710    1.464   .     S
O689   Cu695   1.953   .     S
O689   C693    1.286   .     A
O690   C694    1.286   .     A
O690   Cu696   1.953   .     S
O691   Cu696   1.958   .     S
O691   C693    1.292   .     A
O692   C694    1.292   .     A
O692   Cu695   1.958   .     S
C693   C697    1.435   .     S
C694   C698    1.435   .     S
Cu695  N730    2.016   .     S
Cu695  Cu696   2.683   .     S
Cu696  N729    2.016   .     S
C698   C573    1.338   1_655 S
C698   H576    1.087   1_655 S
H699   C573    1.087   1_655 S
C701   H703    1.083   .     S
C701   C705    1.389   .     A
C701   C719    1.404   .     A
C702   C720    1.403   .     A
C702   H704    1.083   .     S
C702   C706    1.390   .     A
C705   C709    1.401   .     A
C705   H707    1.083   .     S
C706   H708    1.083   .     S
C706   C710    1.403   .     A
C709   C711    1.400   .     A
C710   C712    1.402   .     A
C711   H713    1.083   .     S
C711   C715    1.390   .     A
C712   C716    1.390   .     A
C712   H714    1.082   .     S
C715   H717    1.083   .     S
C715   C719    1.405   .     A
C716   C720    1.404   .     A
C716   H718    1.083   .     S
C720   C533    1.470   1_565 S
C721   C725    1.410   .     A
C721   C737    1.413   .     A
C721   H723    1.081   .     S
C722   C726    1.412   .     A
C722   C738    1.412   .     A
C722   H724    1.081   .     S
C725   H727    1.082   .     S
C725   N729    1.365   .     A
C726   N730    1.367   .     A
C726   H728    1.081   .     S
N729   C731    1.376   .     A
N730   C732    1.379   .     A
C731   N739    1.427   .     S
C731   C733    1.407   .     A
C732   C734    1.407   .     A
C732   N742    1.428   .     S
C733   C737    1.402   .     A
C733   H735    1.082   .     S
C734   C738    1.400   .     A
C734   H736    1.082   .     S
C738   C365    1.516   1_556 S
N739   O740    1.300   .     A
N739   O741    1.301   .     A
N742   O744    1.301   .     A
N742   O743    1.299   .     A
