data_str_m2_o1_o16_pcu_sym.64
_audit_creation_date              2020-01-03
_audit_creation_method            'Materials Studio'
_symmetry_space_group_name_H-M    'P1'
_symmetry_Int_Tables_number       1
_symmetry_cell_setting            triclinic
loop_
_symmetry_equiv_pos_as_xyz
  x,y,z
_cell_length_a                    28.5289
_cell_length_b                    32.4689
_cell_length_c                    26.9073
_cell_angle_alpha                 90.2135
_cell_angle_beta                  72.4805
_cell_angle_gamma                 90.2038
loop_
_atom_site_label
_atom_site_type_symbol
_atom_site_fract_x
_atom_site_fract_y
_atom_site_fract_z
_atom_site_U_iso_or_equiv
_atom_site_adp_type
_atom_site_occupancy
C1     C     0.16634   0.24599   0.25169   0.00000  Uiso   1.00
C2     C     0.12446   0.16278   0.40745   0.00000  Uiso   1.00
C3     C     0.19962   0.31268   0.27374   0.00000  Uiso   1.00
C4     C     0.14044   0.16450   0.35007   0.00000  Uiso   1.00
C5     C     0.19950   0.02235   0.27165   0.00000  Uiso   1.00
C6     C     0.16613   0.04290   0.25170   0.00000  Uiso   1.00
C7     C     0.13212   0.02096   0.23399   0.00000  Uiso   1.00
C8     C     0.13222   0.31177   0.23491   0.00000  Uiso   1.00
C9     C     0.16604   0.29075   0.25398   0.00000  Uiso   1.00
C10    C     0.29874   0.19016   0.28489   0.00000  Uiso   1.00
C11    C     0.01504   0.19017   0.28487   0.00000  Uiso   1.00
C12    C     0.14452   0.16053   0.48977   0.00000  Uiso   1.00
C13    C     0.03456   0.14306   0.21521   0.00000  Uiso   1.00
C14    C     0.31827   0.14310   0.21519   0.00000  Uiso   1.00
C15    C     0.16652   0.08741   0.25025   0.00000  Uiso   1.00
C16    C     0.19292   0.16608   0.14997   0.00000  Uiso   1.00
C17    C     0.26301   0.13249   0.01425   0.00000  Uiso   1.00
C18    C     0.20776   0.16070   0.09339   0.00000  Uiso   1.00
C19    C     0.07707   0.17672   0.43435   0.00000  Uiso   1.00
C20    C     0.06276   0.18135   0.48807   0.00000  Uiso   1.00
C21    C     0.09613   0.17426   0.01554   0.00000  Uiso   1.00
C22    C     0.27369   0.31150   0.30487   0.00000  Uiso   1.00
C23    C     0.15699   0.15109   0.43583   0.00000  Uiso   1.00
C24    C     0.18078   0.15542   0.01581   0.00000  Uiso   1.00
C25    C     0.22684   0.13745   0.48911   0.00000  Uiso   1.00
C26    C     0.23587   0.12373   0.43804   0.00000  Uiso   1.00
C27    C     0.20123   0.12978   0.41207   0.00000  Uiso   1.00
C28    C     0.17287   0.16801   0.06755   0.00000  Uiso   1.00
C29    C     0.25341   0.14383   0.06631   0.00000  Uiso   1.00
Cu30   Cu    0.11978   0.16666   0.25000   0.00000  Uiso   1.00
Cu31   Cu    0.21355   0.16667   0.25000   0.00000  Uiso   1.00
H32    H     0.28084   0.13797   0.08583   0.00000  Uiso   1.00
H33    H     0.29824   0.11884   0.49400   0.00000  Uiso   1.00
H34    H     0.13952   0.18334   0.08911   0.00000  Uiso   1.00
H35    H     0.05121   0.18498   0.41372   0.00000  Uiso   1.00
H36    H     0.08239   0.17889   0.05707   0.00000  Uiso   1.00
H37    H     0.02595   0.19178   0.00843   0.00000  Uiso   1.00
H38    H     0.20930   0.11643   0.37361   0.00000  Uiso   1.00
H39    H     0.21289   0.27162   0.32734   0.00000  Uiso   1.00
H40    H     0.29740   0.28831   0.31568   0.00000  Uiso   1.00
H41    H     0.26225   0.00120   0.33684   0.00000  Uiso   1.00
H42    H     0.29556   0.32653   0.26813   0.00000  Uiso   1.00
H43    H     0.22423   0.04017   0.28689   0.00000  Uiso   1.00
H44    H     0.10607   0.03666   0.21856   0.00000  Uiso   1.00
H45    H     0.10633   0.29529   0.21979   0.00000  Uiso   1.00
H46    H     0.27220   0.20890   0.31292   0.00000  Uiso   1.00
H47    H     0.02593   0.20902   0.31277   0.00000  Uiso   1.00
H48    H     0.06105   0.12408   0.18741   0.00000  Uiso   1.00
H49    H     0.30734   0.12421   0.18735   0.00000  Uiso   1.00
H50    H     0.26994   0.10820   0.41800   0.00000  Uiso   1.00
N51    N     0.04931   0.16666   0.24998   0.00000  Uiso   1.00
N52    N     0.28402   0.16669   0.24999   0.00000  Uiso   1.00
N53    N     0.23099   0.29116   0.29754   0.00000  Uiso   1.00
O54    O     0.12708   0.22678   0.25000   0.00000  Uiso   1.00
O55    O     0.20627   0.22679   0.25000   0.00000  Uiso   1.00
O56    O     0.10775   0.16665   0.32549   0.00000  Uiso   1.00
O57    O     0.18694   0.16666   0.32549   0.00000  Uiso   1.00
O58    O     0.12706   0.10654   0.24999   0.00000  Uiso   1.00
O59    O     0.20625   0.10655   0.24999   0.00000  Uiso   1.00
O60    O     0.14640   0.16667   0.17451   0.00000  Uiso   1.00
O61    O     0.22559   0.16668   0.17451   0.00000  Uiso   1.00
C62    C     0.49968   0.24599   0.25169   0.00000  Uiso   1.00
C63    C     0.45779   0.16278   0.40745   0.00000  Uiso   1.00
C64    C     0.53295   0.31268   0.27374   0.00000  Uiso   1.00
C65    C     0.47377   0.16450   0.35007   0.00000  Uiso   1.00
C66    C     0.53283   0.02235   0.27165   0.00000  Uiso   1.00
C67    C     0.49946   0.04290   0.25170   0.00000  Uiso   1.00
C68    C     0.46545   0.02096   0.23399   0.00000  Uiso   1.00
C69    C     0.46556   0.31177   0.23491   0.00000  Uiso   1.00
C70    C     0.49937   0.29075   0.25398   0.00000  Uiso   1.00
C71    C     0.63208   0.19016   0.28489   0.00000  Uiso   1.00
C72    C     0.34837   0.19017   0.28487   0.00000  Uiso   1.00
C73    C     0.47785   0.16053   0.48977   0.00000  Uiso   1.00
C74    C     0.36789   0.14306   0.21521   0.00000  Uiso   1.00
C75    C     0.65160   0.14310   0.21519   0.00000  Uiso   1.00
C76    C     0.49985   0.08741   0.25025   0.00000  Uiso   1.00
C77    C     0.52625   0.16608   0.14997   0.00000  Uiso   1.00
C78    C     0.59634   0.13249   0.01425   0.00000  Uiso   1.00
C79    C     0.54109   0.16070   0.09339   0.00000  Uiso   1.00
C80    C     0.41041   0.17672   0.43435   0.00000  Uiso   1.00
C81    C     0.39610   0.18135   0.48807   0.00000  Uiso   1.00
C82    C     0.42946   0.17426   0.01554   0.00000  Uiso   1.00
C83    C     0.60702   0.31150   0.30487   0.00000  Uiso   1.00
C84    C     0.49033   0.15109   0.43583   0.00000  Uiso   1.00
C85    C     0.51411   0.15542   0.01581   0.00000  Uiso   1.00
C86    C     0.56017   0.13745   0.48911   0.00000  Uiso   1.00
C87    C     0.56921   0.12373   0.43804   0.00000  Uiso   1.00
C88    C     0.53456   0.12978   0.41207   0.00000  Uiso   1.00
C89    C     0.50621   0.16801   0.06755   0.00000  Uiso   1.00
C90    C     0.58674   0.14383   0.06631   0.00000  Uiso   1.00
Cu91   Cu    0.45311   0.16666   0.25000   0.00000  Uiso   1.00
Cu92   Cu    0.54689   0.16667   0.25000   0.00000  Uiso   1.00
H93    H     0.61417   0.13797   0.08583   0.00000  Uiso   1.00
H94    H     0.63157   0.11884   0.49400   0.00000  Uiso   1.00
H95    H     0.47285   0.18334   0.08911   0.00000  Uiso   1.00
H96    H     0.38455   0.18498   0.41372   0.00000  Uiso   1.00
H97    H     0.41572   0.17889   0.05707   0.00000  Uiso   1.00
H98    H     0.35928   0.19178   0.00843   0.00000  Uiso   1.00
H99    H     0.54263   0.11643   0.37361   0.00000  Uiso   1.00
H100   H     0.54623   0.27162   0.32734   0.00000  Uiso   1.00
H101   H     0.63073   0.28831   0.31568   0.00000  Uiso   1.00
H102   H     0.59559   0.00120   0.33684   0.00000  Uiso   1.00
H103   H     0.62890   0.32653   0.26813   0.00000  Uiso   1.00
H104   H     0.55756   0.04017   0.28689   0.00000  Uiso   1.00
H105   H     0.43941   0.03666   0.21856   0.00000  Uiso   1.00
H106   H     0.43966   0.29529   0.21979   0.00000  Uiso   1.00
H107   H     0.60553   0.20890   0.31292   0.00000  Uiso   1.00
H108   H     0.35927   0.20902   0.31277   0.00000  Uiso   1.00
H109   H     0.39438   0.12408   0.18741   0.00000  Uiso   1.00
H110   H     0.64067   0.12421   0.18735   0.00000  Uiso   1.00
H111   H     0.60328   0.10820   0.41800   0.00000  Uiso   1.00
N112   N     0.38265   0.16666   0.24998   0.00000  Uiso   1.00
N113   N     0.61735   0.16669   0.24999   0.00000  Uiso   1.00
N114   N     0.56432   0.29116   0.29754   0.00000  Uiso   1.00
O115   O     0.46042   0.22678   0.25000   0.00000  Uiso   1.00
O116   O     0.53961   0.22679   0.25000   0.00000  Uiso   1.00
O117   O     0.44108   0.16665   0.32549   0.00000  Uiso   1.00
O118   O     0.52027   0.16666   0.32549   0.00000  Uiso   1.00
O119   O     0.46039   0.10654   0.24999   0.00000  Uiso   1.00
O120   O     0.53958   0.10655   0.24999   0.00000  Uiso   1.00
O121   O     0.47973   0.16667   0.17451   0.00000  Uiso   1.00
O122   O     0.55892   0.16668   0.17451   0.00000  Uiso   1.00
C123   C     0.83301   0.24599   0.25169   0.00000  Uiso   1.00
C124   C     0.79112   0.16278   0.40745   0.00000  Uiso   1.00
C125   C     0.86629   0.31268   0.27374   0.00000  Uiso   1.00
C126   C     0.80710   0.16450   0.35007   0.00000  Uiso   1.00
C127   C     0.86617   0.02235   0.27165   0.00000  Uiso   1.00
C128   C     0.83279   0.04290   0.25170   0.00000  Uiso   1.00
C129   C     0.79879   0.02096   0.23399   0.00000  Uiso   1.00
C130   C     0.79889   0.31177   0.23491   0.00000  Uiso   1.00
C131   C     0.83270   0.29075   0.25398   0.00000  Uiso   1.00
C132   C     0.96541   0.19016   0.28489   0.00000  Uiso   1.00
C133   C     0.68170   0.19017   0.28487   0.00000  Uiso   1.00
C134   C     0.81118   0.16053   0.48977   0.00000  Uiso   1.00
C135   C     0.70123   0.14306   0.21521   0.00000  Uiso   1.00
C136   C     0.98493   0.14310   0.21519   0.00000  Uiso   1.00
C137   C     0.83319   0.08741   0.25025   0.00000  Uiso   1.00
C138   C     0.85958   0.16608   0.14997   0.00000  Uiso   1.00
C139   C     0.92968   0.13249   0.01425   0.00000  Uiso   1.00
C140   C     0.87443   0.16070   0.09339   0.00000  Uiso   1.00
C141   C     0.74374   0.17672   0.43435   0.00000  Uiso   1.00
C142   C     0.72943   0.18135   0.48807   0.00000  Uiso   1.00
C143   C     0.76279   0.17426   0.01554   0.00000  Uiso   1.00
C144   C     0.94035   0.31150   0.30487   0.00000  Uiso   1.00
C145   C     0.82366   0.15109   0.43583   0.00000  Uiso   1.00
C146   C     0.84744   0.15542   0.01581   0.00000  Uiso   1.00
C147   C     0.89350   0.13745   0.48911   0.00000  Uiso   1.00
C148   C     0.90254   0.12373   0.43804   0.00000  Uiso   1.00
C149   C     0.86789   0.12978   0.41207   0.00000  Uiso   1.00
C150   C     0.83954   0.16801   0.06755   0.00000  Uiso   1.00
C151   C     0.92008   0.14383   0.06631   0.00000  Uiso   1.00
Cu152  Cu    0.78645   0.16666   0.25000   0.00000  Uiso   1.00
Cu153  Cu    0.88022   0.16667   0.25000   0.00000  Uiso   1.00
H154   H     0.94750   0.13797   0.08583   0.00000  Uiso   1.00
H155   H     0.96491   0.11884   0.49400   0.00000  Uiso   1.00
H156   H     0.80618   0.18334   0.08911   0.00000  Uiso   1.00
H157   H     0.71788   0.18498   0.41372   0.00000  Uiso   1.00
H158   H     0.74906   0.17889   0.05707   0.00000  Uiso   1.00
H159   H     0.69262   0.19178   0.00843   0.00000  Uiso   1.00
H160   H     0.87596   0.11643   0.37361   0.00000  Uiso   1.00
H161   H     0.87956   0.27162   0.32734   0.00000  Uiso   1.00
H162   H     0.96406   0.28831   0.31568   0.00000  Uiso   1.00
H163   H     0.92892   0.00120   0.33684   0.00000  Uiso   1.00
H164   H     0.96223   0.32653   0.26813   0.00000  Uiso   1.00
H165   H     0.89090   0.04017   0.28689   0.00000  Uiso   1.00
H166   H     0.77274   0.03666   0.21856   0.00000  Uiso   1.00
H167   H     0.77300   0.29529   0.21979   0.00000  Uiso   1.00
H168   H     0.93887   0.20890   0.31292   0.00000  Uiso   1.00
H169   H     0.69260   0.20902   0.31277   0.00000  Uiso   1.00
H170   H     0.72772   0.12408   0.18741   0.00000  Uiso   1.00
H171   H     0.97401   0.12421   0.18735   0.00000  Uiso   1.00
H172   H     0.93661   0.10820   0.41800   0.00000  Uiso   1.00
N173   N     0.71598   0.16666   0.24998   0.00000  Uiso   1.00
N174   N     0.95069   0.16669   0.24999   0.00000  Uiso   1.00
N175   N     0.89766   0.29116   0.29754   0.00000  Uiso   1.00
O176   O     0.79375   0.22678   0.25000   0.00000  Uiso   1.00
O177   O     0.87294   0.22679   0.25000   0.00000  Uiso   1.00
O178   O     0.77441   0.16665   0.32549   0.00000  Uiso   1.00
O179   O     0.85360   0.16666   0.32549   0.00000  Uiso   1.00
O180   O     0.79373   0.10654   0.24999   0.00000  Uiso   1.00
O181   O     0.87292   0.10655   0.24999   0.00000  Uiso   1.00
O182   O     0.81306   0.16667   0.17451   0.00000  Uiso   1.00
O183   O     0.89225   0.16668   0.17451   0.00000  Uiso   1.00
C184   C     0.16634   0.57932   0.25169   0.00000  Uiso   1.00
C185   C     0.12446   0.49611   0.40745   0.00000  Uiso   1.00
C186   C     0.19962   0.64601   0.27374   0.00000  Uiso   1.00
C187   C     0.14044   0.49784   0.35007   0.00000  Uiso   1.00
C188   C     0.19950   0.35568   0.27165   0.00000  Uiso   1.00
C189   C     0.16613   0.37623   0.25170   0.00000  Uiso   1.00
C190   C     0.13212   0.35429   0.23399   0.00000  Uiso   1.00
C191   C     0.13222   0.64510   0.23491   0.00000  Uiso   1.00
C192   C     0.16604   0.62408   0.25398   0.00000  Uiso   1.00
C193   C     0.29874   0.52349   0.28489   0.00000  Uiso   1.00
C194   C     0.01504   0.52350   0.28487   0.00000  Uiso   1.00
C195   C     0.14452   0.49386   0.48977   0.00000  Uiso   1.00
C196   C     0.03456   0.47639   0.21521   0.00000  Uiso   1.00
C197   C     0.31827   0.47643   0.21519   0.00000  Uiso   1.00
C198   C     0.16652   0.42074   0.25025   0.00000  Uiso   1.00
C199   C     0.19292   0.49941   0.14997   0.00000  Uiso   1.00
C200   C     0.26301   0.46582   0.01425   0.00000  Uiso   1.00
C201   C     0.20776   0.49403   0.09339   0.00000  Uiso   1.00
C202   C     0.07707   0.51005   0.43435   0.00000  Uiso   1.00
C203   C     0.06276   0.51469   0.48807   0.00000  Uiso   1.00
C204   C     0.09613   0.50759   0.01554   0.00000  Uiso   1.00
C205   C     0.27369   0.64483   0.30487   0.00000  Uiso   1.00
C206   C     0.15699   0.48443   0.43583   0.00000  Uiso   1.00
C207   C     0.18078   0.48875   0.01581   0.00000  Uiso   1.00
C208   C     0.22684   0.47079   0.48911   0.00000  Uiso   1.00
C209   C     0.23587   0.45706   0.43804   0.00000  Uiso   1.00
C210   C     0.20123   0.46311   0.41207   0.00000  Uiso   1.00
C211   C     0.17287   0.50134   0.06755   0.00000  Uiso   1.00
C212   C     0.25341   0.47716   0.06631   0.00000  Uiso   1.00
Cu213  Cu    0.11978   0.49999   0.25000   0.00000  Uiso   1.00
Cu214  Cu    0.21355   0.50001   0.25000   0.00000  Uiso   1.00
H215   H     0.28084   0.47131   0.08583   0.00000  Uiso   1.00
H216   H     0.29824   0.45217   0.49400   0.00000  Uiso   1.00
H217   H     0.13952   0.51667   0.08911   0.00000  Uiso   1.00
H218   H     0.05121   0.51831   0.41372   0.00000  Uiso   1.00
H219   H     0.08239   0.51222   0.05707   0.00000  Uiso   1.00
H220   H     0.02595   0.52512   0.00843   0.00000  Uiso   1.00
H221   H     0.20930   0.44976   0.37361   0.00000  Uiso   1.00
H222   H     0.21289   0.60495   0.32734   0.00000  Uiso   1.00
H223   H     0.29740   0.62165   0.31568   0.00000  Uiso   1.00
H224   H     0.26225   0.33453   0.33684   0.00000  Uiso   1.00
H225   H     0.29556   0.65986   0.26813   0.00000  Uiso   1.00
H226   H     0.22423   0.37351   0.28689   0.00000  Uiso   1.00
H227   H     0.10607   0.36999   0.21856   0.00000  Uiso   1.00
H228   H     0.10633   0.62862   0.21979   0.00000  Uiso   1.00
H229   H     0.27220   0.54224   0.31292   0.00000  Uiso   1.00
H230   H     0.02593   0.54235   0.31277   0.00000  Uiso   1.00
H231   H     0.06105   0.45741   0.18741   0.00000  Uiso   1.00
H232   H     0.30734   0.45754   0.18735   0.00000  Uiso   1.00
H233   H     0.26994   0.44154   0.41800   0.00000  Uiso   1.00
N234   N     0.04931   0.49999   0.24998   0.00000  Uiso   1.00
N235   N     0.28402   0.50002   0.24999   0.00000  Uiso   1.00
N236   N     0.23099   0.62450   0.29754   0.00000  Uiso   1.00
O237   O     0.12708   0.56011   0.25000   0.00000  Uiso   1.00
O238   O     0.20627   0.56012   0.25000   0.00000  Uiso   1.00
O239   O     0.10775   0.49998   0.32549   0.00000  Uiso   1.00
O240   O     0.18694   0.49999   0.32549   0.00000  Uiso   1.00
O241   O     0.12706   0.43988   0.24999   0.00000  Uiso   1.00
O242   O     0.20625   0.43989   0.24999   0.00000  Uiso   1.00
O243   O     0.14640   0.50001   0.17451   0.00000  Uiso   1.00
O244   O     0.22559   0.50002   0.17451   0.00000  Uiso   1.00
C245   C     0.49968   0.57932   0.25169   0.00000  Uiso   1.00
C246   C     0.45779   0.49611   0.40745   0.00000  Uiso   1.00
C247   C     0.53295   0.64601   0.27374   0.00000  Uiso   1.00
C248   C     0.47377   0.49784   0.35007   0.00000  Uiso   1.00
C249   C     0.53283   0.35568   0.27165   0.00000  Uiso   1.00
C250   C     0.49946   0.37623   0.25170   0.00000  Uiso   1.00
C251   C     0.46545   0.35429   0.23399   0.00000  Uiso   1.00
C252   C     0.46556   0.64510   0.23491   0.00000  Uiso   1.00
C253   C     0.49937   0.62408   0.25398   0.00000  Uiso   1.00
C254   C     0.63208   0.52349   0.28489   0.00000  Uiso   1.00
C255   C     0.34837   0.52350   0.28487   0.00000  Uiso   1.00
C256   C     0.47785   0.49386   0.48977   0.00000  Uiso   1.00
C257   C     0.36789   0.47639   0.21521   0.00000  Uiso   1.00
C258   C     0.65160   0.47643   0.21519   0.00000  Uiso   1.00
C259   C     0.49985   0.42074   0.25025   0.00000  Uiso   1.00
C260   C     0.52625   0.49941   0.14997   0.00000  Uiso   1.00
C261   C     0.59634   0.46582   0.01425   0.00000  Uiso   1.00
C262   C     0.54109   0.49403   0.09339   0.00000  Uiso   1.00
C263   C     0.41041   0.51005   0.43435   0.00000  Uiso   1.00
C264   C     0.39610   0.51469   0.48807   0.00000  Uiso   1.00
C265   C     0.42946   0.50759   0.01554   0.00000  Uiso   1.00
C266   C     0.60702   0.64483   0.30487   0.00000  Uiso   1.00
C267   C     0.49033   0.48443   0.43583   0.00000  Uiso   1.00
C268   C     0.51411   0.48875   0.01581   0.00000  Uiso   1.00
C269   C     0.56017   0.47079   0.48911   0.00000  Uiso   1.00
C270   C     0.56921   0.45706   0.43804   0.00000  Uiso   1.00
C271   C     0.53456   0.46311   0.41207   0.00000  Uiso   1.00
C272   C     0.50621   0.50134   0.06755   0.00000  Uiso   1.00
C273   C     0.58674   0.47716   0.06631   0.00000  Uiso   1.00
Cu274  Cu    0.45311   0.49999   0.25000   0.00000  Uiso   1.00
Cu275  Cu    0.54689   0.50001   0.25000   0.00000  Uiso   1.00
H276   H     0.61417   0.47131   0.08583   0.00000  Uiso   1.00
H277   H     0.63157   0.45217   0.49400   0.00000  Uiso   1.00
H278   H     0.47285   0.51667   0.08911   0.00000  Uiso   1.00
H279   H     0.38455   0.51831   0.41372   0.00000  Uiso   1.00
H280   H     0.41572   0.51222   0.05707   0.00000  Uiso   1.00
H281   H     0.35928   0.52512   0.00843   0.00000  Uiso   1.00
H282   H     0.54263   0.44976   0.37361   0.00000  Uiso   1.00
H283   H     0.54623   0.60495   0.32734   0.00000  Uiso   1.00
H284   H     0.63073   0.62165   0.31568   0.00000  Uiso   1.00
H285   H     0.59559   0.33453   0.33684   0.00000  Uiso   1.00
H286   H     0.62890   0.65986   0.26813   0.00000  Uiso   1.00
H287   H     0.55756   0.37351   0.28689   0.00000  Uiso   1.00
H288   H     0.43941   0.36999   0.21856   0.00000  Uiso   1.00
H289   H     0.43966   0.62862   0.21979   0.00000  Uiso   1.00
H290   H     0.60553   0.54224   0.31292   0.00000  Uiso   1.00
H291   H     0.35927   0.54235   0.31277   0.00000  Uiso   1.00
H292   H     0.39438   0.45741   0.18741   0.00000  Uiso   1.00
H293   H     0.64067   0.45754   0.18735   0.00000  Uiso   1.00
H294   H     0.60328   0.44154   0.41800   0.00000  Uiso   1.00
N295   N     0.38265   0.49999   0.24998   0.00000  Uiso   1.00
N296   N     0.61735   0.50002   0.24999   0.00000  Uiso   1.00
N297   N     0.56432   0.62450   0.29754   0.00000  Uiso   1.00
O298   O     0.46042   0.56011   0.25000   0.00000  Uiso   1.00
O299   O     0.53961   0.56012   0.25000   0.00000  Uiso   1.00
O300   O     0.44108   0.49998   0.32549   0.00000  Uiso   1.00
O301   O     0.52027   0.49999   0.32549   0.00000  Uiso   1.00
O302   O     0.46039   0.43988   0.24999   0.00000  Uiso   1.00
O303   O     0.53958   0.43989   0.24999   0.00000  Uiso   1.00
O304   O     0.47973   0.50001   0.17451   0.00000  Uiso   1.00
O305   O     0.55892   0.50002   0.17451   0.00000  Uiso   1.00
C306   C     0.83301   0.57932   0.25169   0.00000  Uiso   1.00
C307   C     0.79112   0.49611   0.40745   0.00000  Uiso   1.00
C308   C     0.86629   0.64601   0.27374   0.00000  Uiso   1.00
C309   C     0.80710   0.49784   0.35007   0.00000  Uiso   1.00
C310   C     0.86617   0.35568   0.27165   0.00000  Uiso   1.00
C311   C     0.83279   0.37623   0.25170   0.00000  Uiso   1.00
C312   C     0.79879   0.35429   0.23399   0.00000  Uiso   1.00
C313   C     0.79889   0.64510   0.23491   0.00000  Uiso   1.00
C314   C     0.83270   0.62408   0.25398   0.00000  Uiso   1.00
C315   C     0.96541   0.52349   0.28489   0.00000  Uiso   1.00
C316   C     0.68170   0.52350   0.28487   0.00000  Uiso   1.00
C317   C     0.81118   0.49386   0.48977   0.00000  Uiso   1.00
C318   C     0.70123   0.47639   0.21521   0.00000  Uiso   1.00
C319   C     0.98493   0.47643   0.21519   0.00000  Uiso   1.00
C320   C     0.83319   0.42074   0.25025   0.00000  Uiso   1.00
C321   C     0.85958   0.49941   0.14997   0.00000  Uiso   1.00
C322   C     0.92968   0.46582   0.01425   0.00000  Uiso   1.00
C323   C     0.87443   0.49403   0.09339   0.00000  Uiso   1.00
C324   C     0.74374   0.51005   0.43435   0.00000  Uiso   1.00
C325   C     0.72943   0.51469   0.48807   0.00000  Uiso   1.00
C326   C     0.76279   0.50759   0.01554   0.00000  Uiso   1.00
C327   C     0.94035   0.64483   0.30487   0.00000  Uiso   1.00
C328   C     0.82366   0.48443   0.43583   0.00000  Uiso   1.00
C329   C     0.84744   0.48875   0.01581   0.00000  Uiso   1.00
C330   C     0.89350   0.47079   0.48911   0.00000  Uiso   1.00
C331   C     0.90254   0.45706   0.43804   0.00000  Uiso   1.00
C332   C     0.86789   0.46311   0.41207   0.00000  Uiso   1.00
C333   C     0.83954   0.50134   0.06755   0.00000  Uiso   1.00
C334   C     0.92008   0.47716   0.06631   0.00000  Uiso   1.00
Cu335  Cu    0.78645   0.49999   0.25000   0.00000  Uiso   1.00
Cu336  Cu    0.88022   0.50001   0.25000   0.00000  Uiso   1.00
H337   H     0.94750   0.47131   0.08583   0.00000  Uiso   1.00
H338   H     0.96491   0.45217   0.49400   0.00000  Uiso   1.00
H339   H     0.80618   0.51667   0.08911   0.00000  Uiso   1.00
H340   H     0.71788   0.51831   0.41372   0.00000  Uiso   1.00
H341   H     0.74906   0.51222   0.05707   0.00000  Uiso   1.00
H342   H     0.69262   0.52512   0.00843   0.00000  Uiso   1.00
H343   H     0.87596   0.44976   0.37361   0.00000  Uiso   1.00
H344   H     0.87956   0.60495   0.32734   0.00000  Uiso   1.00
H345   H     0.96406   0.62165   0.31568   0.00000  Uiso   1.00
H346   H     0.92892   0.33453   0.33684   0.00000  Uiso   1.00
H347   H     0.96223   0.65986   0.26813   0.00000  Uiso   1.00
H348   H     0.89090   0.37351   0.28689   0.00000  Uiso   1.00
H349   H     0.77274   0.36999   0.21856   0.00000  Uiso   1.00
H350   H     0.77300   0.62862   0.21979   0.00000  Uiso   1.00
H351   H     0.93887   0.54224   0.31292   0.00000  Uiso   1.00
H352   H     0.69260   0.54235   0.31277   0.00000  Uiso   1.00
H353   H     0.72772   0.45741   0.18741   0.00000  Uiso   1.00
H354   H     0.97401   0.45754   0.18735   0.00000  Uiso   1.00
H355   H     0.93661   0.44154   0.41800   0.00000  Uiso   1.00
N356   N     0.71598   0.49999   0.24998   0.00000  Uiso   1.00
N357   N     0.95069   0.50002   0.24999   0.00000  Uiso   1.00
N358   N     0.89766   0.62450   0.29754   0.00000  Uiso   1.00
O359   O     0.79375   0.56011   0.25000   0.00000  Uiso   1.00
O360   O     0.87294   0.56012   0.25000   0.00000  Uiso   1.00
O361   O     0.77441   0.49998   0.32549   0.00000  Uiso   1.00
O362   O     0.85360   0.49999   0.32549   0.00000  Uiso   1.00
O363   O     0.79373   0.43988   0.24999   0.00000  Uiso   1.00
O364   O     0.87292   0.43989   0.24999   0.00000  Uiso   1.00
O365   O     0.81306   0.50001   0.17451   0.00000  Uiso   1.00
O366   O     0.89225   0.50002   0.17451   0.00000  Uiso   1.00
C367   C     0.16634   0.91266   0.25169   0.00000  Uiso   1.00
C368   C     0.12446   0.82944   0.40745   0.00000  Uiso   1.00
C369   C     0.19962   0.97935   0.27374   0.00000  Uiso   1.00
C370   C     0.14044   0.83117   0.35007   0.00000  Uiso   1.00
C371   C     0.19950   0.68902   0.27165   0.00000  Uiso   1.00
C372   C     0.16613   0.70957   0.25170   0.00000  Uiso   1.00
C373   C     0.13212   0.68763   0.23399   0.00000  Uiso   1.00
C374   C     0.13222   0.97844   0.23491   0.00000  Uiso   1.00
C375   C     0.16604   0.95741   0.25398   0.00000  Uiso   1.00
C376   C     0.29874   0.85683   0.28489   0.00000  Uiso   1.00
C377   C     0.01504   0.85683   0.28487   0.00000  Uiso   1.00
C378   C     0.14452   0.82720   0.48977   0.00000  Uiso   1.00
C379   C     0.03456   0.80973   0.21521   0.00000  Uiso   1.00
C380   C     0.31827   0.80977   0.21519   0.00000  Uiso   1.00
C381   C     0.16652   0.75407   0.25025   0.00000  Uiso   1.00
C382   C     0.19292   0.83274   0.14997   0.00000  Uiso   1.00
C383   C     0.26301   0.79915   0.01425   0.00000  Uiso   1.00
C384   C     0.20776   0.82736   0.09339   0.00000  Uiso   1.00
C385   C     0.07707   0.84338   0.43435   0.00000  Uiso   1.00
C386   C     0.06276   0.84802   0.48807   0.00000  Uiso   1.00
C387   C     0.09613   0.84092   0.01554   0.00000  Uiso   1.00
C388   C     0.27369   0.97817   0.30487   0.00000  Uiso   1.00
C389   C     0.15699   0.81776   0.43583   0.00000  Uiso   1.00
C390   C     0.18078   0.82208   0.01581   0.00000  Uiso   1.00
C391   C     0.22684   0.80412   0.48911   0.00000  Uiso   1.00
C392   C     0.23587   0.79039   0.43804   0.00000  Uiso   1.00
C393   C     0.20123   0.79645   0.41207   0.00000  Uiso   1.00
C394   C     0.17287   0.83467   0.06755   0.00000  Uiso   1.00
C395   C     0.25341   0.81050   0.06631   0.00000  Uiso   1.00
Cu396  Cu    0.11978   0.83333   0.25000   0.00000  Uiso   1.00
Cu397  Cu    0.21355   0.83334   0.25000   0.00000  Uiso   1.00
H398   H     0.28084   0.80464   0.08583   0.00000  Uiso   1.00
H399   H     0.29824   0.78550   0.49400   0.00000  Uiso   1.00
H400   H     0.13952   0.85000   0.08911   0.00000  Uiso   1.00
H401   H     0.05121   0.85165   0.41372   0.00000  Uiso   1.00
H402   H     0.08239   0.84555   0.05707   0.00000  Uiso   1.00
H403   H     0.02595   0.85845   0.00843   0.00000  Uiso   1.00
H404   H     0.20930   0.78310   0.37361   0.00000  Uiso   1.00
H405   H     0.21289   0.93829   0.32734   0.00000  Uiso   1.00
H406   H     0.29740   0.95498   0.31568   0.00000  Uiso   1.00
H407   H     0.26225   0.66786   0.33684   0.00000  Uiso   1.00
H408   H     0.29556   0.99320   0.26813   0.00000  Uiso   1.00
H409   H     0.22423   0.70684   0.28689   0.00000  Uiso   1.00
H410   H     0.10607   0.70332   0.21856   0.00000  Uiso   1.00
H411   H     0.10633   0.96196   0.21979   0.00000  Uiso   1.00
H412   H     0.27220   0.87557   0.31292   0.00000  Uiso   1.00
H413   H     0.02593   0.87568   0.31277   0.00000  Uiso   1.00
H414   H     0.06105   0.79074   0.18741   0.00000  Uiso   1.00
H415   H     0.30734   0.79087   0.18735   0.00000  Uiso   1.00
H416   H     0.26994   0.77487   0.41800   0.00000  Uiso   1.00
N417   N     0.04931   0.83332   0.24998   0.00000  Uiso   1.00
N418   N     0.28402   0.83335   0.24999   0.00000  Uiso   1.00
N419   N     0.23099   0.95783   0.29754   0.00000  Uiso   1.00
O420   O     0.12708   0.89345   0.25000   0.00000  Uiso   1.00
O421   O     0.20627   0.89346   0.25000   0.00000  Uiso   1.00
O422   O     0.10775   0.83332   0.32549   0.00000  Uiso   1.00
O423   O     0.18694   0.83333   0.32549   0.00000  Uiso   1.00
O424   O     0.12706   0.77321   0.24999   0.00000  Uiso   1.00
O425   O     0.20625   0.77322   0.24999   0.00000  Uiso   1.00
O426   O     0.14640   0.83334   0.17451   0.00000  Uiso   1.00
O427   O     0.22559   0.83335   0.17451   0.00000  Uiso   1.00
C428   C     0.49968   0.91266   0.25169   0.00000  Uiso   1.00
C429   C     0.45779   0.82944   0.40745   0.00000  Uiso   1.00
C430   C     0.53295   0.97935   0.27374   0.00000  Uiso   1.00
C431   C     0.47377   0.83117   0.35007   0.00000  Uiso   1.00
C432   C     0.53283   0.68902   0.27165   0.00000  Uiso   1.00
C433   C     0.49946   0.70957   0.25170   0.00000  Uiso   1.00
C434   C     0.46545   0.68763   0.23399   0.00000  Uiso   1.00
C435   C     0.46556   0.97844   0.23491   0.00000  Uiso   1.00
C436   C     0.49937   0.95741   0.25398   0.00000  Uiso   1.00
C437   C     0.63208   0.85683   0.28489   0.00000  Uiso   1.00
C438   C     0.34837   0.85683   0.28487   0.00000  Uiso   1.00
C439   C     0.47785   0.82720   0.48977   0.00000  Uiso   1.00
C440   C     0.36789   0.80973   0.21521   0.00000  Uiso   1.00
C441   C     0.65160   0.80977   0.21519   0.00000  Uiso   1.00
C442   C     0.49985   0.75407   0.25025   0.00000  Uiso   1.00
C443   C     0.52625   0.83274   0.14997   0.00000  Uiso   1.00
C444   C     0.59634   0.79915   0.01425   0.00000  Uiso   1.00
C445   C     0.54109   0.82736   0.09339   0.00000  Uiso   1.00
C446   C     0.41041   0.84338   0.43435   0.00000  Uiso   1.00
C447   C     0.39610   0.84802   0.48807   0.00000  Uiso   1.00
C448   C     0.42946   0.84092   0.01554   0.00000  Uiso   1.00
C449   C     0.60702   0.97817   0.30487   0.00000  Uiso   1.00
C450   C     0.49033   0.81776   0.43583   0.00000  Uiso   1.00
C451   C     0.51411   0.82208   0.01581   0.00000  Uiso   1.00
C452   C     0.56017   0.80412   0.48911   0.00000  Uiso   1.00
C453   C     0.56921   0.79039   0.43804   0.00000  Uiso   1.00
C454   C     0.53456   0.79645   0.41207   0.00000  Uiso   1.00
C455   C     0.50621   0.83467   0.06755   0.00000  Uiso   1.00
C456   C     0.58674   0.81050   0.06631   0.00000  Uiso   1.00
Cu457  Cu    0.45311   0.83333   0.25000   0.00000  Uiso   1.00
Cu458  Cu    0.54689   0.83334   0.25000   0.00000  Uiso   1.00
H459   H     0.61417   0.80464   0.08583   0.00000  Uiso   1.00
H460   H     0.63157   0.78550   0.49400   0.00000  Uiso   1.00
H461   H     0.47285   0.85000   0.08911   0.00000  Uiso   1.00
H462   H     0.38455   0.85165   0.41372   0.00000  Uiso   1.00
H463   H     0.41572   0.84555   0.05707   0.00000  Uiso   1.00
H464   H     0.35928   0.85845   0.00843   0.00000  Uiso   1.00
H465   H     0.54263   0.78310   0.37361   0.00000  Uiso   1.00
H466   H     0.54623   0.93829   0.32734   0.00000  Uiso   1.00
H467   H     0.63073   0.95498   0.31568   0.00000  Uiso   1.00
H468   H     0.59559   0.66786   0.33684   0.00000  Uiso   1.00
H469   H     0.62890   0.99320   0.26813   0.00000  Uiso   1.00
H470   H     0.55756   0.70684   0.28689   0.00000  Uiso   1.00
H471   H     0.43941   0.70332   0.21856   0.00000  Uiso   1.00
H472   H     0.43966   0.96196   0.21979   0.00000  Uiso   1.00
H473   H     0.60553   0.87557   0.31292   0.00000  Uiso   1.00
H474   H     0.35927   0.87568   0.31277   0.00000  Uiso   1.00
H475   H     0.39438   0.79074   0.18741   0.00000  Uiso   1.00
H476   H     0.64067   0.79087   0.18735   0.00000  Uiso   1.00
H477   H     0.60328   0.77487   0.41800   0.00000  Uiso   1.00
N478   N     0.38265   0.83332   0.24998   0.00000  Uiso   1.00
N479   N     0.61735   0.83335   0.24999   0.00000  Uiso   1.00
N480   N     0.56432   0.95783   0.29754   0.00000  Uiso   1.00
O481   O     0.46042   0.89345   0.25000   0.00000  Uiso   1.00
O482   O     0.53961   0.89346   0.25000   0.00000  Uiso   1.00
O483   O     0.44108   0.83332   0.32549   0.00000  Uiso   1.00
O484   O     0.52027   0.83333   0.32549   0.00000  Uiso   1.00
O485   O     0.46039   0.77321   0.24999   0.00000  Uiso   1.00
O486   O     0.53958   0.77322   0.24999   0.00000  Uiso   1.00
O487   O     0.47973   0.83334   0.17451   0.00000  Uiso   1.00
O488   O     0.55892   0.83335   0.17451   0.00000  Uiso   1.00
C489   C     0.83301   0.91266   0.25169   0.00000  Uiso   1.00
C490   C     0.79112   0.82944   0.40745   0.00000  Uiso   1.00
C491   C     0.86629   0.97935   0.27374   0.00000  Uiso   1.00
C492   C     0.80710   0.83117   0.35007   0.00000  Uiso   1.00
C493   C     0.86617   0.68902   0.27165   0.00000  Uiso   1.00
C494   C     0.83279   0.70957   0.25170   0.00000  Uiso   1.00
C495   C     0.79879   0.68763   0.23399   0.00000  Uiso   1.00
C496   C     0.79889   0.97844   0.23491   0.00000  Uiso   1.00
C497   C     0.83270   0.95741   0.25398   0.00000  Uiso   1.00
C498   C     0.96541   0.85683   0.28489   0.00000  Uiso   1.00
C499   C     0.68170   0.85683   0.28487   0.00000  Uiso   1.00
C500   C     0.81118   0.82720   0.48977   0.00000  Uiso   1.00
C501   C     0.70123   0.80973   0.21521   0.00000  Uiso   1.00
C502   C     0.98493   0.80977   0.21519   0.00000  Uiso   1.00
C503   C     0.83319   0.75407   0.25025   0.00000  Uiso   1.00
C504   C     0.85958   0.83274   0.14997   0.00000  Uiso   1.00
C505   C     0.92968   0.79915   0.01425   0.00000  Uiso   1.00
C506   C     0.87443   0.82736   0.09339   0.00000  Uiso   1.00
C507   C     0.74374   0.84338   0.43435   0.00000  Uiso   1.00
C508   C     0.72943   0.84802   0.48807   0.00000  Uiso   1.00
C509   C     0.76279   0.84092   0.01554   0.00000  Uiso   1.00
C510   C     0.94035   0.97817   0.30487   0.00000  Uiso   1.00
C511   C     0.82366   0.81776   0.43583   0.00000  Uiso   1.00
C512   C     0.84744   0.82208   0.01581   0.00000  Uiso   1.00
C513   C     0.89350   0.80412   0.48911   0.00000  Uiso   1.00
C514   C     0.90254   0.79039   0.43804   0.00000  Uiso   1.00
C515   C     0.86789   0.79645   0.41207   0.00000  Uiso   1.00
C516   C     0.83954   0.83467   0.06755   0.00000  Uiso   1.00
C517   C     0.92008   0.81050   0.06631   0.00000  Uiso   1.00
Cu518  Cu    0.78645   0.83333   0.25000   0.00000  Uiso   1.00
Cu519  Cu    0.88022   0.83334   0.25000   0.00000  Uiso   1.00
H520   H     0.94750   0.80464   0.08583   0.00000  Uiso   1.00
H521   H     0.96491   0.78550   0.49400   0.00000  Uiso   1.00
H522   H     0.80618   0.85000   0.08911   0.00000  Uiso   1.00
H523   H     0.71788   0.85165   0.41372   0.00000  Uiso   1.00
H524   H     0.74906   0.84555   0.05707   0.00000  Uiso   1.00
H525   H     0.69262   0.85845   0.00843   0.00000  Uiso   1.00
H526   H     0.87596   0.78310   0.37361   0.00000  Uiso   1.00
H527   H     0.87956   0.93829   0.32734   0.00000  Uiso   1.00
H528   H     0.96406   0.95498   0.31568   0.00000  Uiso   1.00
H529   H     0.92892   0.66786   0.33684   0.00000  Uiso   1.00
H530   H     0.96223   0.99320   0.26813   0.00000  Uiso   1.00
H531   H     0.89090   0.70684   0.28689   0.00000  Uiso   1.00
H532   H     0.77274   0.70332   0.21856   0.00000  Uiso   1.00
H533   H     0.77300   0.96196   0.21979   0.00000  Uiso   1.00
H534   H     0.93887   0.87557   0.31292   0.00000  Uiso   1.00
H535   H     0.69260   0.87568   0.31277   0.00000  Uiso   1.00
H536   H     0.72772   0.79074   0.18741   0.00000  Uiso   1.00
H537   H     0.97401   0.79087   0.18735   0.00000  Uiso   1.00
H538   H     0.93661   0.77487   0.41800   0.00000  Uiso   1.00
N539   N     0.71598   0.83332   0.24998   0.00000  Uiso   1.00
N540   N     0.95069   0.83335   0.24999   0.00000  Uiso   1.00
N541   N     0.89766   0.95783   0.29754   0.00000  Uiso   1.00
O542   O     0.79375   0.89345   0.25000   0.00000  Uiso   1.00
O543   O     0.87294   0.89346   0.25000   0.00000  Uiso   1.00
O544   O     0.77441   0.83332   0.32549   0.00000  Uiso   1.00
O545   O     0.85360   0.83333   0.32549   0.00000  Uiso   1.00
O546   O     0.79373   0.77321   0.24999   0.00000  Uiso   1.00
O547   O     0.87292   0.77322   0.24999   0.00000  Uiso   1.00
O548   O     0.81306   0.83334   0.17451   0.00000  Uiso   1.00
O549   O     0.89225   0.83335   0.17451   0.00000  Uiso   1.00
C550   C     0.16634   0.24599   0.75169   0.00000  Uiso   1.00
C551   C     0.12446   0.16278   0.90745   0.00000  Uiso   1.00
C552   C     0.19962   0.31268   0.77374   0.00000  Uiso   1.00
C553   C     0.14044   0.16450   0.85007   0.00000  Uiso   1.00
C554   C     0.19950   0.02235   0.77165   0.00000  Uiso   1.00
C555   C     0.16613   0.04290   0.75170   0.00000  Uiso   1.00
C556   C     0.13212   0.02096   0.73399   0.00000  Uiso   1.00
C557   C     0.13222   0.31177   0.73491   0.00000  Uiso   1.00
C558   C     0.16604   0.29075   0.75398   0.00000  Uiso   1.00
C559   C     0.29874   0.19016   0.78489   0.00000  Uiso   1.00
C560   C     0.01504   0.19017   0.78487   0.00000  Uiso   1.00
C561   C     0.14452   0.16053   0.98977   0.00000  Uiso   1.00
C562   C     0.03456   0.14306   0.71521   0.00000  Uiso   1.00
C563   C     0.31827   0.14310   0.71519   0.00000  Uiso   1.00
C564   C     0.16652   0.08741   0.75025   0.00000  Uiso   1.00
C565   C     0.19292   0.16608   0.64997   0.00000  Uiso   1.00
C566   C     0.26301   0.13249   0.51425   0.00000  Uiso   1.00
C567   C     0.20776   0.16070   0.59339   0.00000  Uiso   1.00
C568   C     0.07707   0.17672   0.93435   0.00000  Uiso   1.00
C569   C     0.06276   0.18135   0.98807   0.00000  Uiso   1.00
C570   C     0.09613   0.17426   0.51554   0.00000  Uiso   1.00
C571   C     0.27369   0.31150   0.80487   0.00000  Uiso   1.00
C572   C     0.15699   0.15109   0.93583   0.00000  Uiso   1.00
C573   C     0.18078   0.15542   0.51581   0.00000  Uiso   1.00
C574   C     0.22684   0.13745   0.98911   0.00000  Uiso   1.00
C575   C     0.23587   0.12373   0.93804   0.00000  Uiso   1.00
C576   C     0.20123   0.12978   0.91207   0.00000  Uiso   1.00
C577   C     0.17287   0.16801   0.56755   0.00000  Uiso   1.00
C578   C     0.25341   0.14383   0.56631   0.00000  Uiso   1.00
Cu579  Cu    0.11978   0.16666   0.75000   0.00000  Uiso   1.00
Cu580  Cu    0.21355   0.16667   0.75000   0.00000  Uiso   1.00
H581   H     0.28084   0.13797   0.58583   0.00000  Uiso   1.00
H582   H     0.29824   0.11884   0.99400   0.00000  Uiso   1.00
H583   H     0.13952   0.18334   0.58911   0.00000  Uiso   1.00
H584   H     0.05121   0.18498   0.91372   0.00000  Uiso   1.00
H585   H     0.08239   0.17889   0.55707   0.00000  Uiso   1.00
H586   H     0.02595   0.19178   0.50843   0.00000  Uiso   1.00
H587   H     0.20930   0.11643   0.87361   0.00000  Uiso   1.00
H588   H     0.21289   0.27162   0.82734   0.00000  Uiso   1.00
H589   H     0.29740   0.28831   0.81568   0.00000  Uiso   1.00
H590   H     0.26225   0.00120   0.83684   0.00000  Uiso   1.00
H591   H     0.29556   0.32653   0.76813   0.00000  Uiso   1.00
H592   H     0.22423   0.04017   0.78689   0.00000  Uiso   1.00
H593   H     0.10607   0.03666   0.71856   0.00000  Uiso   1.00
H594   H     0.10633   0.29529   0.71979   0.00000  Uiso   1.00
H595   H     0.27220   0.20890   0.81292   0.00000  Uiso   1.00
H596   H     0.02593   0.20902   0.81277   0.00000  Uiso   1.00
H597   H     0.06105   0.12408   0.68741   0.00000  Uiso   1.00
H598   H     0.30734   0.12421   0.68735   0.00000  Uiso   1.00
H599   H     0.26994   0.10820   0.91800   0.00000  Uiso   1.00
N600   N     0.04931   0.16666   0.74998   0.00000  Uiso   1.00
N601   N     0.28402   0.16669   0.74999   0.00000  Uiso   1.00
N602   N     0.23099   0.29116   0.79754   0.00000  Uiso   1.00
O603   O     0.12708   0.22678   0.75000   0.00000  Uiso   1.00
O604   O     0.20627   0.22679   0.75000   0.00000  Uiso   1.00
O605   O     0.10775   0.16665   0.82549   0.00000  Uiso   1.00
O606   O     0.18694   0.16666   0.82549   0.00000  Uiso   1.00
O607   O     0.12706   0.10654   0.74999   0.00000  Uiso   1.00
O608   O     0.20625   0.10655   0.74999   0.00000  Uiso   1.00
O609   O     0.14640   0.16667   0.67451   0.00000  Uiso   1.00
O610   O     0.22559   0.16668   0.67451   0.00000  Uiso   1.00
C611   C     0.49968   0.24599   0.75169   0.00000  Uiso   1.00
C612   C     0.45779   0.16278   0.90745   0.00000  Uiso   1.00
C613   C     0.53295   0.31268   0.77374   0.00000  Uiso   1.00
C614   C     0.47377   0.16450   0.85007   0.00000  Uiso   1.00
C615   C     0.53283   0.02235   0.77165   0.00000  Uiso   1.00
C616   C     0.49946   0.04290   0.75170   0.00000  Uiso   1.00
C617   C     0.46545   0.02096   0.73399   0.00000  Uiso   1.00
C618   C     0.46556   0.31177   0.73491   0.00000  Uiso   1.00
C619   C     0.49937   0.29075   0.75398   0.00000  Uiso   1.00
C620   C     0.63208   0.19016   0.78489   0.00000  Uiso   1.00
C621   C     0.34837   0.19017   0.78487   0.00000  Uiso   1.00
C622   C     0.47785   0.16053   0.98977   0.00000  Uiso   1.00
C623   C     0.36789   0.14306   0.71521   0.00000  Uiso   1.00
C624   C     0.65160   0.14310   0.71519   0.00000  Uiso   1.00
C625   C     0.49985   0.08741   0.75025   0.00000  Uiso   1.00
C626   C     0.52625   0.16608   0.64997   0.00000  Uiso   1.00
C627   C     0.59634   0.13249   0.51425   0.00000  Uiso   1.00
C628   C     0.54109   0.16070   0.59339   0.00000  Uiso   1.00
C629   C     0.41041   0.17672   0.93435   0.00000  Uiso   1.00
C630   C     0.39610   0.18135   0.98807   0.00000  Uiso   1.00
C631   C     0.42946   0.17426   0.51554   0.00000  Uiso   1.00
C632   C     0.60702   0.31150   0.80487   0.00000  Uiso   1.00
C633   C     0.49033   0.15109   0.93583   0.00000  Uiso   1.00
C634   C     0.51411   0.15542   0.51581   0.00000  Uiso   1.00
C635   C     0.56017   0.13745   0.98911   0.00000  Uiso   1.00
C636   C     0.56921   0.12373   0.93804   0.00000  Uiso   1.00
C637   C     0.53456   0.12978   0.91207   0.00000  Uiso   1.00
C638   C     0.50621   0.16801   0.56755   0.00000  Uiso   1.00
C639   C     0.58674   0.14383   0.56631   0.00000  Uiso   1.00
Cu640  Cu    0.45311   0.16666   0.75000   0.00000  Uiso   1.00
Cu641  Cu    0.54689   0.16667   0.75000   0.00000  Uiso   1.00
H642   H     0.61417   0.13797   0.58583   0.00000  Uiso   1.00
H643   H     0.63157   0.11884   0.99400   0.00000  Uiso   1.00
H644   H     0.47285   0.18334   0.58911   0.00000  Uiso   1.00
H645   H     0.38455   0.18498   0.91372   0.00000  Uiso   1.00
H646   H     0.41572   0.17889   0.55707   0.00000  Uiso   1.00
H647   H     0.35928   0.19178   0.50843   0.00000  Uiso   1.00
H648   H     0.54263   0.11643   0.87361   0.00000  Uiso   1.00
H649   H     0.54623   0.27162   0.82734   0.00000  Uiso   1.00
H650   H     0.63073   0.28831   0.81568   0.00000  Uiso   1.00
H651   H     0.59559   0.00120   0.83684   0.00000  Uiso   1.00
H652   H     0.62890   0.32653   0.76813   0.00000  Uiso   1.00
H653   H     0.55756   0.04017   0.78689   0.00000  Uiso   1.00
H654   H     0.43941   0.03666   0.71856   0.00000  Uiso   1.00
H655   H     0.43966   0.29529   0.71979   0.00000  Uiso   1.00
H656   H     0.60553   0.20890   0.81292   0.00000  Uiso   1.00
H657   H     0.35927   0.20902   0.81277   0.00000  Uiso   1.00
H658   H     0.39438   0.12408   0.68741   0.00000  Uiso   1.00
H659   H     0.64067   0.12421   0.68735   0.00000  Uiso   1.00
H660   H     0.60328   0.10820   0.91800   0.00000  Uiso   1.00
N661   N     0.38265   0.16666   0.74998   0.00000  Uiso   1.00
N662   N     0.61735   0.16669   0.74999   0.00000  Uiso   1.00
N663   N     0.56432   0.29116   0.79754   0.00000  Uiso   1.00
O664   O     0.46042   0.22678   0.75000   0.00000  Uiso   1.00
O665   O     0.53961   0.22679   0.75000   0.00000  Uiso   1.00
O666   O     0.44108   0.16665   0.82549   0.00000  Uiso   1.00
O667   O     0.52027   0.16666   0.82549   0.00000  Uiso   1.00
O668   O     0.46039   0.10654   0.74999   0.00000  Uiso   1.00
O669   O     0.53958   0.10655   0.74999   0.00000  Uiso   1.00
O670   O     0.47973   0.16667   0.67451   0.00000  Uiso   1.00
O671   O     0.55892   0.16668   0.67451   0.00000  Uiso   1.00
C672   C     0.83301   0.24599   0.75169   0.00000  Uiso   1.00
C673   C     0.79112   0.16278   0.90745   0.00000  Uiso   1.00
C674   C     0.86629   0.31268   0.77374   0.00000  Uiso   1.00
C675   C     0.80710   0.16450   0.85007   0.00000  Uiso   1.00
C676   C     0.86617   0.02235   0.77165   0.00000  Uiso   1.00
C677   C     0.83279   0.04290   0.75170   0.00000  Uiso   1.00
C678   C     0.79879   0.02096   0.73399   0.00000  Uiso   1.00
C679   C     0.79889   0.31177   0.73491   0.00000  Uiso   1.00
C680   C     0.83270   0.29075   0.75398   0.00000  Uiso   1.00
C681   C     0.96541   0.19016   0.78489   0.00000  Uiso   1.00
C682   C     0.68170   0.19017   0.78487   0.00000  Uiso   1.00
C683   C     0.81118   0.16053   0.98977   0.00000  Uiso   1.00
C684   C     0.70123   0.14306   0.71521   0.00000  Uiso   1.00
C685   C     0.98493   0.14310   0.71519   0.00000  Uiso   1.00
C686   C     0.83319   0.08741   0.75025   0.00000  Uiso   1.00
C687   C     0.85958   0.16608   0.64997   0.00000  Uiso   1.00
C688   C     0.92968   0.13249   0.51425   0.00000  Uiso   1.00
C689   C     0.87443   0.16070   0.59339   0.00000  Uiso   1.00
C690   C     0.74374   0.17672   0.93435   0.00000  Uiso   1.00
C691   C     0.72943   0.18135   0.98807   0.00000  Uiso   1.00
C692   C     0.76279   0.17426   0.51554   0.00000  Uiso   1.00
C693   C     0.94035   0.31150   0.80487   0.00000  Uiso   1.00
C694   C     0.82366   0.15109   0.93583   0.00000  Uiso   1.00
C695   C     0.84744   0.15542   0.51581   0.00000  Uiso   1.00
C696   C     0.89350   0.13745   0.98911   0.00000  Uiso   1.00
C697   C     0.90254   0.12373   0.93804   0.00000  Uiso   1.00
C698   C     0.86789   0.12978   0.91207   0.00000  Uiso   1.00
C699   C     0.83954   0.16801   0.56755   0.00000  Uiso   1.00
C700   C     0.92008   0.14383   0.56631   0.00000  Uiso   1.00
Cu701  Cu    0.78645   0.16666   0.75000   0.00000  Uiso   1.00
Cu702  Cu    0.88022   0.16667   0.75000   0.00000  Uiso   1.00
H703   H     0.94750   0.13797   0.58583   0.00000  Uiso   1.00
H704   H     0.96491   0.11884   0.99400   0.00000  Uiso   1.00
H705   H     0.80618   0.18334   0.58911   0.00000  Uiso   1.00
H706   H     0.71788   0.18498   0.91372   0.00000  Uiso   1.00
H707   H     0.74906   0.17889   0.55707   0.00000  Uiso   1.00
H708   H     0.69262   0.19178   0.50843   0.00000  Uiso   1.00
H709   H     0.87596   0.11643   0.87361   0.00000  Uiso   1.00
H710   H     0.87956   0.27162   0.82734   0.00000  Uiso   1.00
H711   H     0.96406   0.28831   0.81568   0.00000  Uiso   1.00
H712   H     0.92892   0.00120   0.83684   0.00000  Uiso   1.00
H713   H     0.96223   0.32653   0.76813   0.00000  Uiso   1.00
H714   H     0.89090   0.04017   0.78689   0.00000  Uiso   1.00
H715   H     0.77274   0.03666   0.71856   0.00000  Uiso   1.00
H716   H     0.77300   0.29529   0.71979   0.00000  Uiso   1.00
H717   H     0.93887   0.20890   0.81292   0.00000  Uiso   1.00
H718   H     0.69260   0.20902   0.81277   0.00000  Uiso   1.00
H719   H     0.72772   0.12408   0.68741   0.00000  Uiso   1.00
H720   H     0.97401   0.12421   0.68735   0.00000  Uiso   1.00
H721   H     0.93661   0.10820   0.91800   0.00000  Uiso   1.00
N722   N     0.71598   0.16666   0.74998   0.00000  Uiso   1.00
N723   N     0.95069   0.16669   0.74999   0.00000  Uiso   1.00
N724   N     0.89766   0.29116   0.79754   0.00000  Uiso   1.00
O725   O     0.79375   0.22678   0.75000   0.00000  Uiso   1.00
O726   O     0.87294   0.22679   0.75000   0.00000  Uiso   1.00
O727   O     0.77441   0.16665   0.82549   0.00000  Uiso   1.00
O728   O     0.85360   0.16666   0.82549   0.00000  Uiso   1.00
O729   O     0.79373   0.10654   0.74999   0.00000  Uiso   1.00
O730   O     0.87292   0.10655   0.74999   0.00000  Uiso   1.00
O731   O     0.81306   0.16667   0.67451   0.00000  Uiso   1.00
O732   O     0.89225   0.16668   0.67451   0.00000  Uiso   1.00
C733   C     0.16634   0.57932   0.75169   0.00000  Uiso   1.00
C734   C     0.12446   0.49611   0.90745   0.00000  Uiso   1.00
C735   C     0.19962   0.64601   0.77374   0.00000  Uiso   1.00
C736   C     0.14044   0.49784   0.85007   0.00000  Uiso   1.00
C737   C     0.19950   0.35568   0.77165   0.00000  Uiso   1.00
C738   C     0.16613   0.37623   0.75170   0.00000  Uiso   1.00
C739   C     0.13212   0.35429   0.73399   0.00000  Uiso   1.00
C740   C     0.13222   0.64510   0.73491   0.00000  Uiso   1.00
C741   C     0.16604   0.62408   0.75398   0.00000  Uiso   1.00
C742   C     0.29874   0.52349   0.78489   0.00000  Uiso   1.00
C743   C     0.01504   0.52350   0.78487   0.00000  Uiso   1.00
C744   C     0.14452   0.49386   0.98977   0.00000  Uiso   1.00
C745   C     0.03456   0.47639   0.71521   0.00000  Uiso   1.00
C746   C     0.31827   0.47643   0.71519   0.00000  Uiso   1.00
C747   C     0.16652   0.42074   0.75025   0.00000  Uiso   1.00
C748   C     0.19292   0.49941   0.64997   0.00000  Uiso   1.00
C749   C     0.26301   0.46582   0.51425   0.00000  Uiso   1.00
C750   C     0.20776   0.49403   0.59339   0.00000  Uiso   1.00
C751   C     0.07707   0.51005   0.93435   0.00000  Uiso   1.00
C752   C     0.06276   0.51469   0.98807   0.00000  Uiso   1.00
C753   C     0.09613   0.50759   0.51554   0.00000  Uiso   1.00
C754   C     0.27369   0.64483   0.80487   0.00000  Uiso   1.00
C755   C     0.15699   0.48443   0.93583   0.00000  Uiso   1.00
C756   C     0.18078   0.48875   0.51581   0.00000  Uiso   1.00
C757   C     0.22684   0.47079   0.98911   0.00000  Uiso   1.00
C758   C     0.23587   0.45706   0.93804   0.00000  Uiso   1.00
C759   C     0.20123   0.46311   0.91207   0.00000  Uiso   1.00
C760   C     0.17287   0.50134   0.56755   0.00000  Uiso   1.00
C761   C     0.25341   0.47716   0.56631   0.00000  Uiso   1.00
Cu762  Cu    0.11978   0.49999   0.75000   0.00000  Uiso   1.00
Cu763  Cu    0.21355   0.50001   0.75000   0.00000  Uiso   1.00
H764   H     0.28084   0.47131   0.58583   0.00000  Uiso   1.00
H765   H     0.29824   0.45217   0.99400   0.00000  Uiso   1.00
H766   H     0.13952   0.51667   0.58911   0.00000  Uiso   1.00
H767   H     0.05121   0.51831   0.91372   0.00000  Uiso   1.00
H768   H     0.08239   0.51222   0.55707   0.00000  Uiso   1.00
H769   H     0.02595   0.52512   0.50843   0.00000  Uiso   1.00
H770   H     0.20930   0.44976   0.87361   0.00000  Uiso   1.00
H771   H     0.21289   0.60495   0.82734   0.00000  Uiso   1.00
H772   H     0.29740   0.62165   0.81568   0.00000  Uiso   1.00
H773   H     0.26225   0.33453   0.83684   0.00000  Uiso   1.00
H774   H     0.29556   0.65986   0.76813   0.00000  Uiso   1.00
H775   H     0.22423   0.37351   0.78689   0.00000  Uiso   1.00
H776   H     0.10607   0.36999   0.71856   0.00000  Uiso   1.00
H777   H     0.10633   0.62862   0.71979   0.00000  Uiso   1.00
H778   H     0.27220   0.54224   0.81292   0.00000  Uiso   1.00
H779   H     0.02593   0.54235   0.81277   0.00000  Uiso   1.00
H780   H     0.06105   0.45741   0.68741   0.00000  Uiso   1.00
H781   H     0.30734   0.45754   0.68735   0.00000  Uiso   1.00
H782   H     0.26994   0.44154   0.91800   0.00000  Uiso   1.00
N783   N     0.04931   0.49999   0.74998   0.00000  Uiso   1.00
N784   N     0.28402   0.50002   0.74999   0.00000  Uiso   1.00
N785   N     0.23099   0.62450   0.79754   0.00000  Uiso   1.00
O786   O     0.12708   0.56011   0.75000   0.00000  Uiso   1.00
O787   O     0.20627   0.56012   0.75000   0.00000  Uiso   1.00
O788   O     0.10775   0.49998   0.82549   0.00000  Uiso   1.00
O789   O     0.18694   0.49999   0.82549   0.00000  Uiso   1.00
O790   O     0.12706   0.43988   0.74999   0.00000  Uiso   1.00
O791   O     0.20625   0.43989   0.74999   0.00000  Uiso   1.00
O792   O     0.14640   0.50001   0.67451   0.00000  Uiso   1.00
O793   O     0.22559   0.50002   0.67451   0.00000  Uiso   1.00
C794   C     0.49968   0.57932   0.75169   0.00000  Uiso   1.00
C795   C     0.45779   0.49611   0.90745   0.00000  Uiso   1.00
C796   C     0.53295   0.64601   0.77374   0.00000  Uiso   1.00
C797   C     0.47377   0.49784   0.85007   0.00000  Uiso   1.00
C798   C     0.53283   0.35568   0.77165   0.00000  Uiso   1.00
C799   C     0.49946   0.37623   0.75170   0.00000  Uiso   1.00
C800   C     0.46545   0.35429   0.73399   0.00000  Uiso   1.00
C801   C     0.46556   0.64510   0.73491   0.00000  Uiso   1.00
C802   C     0.49937   0.62408   0.75398   0.00000  Uiso   1.00
C803   C     0.63208   0.52349   0.78489   0.00000  Uiso   1.00
C804   C     0.34837   0.52350   0.78487   0.00000  Uiso   1.00
C805   C     0.47785   0.49386   0.98977   0.00000  Uiso   1.00
C806   C     0.36789   0.47639   0.71521   0.00000  Uiso   1.00
C807   C     0.65160   0.47643   0.71519   0.00000  Uiso   1.00
C808   C     0.49985   0.42074   0.75025   0.00000  Uiso   1.00
C809   C     0.52625   0.49941   0.64997   0.00000  Uiso   1.00
C810   C     0.59634   0.46582   0.51425   0.00000  Uiso   1.00
C811   C     0.54109   0.49403   0.59339   0.00000  Uiso   1.00
C812   C     0.41041   0.51005   0.93435   0.00000  Uiso   1.00
C813   C     0.39610   0.51469   0.98807   0.00000  Uiso   1.00
C814   C     0.42946   0.50759   0.51554   0.00000  Uiso   1.00
C815   C     0.60702   0.64483   0.80487   0.00000  Uiso   1.00
C816   C     0.49033   0.48443   0.93583   0.00000  Uiso   1.00
C817   C     0.51411   0.48875   0.51581   0.00000  Uiso   1.00
C818   C     0.56017   0.47079   0.98911   0.00000  Uiso   1.00
C819   C     0.56921   0.45706   0.93804   0.00000  Uiso   1.00
C820   C     0.53456   0.46311   0.91207   0.00000  Uiso   1.00
C821   C     0.50621   0.50134   0.56755   0.00000  Uiso   1.00
C822   C     0.58674   0.47716   0.56631   0.00000  Uiso   1.00
Cu823  Cu    0.45311   0.49999   0.75000   0.00000  Uiso   1.00
Cu824  Cu    0.54689   0.50001   0.75000   0.00000  Uiso   1.00
H825   H     0.61417   0.47131   0.58583   0.00000  Uiso   1.00
H826   H     0.63157   0.45217   0.99400   0.00000  Uiso   1.00
H827   H     0.47285   0.51667   0.58911   0.00000  Uiso   1.00
H828   H     0.38455   0.51831   0.91372   0.00000  Uiso   1.00
H829   H     0.41572   0.51222   0.55707   0.00000  Uiso   1.00
H830   H     0.35928   0.52512   0.50843   0.00000  Uiso   1.00
H831   H     0.54263   0.44976   0.87361   0.00000  Uiso   1.00
H832   H     0.54623   0.60495   0.82734   0.00000  Uiso   1.00
H833   H     0.63073   0.62165   0.81568   0.00000  Uiso   1.00
H834   H     0.59559   0.33453   0.83684   0.00000  Uiso   1.00
H835   H     0.62890   0.65986   0.76813   0.00000  Uiso   1.00
H836   H     0.55756   0.37351   0.78689   0.00000  Uiso   1.00
H837   H     0.43941   0.36999   0.71856   0.00000  Uiso   1.00
H838   H     0.43966   0.62862   0.71979   0.00000  Uiso   1.00
H839   H     0.60553   0.54224   0.81292   0.00000  Uiso   1.00
H840   H     0.35927   0.54235   0.81277   0.00000  Uiso   1.00
H841   H     0.39438   0.45741   0.68741   0.00000  Uiso   1.00
H842   H     0.64067   0.45754   0.68735   0.00000  Uiso   1.00
H843   H     0.60328   0.44154   0.91800   0.00000  Uiso   1.00
N844   N     0.38265   0.49999   0.74998   0.00000  Uiso   1.00
N845   N     0.61735   0.50002   0.74999   0.00000  Uiso   1.00
N846   N     0.56432   0.62450   0.79754   0.00000  Uiso   1.00
O847   O     0.46042   0.56011   0.75000   0.00000  Uiso   1.00
O848   O     0.53961   0.56012   0.75000   0.00000  Uiso   1.00
O849   O     0.44108   0.49998   0.82549   0.00000  Uiso   1.00
O850   O     0.52027   0.49999   0.82549   0.00000  Uiso   1.00
O851   O     0.46039   0.43988   0.74999   0.00000  Uiso   1.00
O852   O     0.53958   0.43989   0.74999   0.00000  Uiso   1.00
O853   O     0.47973   0.50001   0.67451   0.00000  Uiso   1.00
O854   O     0.55892   0.50002   0.67451   0.00000  Uiso   1.00
C855   C     0.83301   0.57932   0.75169   0.00000  Uiso   1.00
C856   C     0.79112   0.49611   0.90745   0.00000  Uiso   1.00
C857   C     0.86629   0.64601   0.77374   0.00000  Uiso   1.00
C858   C     0.80710   0.49784   0.85007   0.00000  Uiso   1.00
C859   C     0.86617   0.35568   0.77165   0.00000  Uiso   1.00
C860   C     0.83279   0.37623   0.75170   0.00000  Uiso   1.00
C861   C     0.79879   0.35429   0.73399   0.00000  Uiso   1.00
C862   C     0.79889   0.64510   0.73491   0.00000  Uiso   1.00
C863   C     0.83270   0.62408   0.75398   0.00000  Uiso   1.00
C864   C     0.96541   0.52349   0.78489   0.00000  Uiso   1.00
C865   C     0.68170   0.52350   0.78487   0.00000  Uiso   1.00
C866   C     0.81118   0.49386   0.98977   0.00000  Uiso   1.00
C867   C     0.70123   0.47639   0.71521   0.00000  Uiso   1.00
C868   C     0.98493   0.47643   0.71519   0.00000  Uiso   1.00
C869   C     0.83319   0.42074   0.75025   0.00000  Uiso   1.00
C870   C     0.85958   0.49941   0.64997   0.00000  Uiso   1.00
C871   C     0.92968   0.46582   0.51425   0.00000  Uiso   1.00
C872   C     0.87443   0.49403   0.59339   0.00000  Uiso   1.00
C873   C     0.74374   0.51005   0.93435   0.00000  Uiso   1.00
C874   C     0.72943   0.51469   0.98807   0.00000  Uiso   1.00
C875   C     0.76279   0.50759   0.51554   0.00000  Uiso   1.00
C876   C     0.94035   0.64483   0.80487   0.00000  Uiso   1.00
C877   C     0.82366   0.48443   0.93583   0.00000  Uiso   1.00
C878   C     0.84744   0.48875   0.51581   0.00000  Uiso   1.00
C879   C     0.89350   0.47079   0.98911   0.00000  Uiso   1.00
C880   C     0.90254   0.45706   0.93804   0.00000  Uiso   1.00
C881   C     0.86789   0.46311   0.91207   0.00000  Uiso   1.00
C882   C     0.83954   0.50134   0.56755   0.00000  Uiso   1.00
C883   C     0.92008   0.47716   0.56631   0.00000  Uiso   1.00
Cu884  Cu    0.78645   0.49999   0.75000   0.00000  Uiso   1.00
Cu885  Cu    0.88022   0.50001   0.75000   0.00000  Uiso   1.00
H886   H     0.94750   0.47131   0.58583   0.00000  Uiso   1.00
H887   H     0.96491   0.45217   0.99400   0.00000  Uiso   1.00
H888   H     0.80618   0.51667   0.58911   0.00000  Uiso   1.00
H889   H     0.71788   0.51831   0.91372   0.00000  Uiso   1.00
H890   H     0.74906   0.51222   0.55707   0.00000  Uiso   1.00
H891   H     0.69262   0.52512   0.50843   0.00000  Uiso   1.00
H892   H     0.87596   0.44976   0.87361   0.00000  Uiso   1.00
H893   H     0.87956   0.60495   0.82734   0.00000  Uiso   1.00
H894   H     0.96406   0.62165   0.81568   0.00000  Uiso   1.00
H895   H     0.92892   0.33453   0.83684   0.00000  Uiso   1.00
H896   H     0.96223   0.65986   0.76813   0.00000  Uiso   1.00
H897   H     0.89090   0.37351   0.78689   0.00000  Uiso   1.00
H898   H     0.77274   0.36999   0.71856   0.00000  Uiso   1.00
H899   H     0.77300   0.62862   0.71979   0.00000  Uiso   1.00
H900   H     0.93887   0.54224   0.81292   0.00000  Uiso   1.00
H901   H     0.69260   0.54235   0.81277   0.00000  Uiso   1.00
H902   H     0.72772   0.45741   0.68741   0.00000  Uiso   1.00
H903   H     0.97401   0.45754   0.68735   0.00000  Uiso   1.00
H904   H     0.93661   0.44154   0.91800   0.00000  Uiso   1.00
N905   N     0.71598   0.49999   0.74998   0.00000  Uiso   1.00
N906   N     0.95069   0.50002   0.74999   0.00000  Uiso   1.00
N907   N     0.89766   0.62450   0.79754   0.00000  Uiso   1.00
O908   O     0.79375   0.56011   0.75000   0.00000  Uiso   1.00
O909   O     0.87294   0.56012   0.75000   0.00000  Uiso   1.00
O910   O     0.77441   0.49998   0.82549   0.00000  Uiso   1.00
O911   O     0.85360   0.49999   0.82549   0.00000  Uiso   1.00
O912   O     0.79373   0.43988   0.74999   0.00000  Uiso   1.00
O913   O     0.87292   0.43989   0.74999   0.00000  Uiso   1.00
O914   O     0.81306   0.50001   0.67451   0.00000  Uiso   1.00
O915   O     0.89225   0.50002   0.67451   0.00000  Uiso   1.00
C916   C     0.16634   0.91266   0.75169   0.00000  Uiso   1.00
C917   C     0.12446   0.82944   0.90745   0.00000  Uiso   1.00
C918   C     0.19962   0.97935   0.77374   0.00000  Uiso   1.00
C919   C     0.14044   0.83117   0.85007   0.00000  Uiso   1.00
C920   C     0.19950   0.68902   0.77165   0.00000  Uiso   1.00
C921   C     0.16613   0.70957   0.75170   0.00000  Uiso   1.00
C922   C     0.13212   0.68763   0.73399   0.00000  Uiso   1.00
C923   C     0.13222   0.97844   0.73491   0.00000  Uiso   1.00
C924   C     0.16604   0.95741   0.75398   0.00000  Uiso   1.00
C925   C     0.29874   0.85683   0.78489   0.00000  Uiso   1.00
C926   C     0.01504   0.85683   0.78487   0.00000  Uiso   1.00
C927   C     0.14452   0.82720   0.98977   0.00000  Uiso   1.00
C928   C     0.03456   0.80973   0.71521   0.00000  Uiso   1.00
C929   C     0.31827   0.80977   0.71519   0.00000  Uiso   1.00
C930   C     0.16652   0.75407   0.75025   0.00000  Uiso   1.00
C931   C     0.19292   0.83274   0.64997   0.00000  Uiso   1.00
C932   C     0.26301   0.79915   0.51425   0.00000  Uiso   1.00
C933   C     0.20776   0.82736   0.59339   0.00000  Uiso   1.00
C934   C     0.07707   0.84338   0.93435   0.00000  Uiso   1.00
C935   C     0.06276   0.84802   0.98807   0.00000  Uiso   1.00
C936   C     0.09613   0.84092   0.51554   0.00000  Uiso   1.00
C937   C     0.27369   0.97817   0.80487   0.00000  Uiso   1.00
C938   C     0.15699   0.81776   0.93583   0.00000  Uiso   1.00
C939   C     0.18078   0.82208   0.51581   0.00000  Uiso   1.00
C940   C     0.22684   0.80412   0.98911   0.00000  Uiso   1.00
C941   C     0.23587   0.79039   0.93804   0.00000  Uiso   1.00
C942   C     0.20123   0.79645   0.91207   0.00000  Uiso   1.00
C943   C     0.17287   0.83467   0.56755   0.00000  Uiso   1.00
C944   C     0.25341   0.81050   0.56631   0.00000  Uiso   1.00
Cu945  Cu    0.11978   0.83333   0.75000   0.00000  Uiso   1.00
Cu946  Cu    0.21355   0.83334   0.75000   0.00000  Uiso   1.00
H947   H     0.28084   0.80464   0.58583   0.00000  Uiso   1.00
H948   H     0.29824   0.78550   0.99400   0.00000  Uiso   1.00
H949   H     0.13952   0.85000   0.58911   0.00000  Uiso   1.00
H950   H     0.05121   0.85165   0.91372   0.00000  Uiso   1.00
H951   H     0.08239   0.84555   0.55707   0.00000  Uiso   1.00
H952   H     0.02595   0.85845   0.50843   0.00000  Uiso   1.00
H953   H     0.20930   0.78310   0.87361   0.00000  Uiso   1.00
H954   H     0.21289   0.93829   0.82734   0.00000  Uiso   1.00
H955   H     0.29740   0.95498   0.81568   0.00000  Uiso   1.00
H956   H     0.26225   0.66786   0.83684   0.00000  Uiso   1.00
H957   H     0.29556   0.99320   0.76813   0.00000  Uiso   1.00
H958   H     0.22423   0.70684   0.78689   0.00000  Uiso   1.00
H959   H     0.10607   0.70332   0.71856   0.00000  Uiso   1.00
H960   H     0.10633   0.96196   0.71979   0.00000  Uiso   1.00
H961   H     0.27220   0.87557   0.81292   0.00000  Uiso   1.00
H962   H     0.02593   0.87568   0.81277   0.00000  Uiso   1.00
H963   H     0.06105   0.79074   0.68741   0.00000  Uiso   1.00
H964   H     0.30734   0.79087   0.68735   0.00000  Uiso   1.00
H965   H     0.26994   0.77487   0.91800   0.00000  Uiso   1.00
N966   N     0.04931   0.83332   0.74998   0.00000  Uiso   1.00
N967   N     0.28402   0.83335   0.74999   0.00000  Uiso   1.00
N968   N     0.23099   0.95783   0.79754   0.00000  Uiso   1.00
O969   O     0.12708   0.89345   0.75000   0.00000  Uiso   1.00
O970   O     0.20627   0.89346   0.75000   0.00000  Uiso   1.00
O971   O     0.10775   0.83332   0.82549   0.00000  Uiso   1.00
O972   O     0.18694   0.83333   0.82549   0.00000  Uiso   1.00
O973   O     0.12706   0.77321   0.74999   0.00000  Uiso   1.00
O974   O     0.20625   0.77322   0.74999   0.00000  Uiso   1.00
O975   O     0.14640   0.83334   0.67451   0.00000  Uiso   1.00
O976   O     0.22559   0.83335   0.67451   0.00000  Uiso   1.00
C977   C     0.49968   0.91266   0.75169   0.00000  Uiso   1.00
C978   C     0.45779   0.82944   0.90745   0.00000  Uiso   1.00
C979   C     0.53295   0.97935   0.77374   0.00000  Uiso   1.00
C980   C     0.47377   0.83117   0.85007   0.00000  Uiso   1.00
C981   C     0.53283   0.68902   0.77165   0.00000  Uiso   1.00
C982   C     0.49946   0.70957   0.75170   0.00000  Uiso   1.00
C983   C     0.46545   0.68763   0.73399   0.00000  Uiso   1.00
C984   C     0.46556   0.97844   0.73491   0.00000  Uiso   1.00
C985   C     0.49937   0.95741   0.75398   0.00000  Uiso   1.00
C986   C     0.63208   0.85683   0.78489   0.00000  Uiso   1.00
C987   C     0.34837   0.85683   0.78487   0.00000  Uiso   1.00
C988   C     0.47785   0.82720   0.98977   0.00000  Uiso   1.00
C989   C     0.36789   0.80973   0.71521   0.00000  Uiso   1.00
C990   C     0.65160   0.80977   0.71519   0.00000  Uiso   1.00
C991   C     0.49985   0.75407   0.75025   0.00000  Uiso   1.00
C992   C     0.52625   0.83274   0.64997   0.00000  Uiso   1.00
C993   C     0.59634   0.79915   0.51425   0.00000  Uiso   1.00
C994   C     0.54109   0.82736   0.59339   0.00000  Uiso   1.00
C995   C     0.41041   0.84338   0.93435   0.00000  Uiso   1.00
C996   C     0.39610   0.84802   0.98807   0.00000  Uiso   1.00
C997   C     0.42946   0.84092   0.51554   0.00000  Uiso   1.00
C998   C     0.60702   0.97817   0.80487   0.00000  Uiso   1.00
C999   C     0.49033   0.81776   0.93583   0.00000  Uiso   1.00
C1000  C     0.51411   0.82208   0.51581   0.00000  Uiso   1.00
C1001  C     0.56017   0.80412   0.98911   0.00000  Uiso   1.00
C1002  C     0.56921   0.79039   0.93804   0.00000  Uiso   1.00
C1003  C     0.53456   0.79645   0.91207   0.00000  Uiso   1.00
C1004  C     0.50621   0.83467   0.56755   0.00000  Uiso   1.00
C1005  C     0.58674   0.81050   0.56631   0.00000  Uiso   1.00
Cu1006 Cu    0.45311   0.83333   0.75000   0.00000  Uiso   1.00
Cu1007 Cu    0.54689   0.83334   0.75000   0.00000  Uiso   1.00
H1008  H     0.61417   0.80464   0.58583   0.00000  Uiso   1.00
H1009  H     0.63157   0.78550   0.99400   0.00000  Uiso   1.00
H1010  H     0.47285   0.85000   0.58911   0.00000  Uiso   1.00
H1011  H     0.38455   0.85165   0.91372   0.00000  Uiso   1.00
H1012  H     0.41572   0.84555   0.55707   0.00000  Uiso   1.00
H1013  H     0.35928   0.85845   0.50843   0.00000  Uiso   1.00
H1014  H     0.54263   0.78310   0.87361   0.00000  Uiso   1.00
H1015  H     0.54623   0.93829   0.82734   0.00000  Uiso   1.00
H1016  H     0.63073   0.95498   0.81568   0.00000  Uiso   1.00
H1017  H     0.59559   0.66786   0.83684   0.00000  Uiso   1.00
H1018  H     0.62890   0.99320   0.76813   0.00000  Uiso   1.00
H1019  H     0.55756   0.70684   0.78689   0.00000  Uiso   1.00
H1020  H     0.43941   0.70332   0.71856   0.00000  Uiso   1.00
H1021  H     0.43966   0.96196   0.71979   0.00000  Uiso   1.00
H1022  H     0.60553   0.87557   0.81292   0.00000  Uiso   1.00
H1023  H     0.35927   0.87568   0.81277   0.00000  Uiso   1.00
H1024  H     0.39438   0.79074   0.68741   0.00000  Uiso   1.00
H1025  H     0.64067   0.79087   0.68735   0.00000  Uiso   1.00
H1026  H     0.60328   0.77487   0.91800   0.00000  Uiso   1.00
N1027  N     0.38265   0.83332   0.74998   0.00000  Uiso   1.00
N1028  N     0.61735   0.83335   0.74999   0.00000  Uiso   1.00
N1029  N     0.56432   0.95783   0.79754   0.00000  Uiso   1.00
O1030  O     0.46042   0.89345   0.75000   0.00000  Uiso   1.00
O1031  O     0.53961   0.89346   0.75000   0.00000  Uiso   1.00
O1032  O     0.44108   0.83332   0.82549   0.00000  Uiso   1.00
O1033  O     0.52027   0.83333   0.82549   0.00000  Uiso   1.00
O1034  O     0.46039   0.77321   0.74999   0.00000  Uiso   1.00
O1035  O     0.53958   0.77322   0.74999   0.00000  Uiso   1.00
O1036  O     0.47973   0.83334   0.67451   0.00000  Uiso   1.00
O1037  O     0.55892   0.83335   0.67451   0.00000  Uiso   1.00
C1038  C     0.83301   0.91266   0.75169   0.00000  Uiso   1.00
C1039  C     0.79112   0.82944   0.90745   0.00000  Uiso   1.00
C1040  C     0.86629   0.97935   0.77374   0.00000  Uiso   1.00
C1041  C     0.80710   0.83117   0.85007   0.00000  Uiso   1.00
C1042  C     0.86617   0.68902   0.77165   0.00000  Uiso   1.00
C1043  C     0.83279   0.70957   0.75170   0.00000  Uiso   1.00
C1044  C     0.79879   0.68763   0.73399   0.00000  Uiso   1.00
C1045  C     0.79889   0.97844   0.73491   0.00000  Uiso   1.00
C1046  C     0.83270   0.95741   0.75398   0.00000  Uiso   1.00
C1047  C     0.96541   0.85683   0.78489   0.00000  Uiso   1.00
C1048  C     0.68170   0.85683   0.78487   0.00000  Uiso   1.00
C1049  C     0.81118   0.82720   0.98977   0.00000  Uiso   1.00
C1050  C     0.70123   0.80973   0.71521   0.00000  Uiso   1.00
C1051  C     0.98493   0.80977   0.71519   0.00000  Uiso   1.00
C1052  C     0.83319   0.75407   0.75025   0.00000  Uiso   1.00
C1053  C     0.85958   0.83274   0.64997   0.00000  Uiso   1.00
C1054  C     0.92968   0.79915   0.51425   0.00000  Uiso   1.00
C1055  C     0.87443   0.82736   0.59339   0.00000  Uiso   1.00
C1056  C     0.74374   0.84338   0.93435   0.00000  Uiso   1.00
C1057  C     0.72943   0.84802   0.98807   0.00000  Uiso   1.00
C1058  C     0.76279   0.84092   0.51554   0.00000  Uiso   1.00
C1059  C     0.94035   0.97817   0.80487   0.00000  Uiso   1.00
C1060  C     0.82366   0.81776   0.93583   0.00000  Uiso   1.00
C1061  C     0.84744   0.82208   0.51581   0.00000  Uiso   1.00
C1062  C     0.89350   0.80412   0.98911   0.00000  Uiso   1.00
C1063  C     0.90254   0.79039   0.93804   0.00000  Uiso   1.00
C1064  C     0.86789   0.79645   0.91207   0.00000  Uiso   1.00
C1065  C     0.83954   0.83467   0.56755   0.00000  Uiso   1.00
C1066  C     0.92008   0.81050   0.56631   0.00000  Uiso   1.00
Cu1067 Cu    0.78645   0.83333   0.75000   0.00000  Uiso   1.00
Cu1068 Cu    0.88022   0.83334   0.75000   0.00000  Uiso   1.00
H1069  H     0.94750   0.80464   0.58583   0.00000  Uiso   1.00
H1070  H     0.96491   0.78550   0.99400   0.00000  Uiso   1.00
H1071  H     0.80618   0.85000   0.58911   0.00000  Uiso   1.00
H1072  H     0.71788   0.85165   0.91372   0.00000  Uiso   1.00
H1073  H     0.74906   0.84555   0.55707   0.00000  Uiso   1.00
H1074  H     0.69262   0.85845   0.50843   0.00000  Uiso   1.00
H1075  H     0.87596   0.78310   0.87361   0.00000  Uiso   1.00
H1076  H     0.87956   0.93829   0.82734   0.00000  Uiso   1.00
H1077  H     0.96406   0.95498   0.81568   0.00000  Uiso   1.00
H1078  H     0.92892   0.66786   0.83684   0.00000  Uiso   1.00
H1079  H     0.96223   0.99320   0.76813   0.00000  Uiso   1.00
H1080  H     0.89090   0.70684   0.78689   0.00000  Uiso   1.00
H1081  H     0.77274   0.70332   0.71856   0.00000  Uiso   1.00
H1082  H     0.77300   0.96196   0.71979   0.00000  Uiso   1.00
H1083  H     0.93887   0.87557   0.81292   0.00000  Uiso   1.00
H1084  H     0.69260   0.87568   0.81277   0.00000  Uiso   1.00
H1085  H     0.72772   0.79074   0.68741   0.00000  Uiso   1.00
H1086  H     0.97401   0.79087   0.68735   0.00000  Uiso   1.00
H1087  H     0.93661   0.77487   0.91800   0.00000  Uiso   1.00
N1088  N     0.71598   0.83332   0.74998   0.00000  Uiso   1.00
N1089  N     0.95069   0.83335   0.74999   0.00000  Uiso   1.00
N1090  N     0.89766   0.95783   0.79754   0.00000  Uiso   1.00
O1091  O     0.79375   0.89345   0.75000   0.00000  Uiso   1.00
O1092  O     0.87294   0.89346   0.75000   0.00000  Uiso   1.00
O1093  O     0.77441   0.83332   0.82549   0.00000  Uiso   1.00
O1094  O     0.85360   0.83333   0.82549   0.00000  Uiso   1.00
O1095  O     0.79373   0.77321   0.74999   0.00000  Uiso   1.00
O1096  O     0.87292   0.77322   0.74999   0.00000  Uiso   1.00
O1097  O     0.81306   0.83334   0.67451   0.00000  Uiso   1.00
O1098  O     0.89225   0.83335   0.67451   0.00000  Uiso   1.00
loop_
_geom_bond_atom_site_label_1
_geom_bond_atom_site_label_2
_geom_bond_distance
_geom_bond_site_symmetry_2
_ccdc_geom_bond_type
C1     O54     1.293   .     A
C1     O55     1.289   .     A
C1     C9      1.454   .     S
C2     C4      1.474   .     S
C2     C23     1.421   .     A
C2     C19     1.403   .     A
C3     C9      1.417   .     A
C3     N53     1.432   .     S
C3     C188    1.398   .     S
C4     O57     1.294   .     A
C4     O56     1.298   .     A
C5     H43     1.082   .     S
C5     C6      1.398   .     A
C5     C369    1.398   1_545 S
C6     C7      1.395   .     A
C6     C15     1.446   .     S
C7     H44     1.084   .     S
C7     C374    1.381   1_545 S
C8     H45     1.084   .     S
C8     C9      1.402   .     A
C8     C190    1.381   .     S
C10    H46     1.081   .     S
C10    N52     1.367   .     A
C10    C72     1.416   .     S
C11    H47     1.082   .     S
C11    N51     1.367   .     A
C11    C132    1.416   1_455 S
C12    C23     1.419   .     A
C12    C570    1.418   .     S
C12    C573    1.424   .     S
C13    H48     1.082   .     S
C13    N51     1.367   .     A
C13    C136    1.416   1_455 S
C14    H49     1.082   .     S
C14    N52     1.366   .     A
C14    C74     1.416   .     S
C15    O59     1.289   .     A
C15    O58     1.290   .     A
C16    C18     1.462   .     S
C16    O60     1.292   .     A
C16    O61     1.294   .     A
C17    C29     1.393   .     A
C17    C574    1.404   1_554 S
C17    H582    1.084   1_554 S
C18    C28     1.396   .     A
C18    C29     1.399   .     A
C19    C20     1.386   .     A
C19    H35     1.083   .     S
C20    C570    1.390   .     S
C20    H586    1.083   .     S
C21    H36     1.077   .     S
C21    C569    1.390   1_554 S
C21    C561    1.418   1_554 S
C22    H40     1.110   .     S
C22    H42     1.111   .     S
C22    N53     1.448   .     S
C22    H224    1.111   .     S
C23    C27     1.413   .     A
C24    C28     1.401   .     A
C24    C561    1.424   1_554 S
C24    C574    1.420   1_554 S
C25    C26     1.391   .     A
C25    C566    1.404   .     S
C25    C573    1.420   .     S
C26    C27     1.387   .     A
C26    H50     1.084   .     S
C27    H38     1.080   .     S
C28    H34     1.076   .     S
C29    H32     1.083   .     S
Cu30   N51     2.010   .     S
Cu30   O54     1.962   .     S
Cu30   O58     1.964   .     S
Cu30   Cu31    2.675   .     S
Cu30   O56     1.955   .     S
Cu30   O60     1.943   .     S
Cu31   N52     2.010   .     S
Cu31   O57     1.943   .     S
Cu31   O55     1.964   .     S
Cu31   O59     1.962   .     S
Cu31   O61     1.955   .     S
H33    C566    1.084   .     S
H37    C569    1.083   1_554 S
H39    N53     1.032   .     S
H41    C388    1.111   1_545 S
C62    O115    1.293   .     A
C62    O116    1.289   .     A
C62    C70     1.454   .     S
C63    C65     1.474   .     S
C63    C84     1.421   .     A
C63    C80     1.403   .     A
C64    C70     1.417   .     A
C64    N114    1.432   .     S
C64    C249    1.398   .     S
C65    O118    1.294   .     A
C65    O117    1.298   .     A
C66    H104    1.082   .     S
C66    C67     1.398   .     A
C66    C430    1.398   1_545 S
C67    C68     1.395   .     A
C67    C76     1.446   .     S
C68    H105    1.084   .     S
C68    C435    1.381   1_545 S
C69    H106    1.084   .     S
C69    C70     1.402   .     A
C69    C251    1.381   .     S
C71    H107    1.081   .     S
C71    N113    1.367   .     A
C71    C133    1.416   .     S
C72    H108    1.082   .     S
C72    N112    1.367   .     A
C73    C84     1.419   .     A
C73    C631    1.418   .     S
C73    C634    1.424   .     S
C74    H109    1.082   .     S
C74    N112    1.367   .     A
C75    H110    1.082   .     S
C75    N113    1.366   .     A
C75    C135    1.416   .     S
C76    O120    1.289   .     A
C76    O119    1.290   .     A
C77    C79     1.462   .     S
C77    O121    1.292   .     A
C77    O122    1.294   .     A
C78    C90     1.393   .     A
C78    C635    1.404   1_554 S
C78    H643    1.084   1_554 S
C79    C89     1.396   .     A
C79    C90     1.399   .     A
C80    C81     1.386   .     A
C80    H96     1.083   .     S
C81    C631    1.390   .     S
C81    H647    1.083   .     S
C82    H97     1.077   .     S
C82    C630    1.390   1_554 S
C82    C622    1.418   1_554 S
C83    H101    1.110   .     S
C83    H103    1.111   .     S
C83    N114    1.448   .     S
C83    H285    1.111   .     S
C84    C88     1.413   .     A
C85    C89     1.401   .     A
C85    C622    1.424   1_554 S
C85    C635    1.420   1_554 S
C86    C87     1.391   .     A
C86    C627    1.404   .     S
C86    C634    1.420   .     S
C87    C88     1.387   .     A
C87    H111    1.084   .     S
C88    H99     1.080   .     S
C89    H95     1.076   .     S
C90    H93     1.083   .     S
Cu91   N112    2.010   .     S
Cu91   O115    1.962   .     S
Cu91   O119    1.964   .     S
Cu91   Cu92    2.675   .     S
Cu91   O117    1.955   .     S
Cu91   O121    1.943   .     S
Cu92   N113    2.010   .     S
Cu92   O118    1.943   .     S
Cu92   O116    1.964   .     S
Cu92   O120    1.962   .     S
Cu92   O122    1.955   .     S
H94    C627    1.084   .     S
H98    C630    1.083   1_554 S
H100   N114    1.032   .     S
H102   C449    1.111   1_545 S
C123   O176    1.293   .     A
C123   O177    1.289   .     A
C123   C131    1.454   .     S
C124   C126    1.474   .     S
C124   C145    1.421   .     A
C124   C141    1.403   .     A
C125   C131    1.417   .     A
C125   N175    1.432   .     S
C125   C310    1.398   .     S
C126   O179    1.294   .     A
C126   O178    1.298   .     A
C127   H165    1.082   .     S
C127   C128    1.398   .     A
C127   C491    1.398   1_545 S
C128   C129    1.395   .     A
C128   C137    1.446   .     S
C129   H166    1.084   .     S
C129   C496    1.381   1_545 S
C130   H167    1.084   .     S
C130   C131    1.402   .     A
C130   C312    1.381   .     S
C132   H168    1.081   .     S
C132   N174    1.367   .     A
C132   C11     1.416   1_655 S
C133   H169    1.082   .     S
C133   N173    1.367   .     A
C134   C145    1.419   .     A
C134   C692    1.418   .     S
C134   C695    1.424   .     S
C135   H170    1.082   .     S
C135   N173    1.367   .     A
C136   H171    1.082   .     S
C136   N174    1.366   .     A
C136   C13     1.416   1_655 S
C137   O181    1.289   .     A
C137   O180    1.290   .     A
C138   C140    1.462   .     S
C138   O182    1.292   .     A
C138   O183    1.294   .     A
C139   C151    1.393   .     A
C139   C696    1.404   1_554 S
C139   H704    1.084   1_554 S
C140   C150    1.396   .     A
C140   C151    1.399   .     A
C141   C142    1.386   .     A
C141   H157    1.083   .     S
C142   C692    1.390   .     S
C142   H708    1.083   .     S
C143   H158    1.077   .     S
C143   C691    1.390   1_554 S
C143   C683    1.418   1_554 S
C144   H162    1.110   .     S
C144   H164    1.111   .     S
C144   N175    1.448   .     S
C144   H346    1.111   .     S
C145   C149    1.413   .     A
C146   C150    1.401   .     A
C146   C683    1.424   1_554 S
C146   C696    1.420   1_554 S
C147   C148    1.391   .     A
C147   C688    1.404   .     S
C147   C695    1.420   .     S
C148   C149    1.387   .     A
C148   H172    1.084   .     S
C149   H160    1.080   .     S
C150   H156    1.076   .     S
C151   H154    1.083   .     S
Cu152  N173    2.010   .     S
Cu152  O176    1.962   .     S
Cu152  O180    1.964   .     S
Cu152  Cu153   2.675   .     S
Cu152  O178    1.955   .     S
Cu152  O182    1.943   .     S
Cu153  N174    2.010   .     S
Cu153  O179    1.943   .     S
Cu153  O177    1.964   .     S
Cu153  O181    1.962   .     S
Cu153  O183    1.955   .     S
H155   C688    1.084   .     S
H159   C691    1.083   1_554 S
H161   N175    1.032   .     S
H163   C510    1.111   1_545 S
C184   O237    1.293   .     A
C184   O238    1.289   .     A
C184   C192    1.454   .     S
C185   C187    1.474   .     S
C185   C206    1.421   .     A
C185   C202    1.403   .     A
C186   C192    1.417   .     A
C186   N236    1.432   .     S
C186   C371    1.398   .     S
C187   O240    1.294   .     A
C187   O239    1.298   .     A
C188   H226    1.082   .     S
C188   C189    1.398   .     A
C189   C190    1.395   .     A
C189   C198    1.446   .     S
C190   H227    1.084   .     S
C191   H228    1.084   .     S
C191   C192    1.402   .     A
C191   C373    1.381   .     S
C193   H229    1.081   .     S
C193   N235    1.367   .     A
C193   C255    1.416   .     S
C194   H230    1.082   .     S
C194   N234    1.367   .     A
C194   C315    1.416   1_455 S
C195   C206    1.419   .     A
C195   C753    1.418   .     S
C195   C756    1.424   .     S
C196   H231    1.082   .     S
C196   N234    1.367   .     A
C196   C319    1.416   1_455 S
C197   H232    1.082   .     S
C197   N235    1.366   .     A
C197   C257    1.416   .     S
C198   O242    1.289   .     A
C198   O241    1.290   .     A
C199   C201    1.462   .     S
C199   O243    1.292   .     A
C199   O244    1.294   .     A
C200   C212    1.393   .     A
C200   C757    1.404   1_554 S
C200   H765    1.084   1_554 S
C201   C211    1.396   .     A
C201   C212    1.399   .     A
C202   C203    1.386   .     A
C202   H218    1.083   .     S
C203   C753    1.390   .     S
C203   H769    1.083   .     S
C204   H219    1.077   .     S
C204   C752    1.390   1_554 S
C204   C744    1.418   1_554 S
C205   H223    1.110   .     S
C205   H225    1.111   .     S
C205   N236    1.448   .     S
C205   H407    1.111   .     S
C206   C210    1.413   .     A
C207   C211    1.401   .     A
C207   C744    1.424   1_554 S
C207   C757    1.420   1_554 S
C208   C209    1.391   .     A
C208   C749    1.404   .     S
C208   C756    1.420   .     S
C209   C210    1.387   .     A
C209   H233    1.084   .     S
C210   H221    1.080   .     S
C211   H217    1.076   .     S
C212   H215    1.083   .     S
Cu213  N234    2.010   .     S
Cu213  O237    1.962   .     S
Cu213  O241    1.964   .     S
Cu213  Cu214   2.675   .     S
Cu213  O239    1.955   .     S
Cu213  O243    1.943   .     S
Cu214  N235    2.010   .     S
Cu214  O240    1.943   .     S
Cu214  O238    1.964   .     S
Cu214  O242    1.962   .     S
Cu214  O244    1.955   .     S
H216   C749    1.084   .     S
H220   C752    1.083   1_554 S
H222   N236    1.032   .     S
C245   O298    1.293   .     A
C245   O299    1.289   .     A
C245   C253    1.454   .     S
C246   C248    1.474   .     S
C246   C267    1.421   .     A
C246   C263    1.403   .     A
C247   C253    1.417   .     A
C247   N297    1.432   .     S
C247   C432    1.398   .     S
C248   O301    1.294   .     A
C248   O300    1.298   .     A
C249   H287    1.082   .     S
C249   C250    1.398   .     A
C250   C251    1.395   .     A
C250   C259    1.446   .     S
C251   H288    1.084   .     S
C252   H289    1.084   .     S
C252   C253    1.402   .     A
C252   C434    1.381   .     S
C254   H290    1.081   .     S
C254   N296    1.367   .     A
C254   C316    1.416   .     S
C255   H291    1.082   .     S
C255   N295    1.367   .     A
C256   C267    1.419   .     A
C256   C814    1.418   .     S
C256   C817    1.424   .     S
C257   H292    1.082   .     S
C257   N295    1.367   .     A
C258   H293    1.082   .     S
C258   N296    1.366   .     A
C258   C318    1.416   .     S
C259   O303    1.289   .     A
C259   O302    1.290   .     A
C260   C262    1.462   .     S
C260   O304    1.292   .     A
C260   O305    1.294   .     A
C261   C273    1.393   .     A
C261   C818    1.404   1_554 S
C261   H826    1.084   1_554 S
C262   C272    1.396   .     A
C262   C273    1.399   .     A
C263   C264    1.386   .     A
C263   H279    1.083   .     S
C264   C814    1.390   .     S
C264   H830    1.083   .     S
C265   H280    1.077   .     S
C265   C813    1.390   1_554 S
C265   C805    1.418   1_554 S
C266   H284    1.110   .     S
C266   H286    1.111   .     S
C266   N297    1.448   .     S
C266   H468    1.111   .     S
C267   C271    1.413   .     A
C268   C272    1.401   .     A
C268   C805    1.424   1_554 S
C268   C818    1.420   1_554 S
C269   C270    1.391   .     A
C269   C810    1.404   .     S
C269   C817    1.420   .     S
C270   C271    1.387   .     A
C270   H294    1.084   .     S
C271   H282    1.080   .     S
C272   H278    1.076   .     S
C273   H276    1.083   .     S
Cu274  N295    2.010   .     S
Cu274  O298    1.962   .     S
Cu274  O302    1.964   .     S
Cu274  Cu275   2.675   .     S
Cu274  O300    1.955   .     S
Cu274  O304    1.943   .     S
Cu275  N296    2.010   .     S
Cu275  O301    1.943   .     S
Cu275  O299    1.964   .     S
Cu275  O303    1.962   .     S
Cu275  O305    1.955   .     S
H277   C810    1.084   .     S
H281   C813    1.083   1_554 S
H283   N297    1.032   .     S
C306   O359    1.293   .     A
C306   O360    1.289   .     A
C306   C314    1.454   .     S
C307   C309    1.474   .     S
C307   C328    1.421   .     A
C307   C324    1.403   .     A
C308   C314    1.417   .     A
C308   N358    1.432   .     S
C308   C493    1.398   .     S
C309   O362    1.294   .     A
C309   O361    1.298   .     A
C310   H348    1.082   .     S
C310   C311    1.398   .     A
C311   C312    1.395   .     A
C311   C320    1.446   .     S
C312   H349    1.084   .     S
C313   H350    1.084   .     S
C313   C314    1.402   .     A
C313   C495    1.381   .     S
C315   H351    1.081   .     S
C315   N357    1.367   .     A
C315   C194    1.416   1_655 S
C316   H352    1.082   .     S
C316   N356    1.367   .     A
C317   C328    1.419   .     A
C317   C875    1.418   .     S
C317   C878    1.424   .     S
C318   H353    1.082   .     S
C318   N356    1.367   .     A
C319   H354    1.082   .     S
C319   N357    1.366   .     A
C319   C196    1.416   1_655 S
C320   O364    1.289   .     A
C320   O363    1.290   .     A
C321   C323    1.462   .     S
C321   O365    1.292   .     A
C321   O366    1.294   .     A
C322   C334    1.393   .     A
C322   C879    1.404   1_554 S
C322   H887    1.084   1_554 S
C323   C333    1.396   .     A
C323   C334    1.399   .     A
C324   C325    1.386   .     A
C324   H340    1.083   .     S
C325   C875    1.390   .     S
C325   H891    1.083   .     S
C326   H341    1.077   .     S
C326   C874    1.390   1_554 S
C326   C866    1.418   1_554 S
C327   H345    1.110   .     S
C327   H347    1.111   .     S
C327   N358    1.448   .     S
C327   H529    1.111   .     S
C328   C332    1.413   .     A
C329   C333    1.401   .     A
C329   C866    1.424   1_554 S
C329   C879    1.420   1_554 S
C330   C331    1.391   .     A
C330   C871    1.404   .     S
C330   C878    1.420   .     S
C331   C332    1.387   .     A
C331   H355    1.084   .     S
C332   H343    1.080   .     S
C333   H339    1.076   .     S
C334   H337    1.083   .     S
Cu335  N356    2.010   .     S
Cu335  O359    1.962   .     S
Cu335  O363    1.964   .     S
Cu335  Cu336   2.675   .     S
Cu335  O361    1.955   .     S
Cu335  O365    1.943   .     S
Cu336  N357    2.010   .     S
Cu336  O362    1.943   .     S
Cu336  O360    1.964   .     S
Cu336  O364    1.962   .     S
Cu336  O366    1.955   .     S
H338   C871    1.084   .     S
H342   C874    1.083   1_554 S
H344   N358    1.032   .     S
C367   O420    1.293   .     A
C367   O421    1.289   .     A
C367   C375    1.454   .     S
C368   C370    1.474   .     S
C368   C389    1.421   .     A
C368   C385    1.403   .     A
C369   C375    1.417   .     A
C369   N419    1.432   .     S
C369   C5      1.398   1_565 S
C370   O423    1.294   .     A
C370   O422    1.298   .     A
C371   H409    1.082   .     S
C371   C372    1.398   .     A
C372   C373    1.395   .     A
C372   C381    1.446   .     S
C373   H410    1.084   .     S
C374   H411    1.084   .     S
C374   C375    1.402   .     A
C374   C7      1.381   1_565 S
C376   H412    1.081   .     S
C376   N418    1.367   .     A
C376   C438    1.416   .     S
C377   H413    1.082   .     S
C377   N417    1.367   .     A
C377   C498    1.416   1_455 S
C378   C389    1.419   .     A
C378   C936    1.418   .     S
C378   C939    1.424   .     S
C379   H414    1.082   .     S
C379   N417    1.367   .     A
C379   C502    1.416   1_455 S
C380   H415    1.082   .     S
C380   N418    1.366   .     A
C380   C440    1.416   .     S
C381   O425    1.289   .     A
C381   O424    1.290   .     A
C382   C384    1.462   .     S
C382   O426    1.292   .     A
C382   O427    1.294   .     A
C383   C395    1.393   .     A
C383   C940    1.404   1_554 S
C383   H948    1.084   1_554 S
C384   C394    1.396   .     A
C384   C395    1.399   .     A
C385   C386    1.386   .     A
C385   H401    1.083   .     S
C386   C936    1.390   .     S
C386   H952    1.083   .     S
C387   H402    1.077   .     S
C387   C935    1.390   1_554 S
C387   C927    1.418   1_554 S
C388   H406    1.110   .     S
C388   H408    1.111   .     S
C388   N419    1.448   .     S
C388   H41     1.111   1_565 S
C389   C393    1.413   .     A
C390   C394    1.401   .     A
C390   C927    1.424   1_554 S
C390   C940    1.420   1_554 S
C391   C392    1.391   .     A
C391   C932    1.404   .     S
C391   C939    1.420   .     S
C392   C393    1.387   .     A
C392   H416    1.084   .     S
C393   H404    1.080   .     S
C394   H400    1.076   .     S
C395   H398    1.083   .     S
Cu396  N417    2.010   .     S
Cu396  O420    1.962   .     S
Cu396  O424    1.964   .     S
Cu396  Cu397   2.675   .     S
Cu396  O422    1.955   .     S
Cu396  O426    1.943   .     S
Cu397  N418    2.010   .     S
Cu397  O423    1.943   .     S
Cu397  O421    1.964   .     S
Cu397  O425    1.962   .     S
Cu397  O427    1.955   .     S
H399   C932    1.084   .     S
H403   C935    1.083   1_554 S
H405   N419    1.032   .     S
C428   O481    1.293   .     A
C428   O482    1.289   .     A
C428   C436    1.454   .     S
C429   C431    1.474   .     S
C429   C450    1.421   .     A
C429   C446    1.403   .     A
C430   C436    1.417   .     A
C430   N480    1.432   .     S
C430   C66     1.398   1_565 S
C431   O484    1.294   .     A
C431   O483    1.298   .     A
C432   H470    1.082   .     S
C432   C433    1.398   .     A
C433   C434    1.395   .     A
C433   C442    1.446   .     S
C434   H471    1.084   .     S
C435   H472    1.084   .     S
C435   C436    1.402   .     A
C435   C68     1.381   1_565 S
C437   H473    1.081   .     S
C437   N479    1.367   .     A
C437   C499    1.416   .     S
C438   H474    1.082   .     S
C438   N478    1.367   .     A
C439   C450    1.419   .     A
C439   C997    1.418   .     S
C439   C1000   1.424   .     S
C440   H475    1.082   .     S
C440   N478    1.367   .     A
C441   H476    1.082   .     S
C441   N479    1.366   .     A
C441   C501    1.416   .     S
C442   O486    1.289   .     A
C442   O485    1.290   .     A
C443   C445    1.462   .     S
C443   O487    1.292   .     A
C443   O488    1.294   .     A
C444   C456    1.393   .     A
C444   C1001   1.404   1_554 S
C444   H1009   1.084   1_554 S
C445   C455    1.396   .     A
C445   C456    1.399   .     A
C446   C447    1.386   .     A
C446   H462    1.083   .     S
C447   C997    1.390   .     S
C447   H1013   1.083   .     S
C448   H463    1.077   .     S
C448   C996    1.390   1_554 S
C448   C988    1.418   1_554 S
C449   H467    1.110   .     S
C449   H469    1.111   .     S
C449   N480    1.448   .     S
C449   H102    1.111   1_565 S
C450   C454    1.413   .     A
C451   C455    1.401   .     A
C451   C988    1.424   1_554 S
C451   C1001   1.420   1_554 S
C452   C453    1.391   .     A
C452   C993    1.404   .     S
C452   C1000   1.420   .     S
C453   C454    1.387   .     A
C453   H477    1.084   .     S
C454   H465    1.080   .     S
C455   H461    1.076   .     S
C456   H459    1.083   .     S
Cu457  N478    2.010   .     S
Cu457  O481    1.962   .     S
Cu457  O485    1.964   .     S
Cu457  Cu458   2.675   .     S
Cu457  O483    1.955   .     S
Cu457  O487    1.943   .     S
Cu458  N479    2.010   .     S
Cu458  O484    1.943   .     S
Cu458  O482    1.964   .     S
Cu458  O486    1.962   .     S
Cu458  O488    1.955   .     S
H460   C993    1.084   .     S
H464   C996    1.083   1_554 S
H466   N480    1.032   .     S
C489   O542    1.293   .     A
C489   O543    1.289   .     A
C489   C497    1.454   .     S
C490   C492    1.474   .     S
C490   C511    1.421   .     A
C490   C507    1.403   .     A
C491   C497    1.417   .     A
C491   N541    1.432   .     S
C491   C127    1.398   1_565 S
C492   O545    1.294   .     A
C492   O544    1.298   .     A
C493   H531    1.082   .     S
C493   C494    1.398   .     A
C494   C495    1.395   .     A
C494   C503    1.446   .     S
C495   H532    1.084   .     S
C496   H533    1.084   .     S
C496   C497    1.402   .     A
C496   C129    1.381   1_565 S
C498   H534    1.081   .     S
C498   N540    1.367   .     A
C498   C377    1.416   1_655 S
C499   H535    1.082   .     S
C499   N539    1.367   .     A
C500   C511    1.419   .     A
C500   C1058   1.418   .     S
C500   C1061   1.424   .     S
C501   H536    1.082   .     S
C501   N539    1.367   .     A
C502   H537    1.082   .     S
C502   N540    1.366   .     A
C502   C379    1.416   1_655 S
C503   O547    1.289   .     A
C503   O546    1.290   .     A
C504   C506    1.462   .     S
C504   O548    1.292   .     A
C504   O549    1.294   .     A
C505   C517    1.393   .     A
C505   C1062   1.404   1_554 S
C505   H1070   1.084   1_554 S
C506   C516    1.396   .     A
C506   C517    1.399   .     A
C507   C508    1.386   .     A
C507   H523    1.083   .     S
C508   C1058   1.390   .     S
C508   H1074   1.083   .     S
C509   H524    1.077   .     S
C509   C1057   1.390   1_554 S
C509   C1049   1.418   1_554 S
C510   H528    1.110   .     S
C510   H530    1.111   .     S
C510   N541    1.448   .     S
C510   H163    1.111   1_565 S
C511   C515    1.413   .     A
C512   C516    1.401   .     A
C512   C1049   1.424   1_554 S
C512   C1062   1.420   1_554 S
C513   C514    1.391   .     A
C513   C1054   1.404   .     S
C513   C1061   1.420   .     S
C514   C515    1.387   .     A
C514   H538    1.084   .     S
C515   H526    1.080   .     S
C516   H522    1.076   .     S
C517   H520    1.083   .     S
Cu518  N539    2.010   .     S
Cu518  O542    1.962   .     S
Cu518  O546    1.964   .     S
Cu518  Cu519   2.675   .     S
Cu518  O544    1.955   .     S
Cu518  O548    1.943   .     S
Cu519  N540    2.010   .     S
Cu519  O545    1.943   .     S
Cu519  O543    1.964   .     S
Cu519  O547    1.962   .     S
Cu519  O549    1.955   .     S
H521   C1054   1.084   .     S
H525   C1057   1.083   1_554 S
H527   N541    1.032   .     S
C550   O603    1.293   .     A
C550   O604    1.289   .     A
C550   C558    1.454   .     S
C551   C553    1.474   .     S
C551   C572    1.421   .     A
C551   C568    1.403   .     A
C552   C558    1.417   .     A
C552   N602    1.432   .     S
C552   C737    1.398   .     S
C553   O606    1.294   .     A
C553   O605    1.298   .     A
C554   H592    1.082   .     S
C554   C555    1.398   .     A
C554   C918    1.398   1_545 S
C555   C556    1.395   .     A
C555   C564    1.446   .     S
C556   H593    1.084   .     S
C556   C923    1.381   1_545 S
C557   H594    1.084   .     S
C557   C558    1.402   .     A
C557   C739    1.381   .     S
C559   H595    1.081   .     S
C559   N601    1.367   .     A
C559   C621    1.416   .     S
C560   H596    1.082   .     S
C560   N600    1.367   .     A
C560   C681    1.416   1_455 S
C561   C572    1.419   .     A
C561   C21     1.418   1_556 S
C561   C24     1.424   1_556 S
C562   H597    1.082   .     S
C562   N600    1.367   .     A
C562   C685    1.416   1_455 S
C563   H598    1.082   .     S
C563   N601    1.366   .     A
C563   C623    1.416   .     S
C564   O608    1.289   .     A
C564   O607    1.290   .     A
C565   C567    1.462   .     S
C565   O609    1.292   .     A
C565   O610    1.294   .     A
C566   C578    1.393   .     A
C567   C577    1.396   .     A
C567   C578    1.399   .     A
C568   C569    1.386   .     A
C568   H584    1.083   .     S
C569   C21     1.390   1_556 S
C569   H37     1.083   1_556 S
C570   H585    1.077   .     S
C571   H589    1.110   .     S
C571   H591    1.111   .     S
C571   N602    1.448   .     S
C571   H773    1.111   .     S
C572   C576    1.413   .     A
C573   C577    1.401   .     A
C574   C575    1.391   .     A
C574   C17     1.404   1_556 S
C574   C24     1.420   1_556 S
C575   C576    1.387   .     A
C575   H599    1.084   .     S
C576   H587    1.080   .     S
C577   H583    1.076   .     S
C578   H581    1.083   .     S
Cu579  N600    2.010   .     S
Cu579  O603    1.962   .     S
Cu579  O607    1.964   .     S
Cu579  Cu580   2.675   .     S
Cu579  O605    1.955   .     S
Cu579  O609    1.943   .     S
Cu580  N601    2.010   .     S
Cu580  O606    1.943   .     S
Cu580  O604    1.964   .     S
Cu580  O608    1.962   .     S
Cu580  O610    1.955   .     S
H582   C17     1.084   1_556 S
H588   N602    1.032   .     S
H590   C937    1.111   1_545 S
C611   O664    1.293   .     A
C611   O665    1.289   .     A
C611   C619    1.454   .     S
C612   C614    1.474   .     S
C612   C633    1.421   .     A
C612   C629    1.403   .     A
C613   C619    1.417   .     A
C613   N663    1.432   .     S
C613   C798    1.398   .     S
C614   O667    1.294   .     A
C614   O666    1.298   .     A
C615   H653    1.082   .     S
C615   C616    1.398   .     A
C615   C979    1.398   1_545 S
C616   C617    1.395   .     A
C616   C625    1.446   .     S
C617   H654    1.084   .     S
C617   C984    1.381   1_545 S
C618   H655    1.084   .     S
C618   C619    1.402   .     A
C618   C800    1.381   .     S
C620   H656    1.081   .     S
C620   N662    1.367   .     A
C620   C682    1.416   .     S
C621   H657    1.082   .     S
C621   N661    1.367   .     A
C622   C633    1.419   .     A
C622   C82     1.418   1_556 S
C622   C85     1.424   1_556 S
C623   H658    1.082   .     S
C623   N661    1.367   .     A
C624   H659    1.082   .     S
C624   N662    1.366   .     A
C624   C684    1.416   .     S
C625   O669    1.289   .     A
C625   O668    1.290   .     A
C626   C628    1.462   .     S
C626   O670    1.292   .     A
C626   O671    1.294   .     A
C627   C639    1.393   .     A
C628   C638    1.396   .     A
C628   C639    1.399   .     A
C629   C630    1.386   .     A
C629   H645    1.083   .     S
C630   C82     1.390   1_556 S
C630   H98     1.083   1_556 S
C631   H646    1.077   .     S
C632   H650    1.110   .     S
C632   H652    1.111   .     S
C632   N663    1.448   .     S
C632   H834    1.111   .     S
C633   C637    1.413   .     A
C634   C638    1.401   .     A
C635   C636    1.391   .     A
C635   C78     1.404   1_556 S
C635   C85     1.420   1_556 S
C636   C637    1.387   .     A
C636   H660    1.084   .     S
C637   H648    1.080   .     S
C638   H644    1.076   .     S
C639   H642    1.083   .     S
Cu640  N661    2.010   .     S
Cu640  O664    1.962   .     S
Cu640  O668    1.964   .     S
Cu640  Cu641   2.675   .     S
Cu640  O666    1.955   .     S
Cu640  O670    1.943   .     S
Cu641  N662    2.010   .     S
Cu641  O667    1.943   .     S
Cu641  O665    1.964   .     S
Cu641  O669    1.962   .     S
Cu641  O671    1.955   .     S
H643   C78     1.084   1_556 S
H649   N663    1.032   .     S
H651   C998    1.111   1_545 S
C672   O725    1.293   .     A
C672   O726    1.289   .     A
C672   C680    1.454   .     S
C673   C675    1.474   .     S
C673   C694    1.421   .     A
C673   C690    1.403   .     A
C674   C680    1.417   .     A
C674   N724    1.432   .     S
C674   C859    1.398   .     S
C675   O728    1.294   .     A
C675   O727    1.298   .     A
C676   H714    1.082   .     S
C676   C677    1.398   .     A
C676   C1040   1.398   1_545 S
C677   C678    1.395   .     A
C677   C686    1.446   .     S
C678   H715    1.084   .     S
C678   C1045   1.381   1_545 S
C679   H716    1.084   .     S
C679   C680    1.402   .     A
C679   C861    1.381   .     S
C681   H717    1.081   .     S
C681   N723    1.367   .     A
C681   C560    1.416   1_655 S
C682   H718    1.082   .     S
C682   N722    1.367   .     A
C683   C694    1.419   .     A
C683   C143    1.418   1_556 S
C683   C146    1.424   1_556 S
C684   H719    1.082   .     S
C684   N722    1.367   .     A
C685   H720    1.082   .     S
C685   N723    1.366   .     A
C685   C562    1.416   1_655 S
C686   O730    1.289   .     A
C686   O729    1.290   .     A
C687   C689    1.462   .     S
C687   O731    1.292   .     A
C687   O732    1.294   .     A
C688   C700    1.393   .     A
C689   C699    1.396   .     A
C689   C700    1.399   .     A
C690   C691    1.386   .     A
C690   H706    1.083   .     S
C691   C143    1.390   1_556 S
C691   H159    1.083   1_556 S
C692   H707    1.077   .     S
C693   H711    1.110   .     S
C693   H713    1.111   .     S
C693   N724    1.448   .     S
C693   H895    1.111   .     S
C694   C698    1.413   .     A
C695   C699    1.401   .     A
C696   C697    1.391   .     A
C696   C139    1.404   1_556 S
C696   C146    1.420   1_556 S
C697   C698    1.387   .     A
C697   H721    1.084   .     S
C698   H709    1.080   .     S
C699   H705    1.076   .     S
C700   H703    1.083   .     S
Cu701  N722    2.010   .     S
Cu701  O725    1.962   .     S
Cu701  O729    1.964   .     S
Cu701  Cu702   2.675   .     S
Cu701  O727    1.955   .     S
Cu701  O731    1.943   .     S
Cu702  N723    2.010   .     S
Cu702  O728    1.943   .     S
Cu702  O726    1.964   .     S
Cu702  O730    1.962   .     S
Cu702  O732    1.955   .     S
H704   C139    1.084   1_556 S
H710   N724    1.032   .     S
H712   C1059   1.111   1_545 S
C733   O786    1.293   .     A
C733   O787    1.289   .     A
C733   C741    1.454   .     S
C734   C736    1.474   .     S
C734   C755    1.421   .     A
C734   C751    1.403   .     A
C735   C741    1.417   .     A
C735   N785    1.432   .     S
C735   C920    1.398   .     S
C736   O789    1.294   .     A
C736   O788    1.298   .     A
C737   H775    1.082   .     S
C737   C738    1.398   .     A
C738   C739    1.395   .     A
C738   C747    1.446   .     S
C739   H776    1.084   .     S
C740   H777    1.084   .     S
C740   C741    1.402   .     A
C740   C922    1.381   .     S
C742   H778    1.081   .     S
C742   N784    1.367   .     A
C742   C804    1.416   .     S
C743   H779    1.082   .     S
C743   N783    1.367   .     A
C743   C864    1.416   1_455 S
C744   C755    1.419   .     A
C744   C204    1.418   1_556 S
C744   C207    1.424   1_556 S
C745   H780    1.082   .     S
C745   N783    1.367   .     A
C745   C868    1.416   1_455 S
C746   H781    1.082   .     S
C746   N784    1.366   .     A
C746   C806    1.416   .     S
C747   O791    1.289   .     A
C747   O790    1.290   .     A
C748   C750    1.462   .     S
C748   O792    1.292   .     A
C748   O793    1.294   .     A
C749   C761    1.393   .     A
C750   C760    1.396   .     A
C750   C761    1.399   .     A
C751   C752    1.386   .     A
C751   H767    1.083   .     S
C752   C204    1.390   1_556 S
C752   H220    1.083   1_556 S
C753   H768    1.077   .     S
C754   H772    1.110   .     S
C754   H774    1.111   .     S
C754   N785    1.448   .     S
C754   H956    1.111   .     S
C755   C759    1.413   .     A
C756   C760    1.401   .     A
C757   C758    1.391   .     A
C757   C200    1.404   1_556 S
C757   C207    1.420   1_556 S
C758   C759    1.387   .     A
C758   H782    1.084   .     S
C759   H770    1.080   .     S
C760   H766    1.076   .     S
C761   H764    1.083   .     S
Cu762  N783    2.010   .     S
Cu762  O786    1.962   .     S
Cu762  O790    1.964   .     S
Cu762  Cu763   2.675   .     S
Cu762  O788    1.955   .     S
Cu762  O792    1.943   .     S
Cu763  N784    2.010   .     S
Cu763  O789    1.943   .     S
Cu763  O787    1.964   .     S
Cu763  O791    1.962   .     S
Cu763  O793    1.955   .     S
H765   C200    1.084   1_556 S
H771   N785    1.032   .     S
C794   O847    1.293   .     A
C794   O848    1.289   .     A
C794   C802    1.454   .     S
C795   C797    1.474   .     S
C795   C816    1.421   .     A
C795   C812    1.403   .     A
C796   C802    1.417   .     A
C796   N846    1.432   .     S
C796   C981    1.398   .     S
C797   O850    1.294   .     A
C797   O849    1.298   .     A
C798   H836    1.082   .     S
C798   C799    1.398   .     A
C799   C800    1.395   .     A
C799   C808    1.446   .     S
C800   H837    1.084   .     S
C801   H838    1.084   .     S
C801   C802    1.402   .     A
C801   C983    1.381   .     S
C803   H839    1.081   .     S
C803   N845    1.367   .     A
C803   C865    1.416   .     S
C804   H840    1.082   .     S
C804   N844    1.367   .     A
C805   C816    1.419   .     A
C805   C265    1.418   1_556 S
C805   C268    1.424   1_556 S
C806   H841    1.082   .     S
C806   N844    1.367   .     A
C807   H842    1.082   .     S
C807   N845    1.366   .     A
C807   C867    1.416   .     S
C808   O852    1.289   .     A
C808   O851    1.290   .     A
C809   C811    1.462   .     S
C809   O853    1.292   .     A
C809   O854    1.294   .     A
C810   C822    1.393   .     A
C811   C821    1.396   .     A
C811   C822    1.399   .     A
C812   C813    1.386   .     A
C812   H828    1.083   .     S
C813   C265    1.390   1_556 S
C813   H281    1.083   1_556 S
C814   H829    1.077   .     S
C815   H833    1.110   .     S
C815   H835    1.111   .     S
C815   N846    1.448   .     S
C815   H1017   1.111   .     S
C816   C820    1.413   .     A
C817   C821    1.401   .     A
C818   C819    1.391   .     A
C818   C261    1.404   1_556 S
C818   C268    1.420   1_556 S
C819   C820    1.387   .     A
C819   H843    1.084   .     S
C820   H831    1.080   .     S
C821   H827    1.076   .     S
C822   H825    1.083   .     S
Cu823  N844    2.010   .     S
Cu823  O847    1.962   .     S
Cu823  O851    1.964   .     S
Cu823  Cu824   2.675   .     S
Cu823  O849    1.955   .     S
Cu823  O853    1.943   .     S
Cu824  N845    2.010   .     S
Cu824  O850    1.943   .     S
Cu824  O848    1.964   .     S
Cu824  O852    1.962   .     S
Cu824  O854    1.955   .     S
H826   C261    1.084   1_556 S
H832   N846    1.032   .     S
C855   O908    1.293   .     A
C855   O909    1.289   .     A
C855   C863    1.454   .     S
C856   C858    1.474   .     S
C856   C877    1.421   .     A
C856   C873    1.403   .     A
C857   C863    1.417   .     A
C857   N907    1.432   .     S
C857   C1042   1.398   .     S
C858   O911    1.294   .     A
C858   O910    1.298   .     A
C859   H897    1.082   .     S
C859   C860    1.398   .     A
C860   C861    1.395   .     A
C860   C869    1.446   .     S
C861   H898    1.084   .     S
C862   H899    1.084   .     S
C862   C863    1.402   .     A
C862   C1044   1.381   .     S
C864   H900    1.081   .     S
C864   N906    1.367   .     A
C864   C743    1.416   1_655 S
C865   H901    1.082   .     S
C865   N905    1.367   .     A
C866   C877    1.419   .     A
C866   C326    1.418   1_556 S
C866   C329    1.424   1_556 S
C867   H902    1.082   .     S
C867   N905    1.367   .     A
C868   H903    1.082   .     S
C868   N906    1.366   .     A
C868   C745    1.416   1_655 S
C869   O913    1.289   .     A
C869   O912    1.290   .     A
C870   C872    1.462   .     S
C870   O914    1.292   .     A
C870   O915    1.294   .     A
C871   C883    1.393   .     A
C872   C882    1.396   .     A
C872   C883    1.399   .     A
C873   C874    1.386   .     A
C873   H889    1.083   .     S
C874   C326    1.390   1_556 S
C874   H342    1.083   1_556 S
C875   H890    1.077   .     S
C876   H894    1.110   .     S
C876   H896    1.111   .     S
C876   N907    1.448   .     S
C876   H1078   1.111   .     S
C877   C881    1.413   .     A
C878   C882    1.401   .     A
C879   C880    1.391   .     A
C879   C322    1.404   1_556 S
C879   C329    1.420   1_556 S
C880   C881    1.387   .     A
C880   H904    1.084   .     S
C881   H892    1.080   .     S
C882   H888    1.076   .     S
C883   H886    1.083   .     S
Cu884  N905    2.010   .     S
Cu884  O908    1.962   .     S
Cu884  O912    1.964   .     S
Cu884  Cu885   2.675   .     S
Cu884  O910    1.955   .     S
Cu884  O914    1.943   .     S
Cu885  N906    2.010   .     S
Cu885  O911    1.943   .     S
Cu885  O909    1.964   .     S
Cu885  O913    1.962   .     S
Cu885  O915    1.955   .     S
H887   C322    1.084   1_556 S
H893   N907    1.032   .     S
C916   O969    1.293   .     A
C916   O970    1.289   .     A
C916   C924    1.454   .     S
C917   C919    1.474   .     S
C917   C938    1.421   .     A
C917   C934    1.403   .     A
C918   C924    1.417   .     A
C918   N968    1.432   .     S
C918   C554    1.398   1_565 S
C919   O972    1.294   .     A
C919   O971    1.298   .     A
C920   H958    1.082   .     S
C920   C921    1.398   .     A
C921   C922    1.395   .     A
C921   C930    1.446   .     S
C922   H959    1.084   .     S
C923   H960    1.084   .     S
C923   C924    1.402   .     A
C923   C556    1.381   1_565 S
C925   H961    1.081   .     S
C925   N967    1.367   .     A
C925   C987    1.416   .     S
C926   H962    1.082   .     S
C926   N966    1.367   .     A
C926   C1047   1.416   1_455 S
C927   C938    1.419   .     A
C927   C387    1.418   1_556 S
C927   C390    1.424   1_556 S
C928   H963    1.082   .     S
C928   N966    1.367   .     A
C928   C1051   1.416   1_455 S
C929   H964    1.082   .     S
C929   N967    1.366   .     A
C929   C989    1.416   .     S
C930   O974    1.289   .     A
C930   O973    1.290   .     A
C931   C933    1.462   .     S
C931   O975    1.292   .     A
C931   O976    1.294   .     A
C932   C944    1.393   .     A
C933   C943    1.396   .     A
C933   C944    1.399   .     A
C934   C935    1.386   .     A
C934   H950    1.083   .     S
C935   C387    1.390   1_556 S
C935   H403    1.083   1_556 S
C936   H951    1.077   .     S
C937   H955    1.110   .     S
C937   H957    1.111   .     S
C937   N968    1.448   .     S
C937   H590    1.111   1_565 S
C938   C942    1.413   .     A
C939   C943    1.401   .     A
C940   C941    1.391   .     A
C940   C383    1.404   1_556 S
C940   C390    1.420   1_556 S
C941   C942    1.387   .     A
C941   H965    1.084   .     S
C942   H953    1.080   .     S
C943   H949    1.076   .     S
C944   H947    1.083   .     S
Cu945  N966    2.010   .     S
Cu945  O969    1.962   .     S
Cu945  O973    1.964   .     S
Cu945  Cu946   2.675   .     S
Cu945  O971    1.955   .     S
Cu945  O975    1.943   .     S
Cu946  N967    2.010   .     S
Cu946  O972    1.943   .     S
Cu946  O970    1.964   .     S
Cu946  O974    1.962   .     S
Cu946  O976    1.955   .     S
H948   C383    1.084   1_556 S
H954   N968    1.032   .     S
C977   O1030   1.293   .     A
C977   O1031   1.289   .     A
C977   C985    1.454   .     S
C978   C980    1.474   .     S
C978   C999    1.421   .     A
C978   C995    1.403   .     A
C979   C985    1.417   .     A
C979   N1029   1.432   .     S
C979   C615    1.398   1_565 S
C980   O1033   1.294   .     A
C980   O1032   1.298   .     A
C981   H1019   1.082   .     S
C981   C982    1.398   .     A
C982   C983    1.395   .     A
C982   C991    1.446   .     S
C983   H1020   1.084   .     S
C984   H1021   1.084   .     S
C984   C985    1.402   .     A
C984   C617    1.381   1_565 S
C986   H1022   1.081   .     S
C986   N1028   1.367   .     A
C986   C1048   1.416   .     S
C987   H1023   1.082   .     S
C987   N1027   1.367   .     A
C988   C999    1.419   .     A
C988   C448    1.418   1_556 S
C988   C451    1.424   1_556 S
C989   H1024   1.082   .     S
C989   N1027   1.367   .     A
C990   H1025   1.082   .     S
C990   N1028   1.366   .     A
C990   C1050   1.416   .     S
C991   O1035   1.289   .     A
C991   O1034   1.290   .     A
C992   C994    1.462   .     S
C992   O1036   1.292   .     A
C992   O1037   1.294   .     A
C993   C1005   1.393   .     A
C994   C1004   1.396   .     A
C994   C1005   1.399   .     A
C995   C996    1.386   .     A
C995   H1011   1.083   .     S
C996   C448    1.390   1_556 S
C996   H464    1.083   1_556 S
C997   H1012   1.077   .     S
C998   H1016   1.110   .     S
C998   H1018   1.111   .     S
C998   N1029   1.448   .     S
C998   H651    1.111   1_565 S
C999   C1003   1.413   .     A
C1000  C1004   1.401   .     A
C1001  C1002   1.391   .     A
C1001  C444    1.404   1_556 S
C1001  C451    1.420   1_556 S
C1002  C1003   1.387   .     A
C1002  H1026   1.084   .     S
C1003  H1014   1.080   .     S
C1004  H1010   1.076   .     S
C1005  H1008   1.083   .     S
Cu1006 N1027   2.010   .     S
Cu1006 O1030   1.962   .     S
Cu1006 O1034   1.964   .     S
Cu1006 Cu1007  2.675   .     S
Cu1006 O1032   1.955   .     S
Cu1006 O1036   1.943   .     S
Cu1007 N1028   2.010   .     S
Cu1007 O1033   1.943   .     S
Cu1007 O1031   1.964   .     S
Cu1007 O1035   1.962   .     S
Cu1007 O1037   1.955   .     S
H1009  C444    1.084   1_556 S
H1015  N1029   1.032   .     S
C1038  O1091   1.293   .     A
C1038  O1092   1.289   .     A
C1038  C1046   1.454   .     S
C1039  C1041   1.474   .     S
C1039  C1060   1.421   .     A
C1039  C1056   1.403   .     A
C1040  C1046   1.417   .     A
C1040  N1090   1.432   .     S
C1040  C676    1.398   1_565 S
C1041  O1094   1.294   .     A
C1041  O1093   1.298   .     A
C1042  H1080   1.082   .     S
C1042  C1043   1.398   .     A
C1043  C1044   1.395   .     A
C1043  C1052   1.446   .     S
C1044  H1081   1.084   .     S
C1045  H1082   1.084   .     S
C1045  C1046   1.402   .     A
C1045  C678    1.381   1_565 S
C1047  H1083   1.081   .     S
C1047  N1089   1.367   .     A
C1047  C926    1.416   1_655 S
C1048  H1084   1.082   .     S
C1048  N1088   1.367   .     A
C1049  C1060   1.419   .     A
C1049  C509    1.418   1_556 S
C1049  C512    1.424   1_556 S
C1050  H1085   1.082   .     S
C1050  N1088   1.367   .     A
C1051  H1086   1.082   .     S
C1051  N1089   1.366   .     A
C1051  C928    1.416   1_655 S
C1052  O1096   1.289   .     A
C1052  O1095   1.290   .     A
C1053  C1055   1.462   .     S
C1053  O1097   1.292   .     A
C1053  O1098   1.294   .     A
C1054  C1066   1.393   .     A
C1055  C1065   1.396   .     A
C1055  C1066   1.399   .     A
C1056  C1057   1.386   .     A
C1056  H1072   1.083   .     S
C1057  C509    1.390   1_556 S
C1057  H525    1.083   1_556 S
C1058  H1073   1.077   .     S
C1059  H1077   1.110   .     S
C1059  H1079   1.111   .     S
C1059  N1090   1.448   .     S
C1059  H712    1.111   1_565 S
C1060  C1064   1.413   .     A
C1061  C1065   1.401   .     A
C1062  C1063   1.391   .     A
C1062  C505    1.404   1_556 S
C1062  C512    1.420   1_556 S
C1063  C1064   1.387   .     A
C1063  H1087   1.084   .     S
C1064  H1075   1.080   .     S
C1065  H1071   1.076   .     S
C1066  H1069   1.083   .     S
Cu1067 N1088   2.010   .     S
Cu1067 O1091   1.962   .     S
Cu1067 O1095   1.964   .     S
Cu1067 Cu1068  2.675   .     S
Cu1067 O1093   1.955   .     S
Cu1067 O1097   1.943   .     S
Cu1068 N1089   2.010   .     S
Cu1068 O1094   1.943   .     S
Cu1068 O1092   1.964   .     S
Cu1068 O1096   1.962   .     S
Cu1068 O1098   1.955   .     S
H1070  C505    1.084   1_556 S
H1076  N1090   1.032   .     S
